@<TRIPOS>MOLECULE
tmp/3il6A00.pdb
 184 177 0 0 0
SMALL
GASTEIGER

@<TRIPOS>ATOM
      1  N       -132.5030  119.8030   96.1150 N.3    33  TRP33      -0.1241
      2  CA      -133.1230  120.5390   95.0140 C.3    33  TRP33       0.1605
      3  C       -133.8060  121.8210   95.5050 C.2    33  TRP33       0.2264
      4  O       -133.8330  122.8300   94.8010 O.2    33  TRP33      -0.2867
      5  CB      -134.1350  119.6440   94.3000 C.3    33  TRP33       0.0550
      6  CG      -134.7410  120.2410   93.0630 C.ar   33  TRP33       0.0003
      7  CD1     -136.0730  120.3480   92.7800 C.ar   33  TRP33       0.0946
      8  CD2     -134.0440  120.7530   91.9110 C.ar   33  TRP33       0.0152
      9  NE1     -136.2520  120.8900   91.5270 N.ar   33  TRP33      -0.2442
     10  CE2     -135.0260  121.1470   90.9700 C.ar   33  TRP33       0.0810
     11  CE3     -132.6890  120.9130   91.5820 C.ar   33  TRP33       0.0012
     12  CZ2     -134.6950  121.6940   89.7180 C.ar   33  TRP33       0.0191
     13  CZ3     -132.3590  121.4580   90.3280 C.ar   33  TRP33       0.0001
     14  CH2     -133.3620  121.8390   89.4170 C.ar   33  TRP33       0.0015
     15  N       -132.5610  125.5600   94.0280 N.3    37  ARG37      -0.1231
     16  CA      -133.5460  126.3730   93.3250 C.3    37  ARG37       0.1694
     17  C       -133.8190  127.6820   94.0420 C.2    37  ARG37       0.2592
     18  O       -134.1340  128.6920   93.4090 O.2    37  ARG37      -0.2718
     19  CB      -134.8730  125.6400   93.2160 C.3    37  ARG37       0.0321
     20  CG      -134.8720  124.4390   92.3450 C.3    37  ARG37       0.0489
     21  CD      -136.0270  123.5740   92.7610 C.3    37  ARG37       0.2205
     22  NE      -137.3130  124.2220   92.5560 N.pl3  37  ARG37      -0.0865
     23  CZ      -138.3600  124.0790   93.3660 C.cat  37  ARG37       0.5346
     24  NH1     -139.4940  124.7110   93.0820 N.pl3  37  ARG37       0.1354
     25  NH2     -138.2720  123.3230   94.4620 N.pl3  37  ARG37       0.1354
     26  N       -133.7030  127.6640   95.3650 N.am   38  THR38      -0.1953
     27  CA      -134.0100  128.8450   96.1570 C.3    38  THR38       0.1897
     28  C       -132.8290  129.6230   96.7200 C.2    38  THR38       0.2313
     29  O       -132.9160  130.8380   96.9030 O.2    38  THR38      -0.2863
     30  CB      -134.9270  128.4700   97.3400 C.3    38  THR38       0.1794
     31  OG1     -134.2120  127.6180   98.2420 O.3    38  THR38      -0.2208
     32  CG2     -136.1680  127.7410   96.8470 C.3    38  THR38       0.0378
     33  N       -143.2200  125.1240   94.2350 N.3   151  SER151     -0.1217
     34  CA      -142.6080  126.0940   93.3410 C.3   151  SER151      0.1889
     35  C       -142.7270  127.5000   93.9060 C.2   151  SER151      0.2288
     36  O       -142.3460  128.4720   93.2490 O.2   151  SER151     -0.2866
     37  CB      -143.2640  126.0310   91.9620 C.3   151  SER151      0.2089
     38  OG      -144.6430  126.3480   92.0330 O.3   151  SER151     -0.2183
     39  N       -141.6430  126.8850   99.2710 N.3   154  VAL154     -0.1231
     40  CA      -140.2530  126.7560   99.7110 C.3   154  VAL154      0.1692
     41  C       -139.4750  128.0750   99.6750 C.2   154  VAL154      0.2592
     42  O       -138.3920  128.1870  100.2510 O.2   154  VAL154     -0.2718
     43  CB      -139.4850  125.7300   98.8290 C.3   154  VAL154      0.0266
     44  CG1     -140.1070  124.3550   98.9640 C.3   154  VAL154      0.0020
     45  CG2     -139.4910  126.1790   97.3680 C.3   154  VAL154      0.0020
     46  N       -140.0450  129.0710   99.0060 N.am  155  LEU155     -0.1966
     47  CA      -139.4220  130.3790   98.8260 C.3   155  LEU155      0.1728
     48  C       -139.5380  131.4050   99.9670 C.2   155  LEU155      0.2616
     49  O       -138.6250  132.2080  100.1710 O.2   155  LEU155     -0.2715
     50  CB      -139.9960  131.0090   97.5570 C.3   155  LEU155      0.0311
     51  CG      -139.0940  131.5160   96.4360 C.3   155  LEU155      0.0022
     52  CD1     -139.9800  132.1500   95.3770 C.3   155  LEU155      0.0001
     53  CD2     -138.0860  132.5330   96.9620 C.3   155  LEU155      0.0001
     54  N       -140.6390  131.3750  100.7160 N.am  156  PHE156     -0.1974
     55  CA      -140.8600  132.3820  101.7510 C.3   156  PHE156      0.1639
     56  C       -140.6360  132.0750  103.2280 C.2   156  PHE156      0.2290
     57  O       -140.9090  130.9730  103.7120 O.2   156  PHE156     -0.2864
     58  CB      -142.2710  132.9660  101.5810 C.3   156  PHE156      0.0560
     59  CG      -142.5360  133.5180  100.2040 C.ar  156  PHE156     -0.0200
     60  CD1     -142.8690  132.6670   99.1510 C.ar  156  PHE156     -0.0042
     61  CD2     -142.4060  134.8820   99.9500 C.ar  156  PHE156     -0.0042
     62  CE1     -143.0660  133.1650   97.8630 C.ar  156  PHE156     -0.0003
     63  CE2     -142.6000  135.3920   98.6710 C.ar  156  PHE156     -0.0003
     64  CZ      -142.9300  134.5300   97.6230 C.ar  156  PHE156     -0.0000
     65  N       -147.8980  139.0880   89.9600 N.3   188  LEU188     -0.1245
     66  CA      -147.6320  138.6990   91.3380 C.3   188  LEU188      0.1561
     67  C       -148.7830  139.1780   92.2260 C.2   188  LEU188      0.2260
     68  O       -148.9050  140.3690   92.5210 O.2   188  LEU188     -0.2867
     69  CB      -146.2960  139.3240   91.7530 C.3   188  LEU188      0.0270
     70  CG      -145.6200  139.0910   93.1000 C.3   188  LEU188      0.0019
     71  CD1     -145.4580  137.6140   93.3910 C.3   188  LEU188      0.0001
     72  CD2     -144.2680  139.7830   93.0590 C.3   188  LEU188      0.0001
     73  N       -147.4360  133.6860   91.3880 N.3   212  MET212     -0.1245
     74  CA      -146.3600  134.4400   90.7590 C.3   212  MET212      0.1570
     75  C       -145.8660  133.8800   89.4320 C.2   212  MET212      0.2261
     76  O       -145.7630  132.6680   89.2520 O.2   212  MET212     -0.2867
     77  CB      -145.1700  134.5600   91.7180 C.3   212  MET212      0.0387
     78  CG      -144.4160  133.2500   91.9740 C.3   212  MET212      0.0595
     79  SD      -143.0250  133.4170   93.1350 S.3   212  MET212     -0.1393
     80  CE      -141.7430  133.9610   92.0140 C.3   212  MET212      0.0692
     81  N       -142.8190  133.6630   87.8400 N.3   214  GLY214     -0.1210
     82  CA      -141.3860  133.7570   88.0650 C.3   214  GLY214      0.1956
     83  C       -140.5180  134.3900   86.9970 C.2   214  GLY214      0.2611
     84  O       -139.8030  135.3560   87.2690 O.2   214  GLY214     -0.2717
     85  N       -140.5620  133.8380   85.7900 N.am  215  ARG215     -0.1979
     86  CA      -139.7690  134.3460   84.6760 C.3   215  ARG215      0.1597
     87  C       -140.0990  135.8080   84.3990 C.2   215  ARG215      0.2287
     88  O       -139.2020  136.6260   84.1850 O.2   215  ARG215     -0.2864
     89  CB      -140.0500  133.5270   83.4180 C.3   215  ARG215      0.0334
     90  CG      -139.2380  133.9420   82.2090 C.3   215  ARG215      0.0492
     91  CD      -137.8540  133.3310   82.2530 C.3   215  ARG215      0.2205
     92  NE      -136.7940  134.3320   82.2110 N.pl3 215  ARG215     -0.0865
     93  CZ      -135.4940  134.0440   82.2150 C.cat 215  ARG215      0.5346
     94  NH1     -134.5990  135.0240   82.1760 N.pl3 215  ARG215      0.1354
     95  NH2     -135.0840  132.7790   82.2540 N.pl3 215  ARG215      0.1354
     96  N       -141.4430  138.2740   86.4080 N.3   217  ILE217     -0.1231
     97  CA      -140.9630  139.2130   87.4180 C.3   217  ILE217      0.1692
     98  C       -139.4410  139.1890   87.5230 C.2   217  ILE217      0.2592
     99  O       -138.8210  140.1860   87.9020 O.2   217  ILE217     -0.2718
    100  CB      -141.6230  138.9510   88.8170 C.3   217  ILE217      0.0266
    101  CG1     -141.3040  137.5450   89.3200 C.3   217  ILE217      0.0019
    102  CG2     -143.1430  139.1310   88.7190 C.3   217  ILE217      0.0020
    103  CD1     -141.9900  137.2150   90.6360 C.3   217  ILE217      0.0001
    104  N       -138.8380  138.0570   87.1710 N.am  218  PHE218     -0.1976
    105  CA      -137.3860  137.9440   87.2030 C.3   218  PHE218      0.1639
    106  C       -136.8150  138.8760   86.1360 C.2   218  PHE218      0.2290
    107  O       -135.8560  139.6030   86.3830 O.2   218  PHE218     -0.2864
    108  CB      -136.9540  136.5090   86.9080 C.3   218  PHE218      0.0560
    109  CG      -135.4660  136.3020   86.9560 C.ar  218  PHE218     -0.0200
    110  CD1     -134.8190  136.0850   88.1660 C.ar  218  PHE218     -0.0042
    111  CD2     -134.7090  136.3370   85.7880 C.ar  218  PHE218     -0.0042
    112  CE1     -133.4290  135.9030   88.2150 C.ar  218  PHE218     -0.0003
    113  CE2     -133.3250  136.1600   85.8250 C.ar  218  PHE218     -0.0003
    114  CZ      -132.6840  135.9420   87.0430 C.ar  218  PHE218     -0.0000
    115  N       -138.3700  141.4230   84.7830 N.3   220  PHE220     -0.1227
    116  CA      -138.7450  142.7680   85.1800 C.3   220  PHE220      0.1736
    117  C       -137.6760  143.3530   86.1060 C.2   220  PHE220      0.2595
    118  O       -137.1760  144.4590   85.8840 O.2   220  PHE220     -0.2718
    119  CB      -140.1210  142.7170   85.8700 C.3   220  PHE220      0.0547
    120  CG      -140.2980  143.7170   86.9880 C.ar  220  PHE220     -0.0202
    121  CD1     -140.4770  143.2820   88.3040 C.ar  220  PHE220     -0.0042
    122  CD2     -140.2880  145.0900   86.7340 C.ar  220  PHE220     -0.0042
    123  CE1     -140.6430  144.1970   89.3480 C.ar  220  PHE220     -0.0003
    124  CE2     -140.4520  146.0110   87.7740 C.ar  220  PHE220     -0.0003
    125  CZ      -140.6290  145.5640   89.0800 C.ar  220  PHE220     -0.0000
    126  N       -137.3170  142.5940   87.1340 N.am  221  ALA221     -0.1980
    127  CA      -136.3190  143.0360   88.0940 C.3   221  ALA221      0.1597
    128  C       -135.0050  143.3840   87.4050 C.2   221  ALA221      0.2287
    129  O       -134.4700  144.4750   87.5990 O.2   221  ALA221     -0.2864
    130  CB      -136.0960  141.9570   89.1480 C.3   221  ALA221      0.0319
    131  N       -133.9670  143.8750   97.7010 N.3   244  HIS244     -0.1241
    132  CA      -134.9530  142.9400   98.2260 C.3   244  HIS244      0.1621
    133  C       -134.4170  141.5270   97.9780 C.2   244  HIS244      0.2264
    134  O       -133.9880  141.2060   96.8670 O.2   244  HIS244     -0.2867
    135  CB      -136.2870  143.1560   97.5010 C.3   244  HIS244      0.0745
    136  CG      -137.2390  142.0060   97.6140 C.ar  244  HIS244      0.0817
    137  ND1     -137.6070  141.4570   98.8250 N.ar  244  HIS244     -0.2268
    138  CD2     -137.9120  141.3130   96.6650 C.ar  244  HIS244      0.1154
    139  CE1     -138.4660  140.4750   98.6160 C.ar  244  HIS244      0.1986
    140  NE2     -138.6680  140.3680   97.3140 N.ar  244  HIS244     -0.2212
    141  N       -135.1830  138.4530   97.0090 N.3   246  ALA246     -0.1231
    142  CA      -136.1330  137.6030   96.2960 C.3   246  ALA246      0.1694
    143  C       -135.4400  136.3810   95.7190 C.2   246  ALA246      0.2592
    144  O       -135.9450  135.2590   95.7860 O.2   246  ALA246     -0.2718
    145  CB      -136.7700  138.3870   95.1760 C.3   246  ALA246      0.0304
    146  N       -134.2700  136.6210   95.1470 N.am  247  ASN247     -0.1974
    147  CA      -133.4900  135.5750   94.5180 C.3   247  ASN247      0.1688
    148  C       -132.1010  136.1440   94.2900 C.2   247  ASN247      0.2292
    149  O       -131.9550  137.2230   93.7170 O.2   247  ASN247     -0.2864
    150  CB      -134.1430  135.1970   93.1920 C.3   247  ASN247      0.1181
    151  CG      -133.3360  134.2060   92.4170 C.2   247  ASN247      0.2629
    152  OD1     -132.2250  134.5000   92.0000 O.2   247  ASN247     -0.2716
    153  ND2     -133.8850  133.0160   92.2180 N.am  247  ASN247     -0.0877
    154  N       -130.8860  137.2500   90.7920 N.3   250  ILE250     -0.1245
    155  CA      -131.3610  138.5330   90.2960 C.3   250  ILE250      0.1561
    156  C       -130.2300  139.5170   90.5690 C.2   250  ILE250      0.2260
    157  O       -129.8740  140.3380   89.7230 O.2   250  ILE250     -0.2867
    158  CB      -132.6370  139.0060   91.0470 C.3   250  ILE250      0.0252
    159  CG1     -133.8510  138.1820   90.5980 C.3   250  ILE250      0.0019
    160  CG2     -132.8670  140.4940   90.8020 C.3   250  ILE250      0.0019
    161  CD1     -135.1500  138.5260   91.3120 C.3   250  ILE250      0.0001
    162  N       -137.1250  134.3070  101.5040 N.3   274  ASN274     -0.1240
    163  CA      -137.6790  135.5820  101.0520 C.3   274  ASN274      0.1653
    164  C       -138.6590  136.0720  102.1220 C.2   274  ASN274      0.2266
    165  O       -139.7250  135.4810  102.3070 O.2   274  ASN274     -0.2867
    166  CB      -138.4100  135.3890   99.7200 C.3   274  ASN274      0.1155
    167  CG      -138.9180  136.6930   99.1380 C.2   274  ASN274      0.2627
    168  OD1     -139.1410  137.6690   99.8610 O.2   274  ASN274     -0.2716
    169  ND2     -139.1200  136.7130   97.8250 N.am  274  ASN274     -0.0877
    170  N       -138.4480  145.8850   95.3320 N.3   306  PHE306     -0.1227
    171  CA      -139.2120  145.6540   94.1150 C.3   306  PHE306      0.1740
    172  C       -140.1810  144.5230   94.4040 C.2   306  PHE306      0.2635
    173  O       -139.8470  143.5960   95.1350 O.2   306  PHE306     -0.2714
    174  CB      -138.2840  145.3160   92.9310 C.3   306  PHE306      0.0548
    175  CG      -137.1200  144.3980   93.2780 C.ar  306  PHE306     -0.0202
    176  CD1     -137.2210  143.0200   93.1040 C.ar  306  PHE306     -0.0042
    177  CD2     -135.9070  144.9240   93.7340 C.ar  306  PHE306     -0.0042
    178  CE1     -136.1430  142.1760   93.3710 C.ar  306  PHE306     -0.0003
    179  CE2     -134.8240  144.0880   94.0040 C.ar  306  PHE306     -0.0003
    180  CZ      -134.9450  142.7100   93.8200 C.ar  306  PHE306     -0.0000
    181  N       -141.3900  144.6070   93.8650 N.am  307  GLY307     -0.1732
    182  CA      -142.3580  143.5620   94.1320 C.2   307  GLY307      0.1340
    183  C       -143.6960  143.7290   93.4430 C.2   307  GLY307      0.2521
    184  O       -143.7870  144.3410   92.3760 O.2   307  GLY307     -0.2816
@<TRIPOS>BOND
     1    94    93    1
     2    90    91    1
     3    90    89    1
     4    92    93    2
     5    92    91    1
     6    93    95    1
     7    89    86    1
     8    88    87    2
     9    87    86    1
    10    86    85    1
    11   115   116    1
    12   116   119    1
    13   116   117    1
    14   111   113   ar
    15   111   109   ar
    16    85    83   am
    17   113   114   ar
    18   119   120    1
    19   118   117    2
    20   117   126   am
    21   106   107    2
    22   106   105    1
    23    96    97    1
    24   122   120   ar
    25   122   124   ar
    26   108   109    1
    27   108   105    1
    28   109   110   ar
    29   120   121   ar
    30    83    84    2
    31    83    82    1
    32   114   112   ar
    33   126   127    1
    34   104   105    1
    35   104    98   am
    36   128   129    2
    37   128   127    1
    38    97    98    1
    39    97   100    1
    40    98    99    2
    41   124   125   ar
    42    81    82    1
    43   127   130    1
    44   110   112   ar
    45   121   123   ar
    46   102   100    1
    47   100   101    1
    48   125   123   ar
    49    76    75    2
    50   101   103    1
    51    14    12   ar
    52    14    13   ar
    53    75    74    1
    54    12    10   ar
    55   157   156    2
    56    65    66    1
    57   155   156    1
    58   155   154    1
    59   155   158    1
    60    13    11   ar
    61   159   158    1
    62   159   161    1
    63    74    73    1
    64    74    77    1
    65   160   158    1
    66    10     9   ar
    67    10     8   ar
    68    66    69    1
    69    66    67    1
    70     9     7   ar
    71    11     8   ar
    72    77    78    1
    73    69    70    1
    74     8     6   ar
    75    37    38    1
    76    37    34    1
    77    78    79    1
    78   152   151    2
    79    80    79    1
    80   153   151   am
    81    67    68    2
    82    20    21    1
    83    20    19    1
    84   184   183    2
    85   151   150    1
    86    22    21    1
    87    22    23    2
    88     7     6   ar
    89   174   175    1
    90   174   171    1
    91    72    70    1
    92     6     5    1
    93    24    23    1
    94    70    71    1
    95   176   175   ar
    96   176   178   ar
    97   150   147    1
    98    19    16    1
    99    36    35    2
   100   175   177   ar
   101    16    15    1
   102    16    17    1
   103    34    35    1
   104    34    33    1
   105    23    25    1
   106   178   180   ar
   107    18    17    2
   108   183   182    1
   109   149   148    2
   110   177   179   ar
   111   180   179   ar
   112   181   182    2
   113   181   172    1
   114    17    26   am
   115   171   172    1
   116   171   170    1
   117   148   147    1
   118     5     2    1
   119   172   173    2
   120   147   146    1
   121     4     3    2
   122     2     3    1
   123     2     1    1
   124   146   143   am
   125   145   142    1
   126    26    27    1
   127    52    51    1
   128   143   144    2
   129   143   142    1
   130    27    28    1
   131    27    30    1
   132   142   141    1
   133    51    53    1
   134    51    50    1
   135   138   140   ar
   136   138   136   ar
   137    28    29    2
   138    32    30    1
   139   134   133    2
   140   140   139   ar
   141    30    31    1
   142    45    43    1
   143   135   136    1
   144   135   132    1
   145    50    47    1
   146   136   137   ar
   147    64    62   ar
   148    64    63   ar
   149   131   132    1
   150   169   167   am
   151    62    60   ar
   152   133   132    1
   153   139   137   ar
   154    63    61   ar
   155    47    46    1
   156    47    48    1
   157    43    44    1
   158    43    40    1
   159    46    41   am
   160   167   166    1
   161   167   168    2
   162    60    59   ar
   163    39    40    1
   164    41    40    1
   165    41    42    2
   166   166   163    1
   167    61    59   ar
   168    48    49    2
   169    48    54   am
   170    59    58    1
   171    54    55    1
   172   163   162    1
   173   163   164    1
   174    58    55    1
   175    55    56    1
   176   164   165    2
   177    56    57    2
