@<TRIPOS>MOLECULE
tmp/3ilfA00.pdb
 171 165 0 0 0
SMALL
GASTEIGER

@<TRIPOS>ATOM
      1  N         17.1280   17.3850    5.0340 N.3    36  HIS36      -0.1241
      2  CA        16.2130   16.2630    4.8070 C.3    36  HIS36       0.1621
      3  C         14.7920   16.8140    4.7360 C.2    36  HIS36       0.2264
      4  O         14.2100   17.2640    5.7420 O.2    36  HIS36      -0.2867
      5  CB        16.2830   15.2800    5.9730 C.3    36  HIS36       0.0745
      6  CG        15.8250   13.8990    5.6220 C.ar   36  HIS36       0.0817
      7  ND1       14.6630   13.6760    4.8670 N.ar   36  HIS36      -0.2268
      8  CD2       16.3910   12.6810    5.8330 C.ar   36  HIS36       0.1154
      9  CE1       14.5470   12.3760    4.6580 C.ar   36  HIS36       0.1986
     10  NE2       15.5360   11.7460    5.2920 N.ar   36  HIS36      -0.2212
     11  N         12.0500   15.4770    4.2850 N.3    38  PHE38      -0.1227
     12  CA        10.9880   14.5190    4.6400 C.3    38  PHE38       0.1736
     13  C         10.9800   14.0910    6.0780 C.2    38  PHE38       0.2595
     14  O         10.0830   13.3760    6.4800 O.2    38  PHE38      -0.2718
     15  CB        11.0800   13.2780    3.6990 C.3    38  PHE38       0.0547
     16  CG        11.3140   13.6750    2.2530 C.ar   38  PHE38      -0.0202
     17  CD1       10.2210   14.1980    1.4830 C.ar   38  PHE38      -0.0042
     18  CD2       12.5790   13.6240    1.6720 C.ar   38  PHE38      -0.0042
     19  CE1       10.3890   14.6120    0.1780 C.ar   38  PHE38      -0.0003
     20  CE2       12.7690   14.0460    0.3040 C.ar   38  PHE38      -0.0003
     21  CZ        11.6640   14.5490   -0.4420 C.ar   38  PHE38      -0.0000
     22  N         11.9630   14.5600    6.8540 N.am   39  TRP39      -0.1962
     23  CA        12.1530   14.1330    8.2270 C.3    39  TRP39       0.1771
     24  C         13.0000   15.1350    8.9510 C.2    39  TRP39       0.2620
     25  O         14.0090   15.5280    8.4210 O.2    39  TRP39      -0.2715
     26  CB        12.9720   12.7730    8.1900 C.3    39  TRP39       0.0590
     27  CG        13.2100   12.1690    9.5650 C.ar   39  TRP39       0.0006
     28  CD1       12.3570   12.2010   10.6830 C.ar   39  TRP39       0.0946
     29  CD2       14.3400   11.3930    9.9550 C.ar   39  TRP39       0.0152
     30  NE1       12.9310   11.5300   11.7330 N.ar   39  TRP39      -0.2442
     31  CE2       14.1360   11.0000   11.3020 C.ar   39  TRP39       0.0810
     32  CE3       15.4940   10.9470    9.2750 C.ar   39  TRP39       0.0012
     33  CZ2       15.0380   10.2000   11.9810 C.ar   39  TRP39       0.0191
     34  CZ3       16.3630   10.1350    9.9250 C.ar   39  TRP39       0.0001
     35  CH2       16.1490    9.7730   11.2870 C.ar   39  TRP39       0.0015
     36  N         12.6610   15.4710   10.1920 N.am   40  GLU40      -0.1963
     37  CA        13.4210   16.4920   10.9190 C.3    40  GLU40       0.1733
     38  C         14.7000   15.9150   11.4980 C.2    40  GLU40       0.2617
     39  O         15.6000   16.6840   11.8360 O.2    40  GLU40      -0.2715
     40  CB        12.5490   17.0370   12.0640 C.3    40  GLU40       0.0429
     41  CG        11.4100   17.9420   11.4890 C.3    40  GLU40       0.1163
     42  CD        10.5490   18.5810   12.5670 C.2    40  GLU40       0.3649
     43  OE1       10.5950   18.0970   13.7410 O.co2  40  GLU40      -0.2457
     44  OE2        9.8390   19.5680   12.2190 O.co2  40  GLU40      -0.2457
     45  N         14.7740   14.5830   11.6560 N.am   41  GLY41      -0.1940
     46  CA        16.0030   13.9780   12.3120 C.3    41  GLY41       0.2014
     47  C         15.6160   13.2330   13.5800 C.2    41  GLY41       0.2638
     48  O         14.4460   13.2140   14.0250 O.2    41  GLY41      -0.2714
     49  N         16.6120   12.6000   14.1750 N.am   42  ARG42      -0.1977
     50  CA        16.4170   11.7090   15.3070 C.3    42  ARG42       0.1597
     51  C         16.7420   12.4300   16.5950 C.2    42  ARG42       0.2287
     52  O         17.9440   12.5800   16.9750 O.2    42  ARG42      -0.2864
     53  CB        17.3360   10.4660   15.1810 C.3    42  ARG42       0.0334
     54  CG        16.9940    9.3350   16.2350 C.3    42  ARG42       0.0492
     55  CD        17.8080    8.0620   15.9090 C.3    42  ARG42       0.2205
     56  NE        17.2730    7.4420   14.6630 N.pl3  42  ARG42      -0.0865
     57  CZ        16.1540    6.7100   14.5940 C.cat  42  ARG42       0.5346
     58  NH1       15.3210    6.5870   15.6520 N.pl3  42  ARG42       0.1354
     59  NH2       15.7720    6.2230   13.3950 N.pl3  42  ARG42       0.1354
     60  N         26.3030    7.8550    8.0260 N.3   112  SER112     -0.1217
     61  CA        25.4940    6.8060    7.3710 C.3   112  SER112      0.1889
     62  C         25.2320    7.0350    5.8730 C.2   112  SER112      0.2288
     63  O         25.2400    8.1630    5.3590 O.2   112  SER112     -0.2866
     64  CB        24.1180    6.7050    8.0560 C.3   112  SER112      0.2089
     65  OG        24.3210    6.3250    9.3820 O.3   112  SER112     -0.2183
     66  N         22.4200    5.4180    3.1460 N.3   114  TRP114     -0.1241
     67  CA        21.1830    4.5650    3.2120 C.3   114  TRP114      0.1605
     68  C         20.1060    5.1190    2.2170 C.2   114  TRP114      0.2264
     69  O         20.3150    6.1370    1.5230 O.2   114  TRP114     -0.2867
     70  CB        20.6230    4.5920    4.6700 C.3   114  TRP114      0.0550
     71  CG        20.4550    5.9550    5.2730 C.ar  114  TRP114      0.0003
     72  CD1       21.4240    6.8500    5.6590 C.ar  114  TRP114      0.0946
     73  CD2       19.1980    6.5560    5.6370 C.ar  114  TRP114      0.0152
     74  NE1       20.8510    7.9730    6.2260 N.ar  114  TRP114     -0.2442
     75  CE2       19.4810    7.8200    6.2140 C.ar  114  TRP114      0.0810
     76  CE3       17.8370    6.1220    5.5220 C.ar  114  TRP114      0.0012
     77  CZ2       18.4670    8.6810    6.7380 C.ar  114  TRP114      0.0191
     78  CZ3       16.8050    6.9880    6.0740 C.ar  114  TRP114      0.0001
     79  CH2       17.1210    8.2360    6.6380 C.ar  114  TRP114      0.0015
     80  N         15.6770    5.5760    1.7330 N.3   116  ARG116     -0.1231
     81  CA        14.3440    5.4770    2.2970 C.3   116  ARG116      0.1694
     82  C         13.4270    6.4530    1.5820 C.2   116  ARG116      0.2591
     83  O         13.4910    6.5510    0.3230 O.2   116  ARG116     -0.2718
     84  CB        14.3550    5.6800    3.8710 C.3   116  ARG116      0.0321
     85  CG        13.2130    4.9160    4.6110 C.3   116  ARG116      0.0489
     86  CD        13.3820    5.0800    6.0990 C.3   116  ARG116      0.2205
     87  NE        12.4060    4.3480    6.9490 N.pl3 116  ARG116     -0.0865
     88  CZ        11.1920    4.8180    7.2170 C.cat 116  ARG116      0.5346
     89  NH1       10.3810    4.1800    8.0870 N.pl3 116  ARG116      0.1354
     90  NH2       10.7950    5.9470    6.6430 N.pl3 116  ARG116      0.1354
     91  N         12.5280    7.1100    2.3570 N.am  117  VAL117     -0.1980
     92  CA        11.4780    7.9860    1.7720 C.3   117  VAL117      0.1595
     93  C         10.6370    7.1310    0.8200 C.2   117  VAL117      0.2287
     94  O         10.3720    7.5360   -0.3400 O.2   117  VAL117     -0.2864
     95  CB        12.0340    9.2270    1.0070 C.3   117  VAL117      0.0276
     96  CG1       10.9490   10.3550    0.9260 C.3   117  VAL117      0.0022
     97  CG2       13.2970    9.8490    1.7120 C.3   117  VAL117      0.0022
     98  N         13.4270    0.2410    3.7520 N.3   122  SER122     -0.1217
     99  CA        14.6940    0.9950    3.7790 C.3   122  SER122      0.1889
    100  C         15.8520    0.0230    3.6530 C.2   122  SER122      0.2288
    101  O         15.6980   -1.1830    3.9570 O.2   122  SER122     -0.2866
    102  CB        14.7830    1.8190    5.0560 C.3   122  SER122      0.2089
    103  OG        15.0910    1.0350    6.2010 O.3   122  SER122     -0.2183
    104  N         19.9930    0.1510    4.5700 N.3   124  ASP124     -0.1239
    105  CA        21.1120    0.8690    5.1180 C.3   124  ASP124      0.1674
    106  C         22.3790    0.1940    4.6300 C.2   124  ASP124      0.2266
    107  O         22.6160   -0.9830    4.9390 O.2   124  ASP124     -0.2867
    108  CB        21.0920    0.7080    6.6690 C.3   124  ASP124      0.1410
    109  CG        19.9520    1.4440    7.2680 C.2   124  ASP124      0.3668
    110  OD1       20.1070    2.6930    7.4420 O.co2 124  ASP124     -0.2456
    111  OD2       18.9670    0.7960    7.6700 O.co2 124  ASP124     -0.2456
    112  N         25.7870    2.2530    8.8130 N.3   127  GLU127     -0.1245
    113  CA        25.4610    3.3100    9.8100 C.3   127  GLU127      0.1567
    114  C         26.6050    3.2560   10.8210 C.2   127  GLU127      0.2260
    115  O         26.5100    2.5070   11.8020 O.2   127  GLU127     -0.2867
    116  CB        24.1710    2.9490   10.5010 C.3   127  GLU127      0.0388
    117  CG        22.9630    3.1240    9.5190 C.3   127  GLU127      0.1160
    118  CD        21.7460    2.4590   10.1910 C.2   127  GLU127      0.3649
    119  OE1       21.5570    1.1800   10.0180 O.co2 127  GLU127     -0.2457
    120  OE2       21.0490    3.2250   10.9220 O.co2 127  GLU127     -0.2457
    121  N         14.8130   -2.6240    6.5810 N.3   150  HIS150     -0.1241
    122  CA        13.6560   -2.3500    7.4210 C.3   150  HIS150      0.1621
    123  C         12.3990   -2.4290    6.5940 C.2   150  HIS150      0.2264
    124  O         12.4460   -2.2400    5.3820 O.2   150  HIS150     -0.2867
    125  CB        13.7150   -0.9710    8.1020 C.3   150  HIS150      0.0745
    126  CG        14.9290   -0.8140    8.9690 C.ar  150  HIS150      0.0817
    127  ND1       14.8880   -1.0320   10.3170 N.ar  150  HIS150     -0.2268
    128  CD2       16.2010   -0.4400    8.6820 C.ar  150  HIS150      0.1154
    129  CE1       16.0810   -0.8010   10.8460 C.ar  150  HIS150      0.1986
    130  NE2       16.9120   -0.4770    9.8720 N.ar  150  HIS150     -0.2212
    131  N         20.5330    8.6940    0.6030 N.3   213  ILE213     -0.1245
    132  CA        20.7270    9.6210    1.6940 C.3   213  ILE213      0.1561
    133  C         22.0990    9.4420    2.3990 C.2   213  ILE213      0.2260
    134  O         22.5240    8.2900    2.6070 O.2   213  ILE213     -0.2867
    135  CB        19.6200    9.4510    2.7590 C.3   213  ILE213      0.0252
    136  CG1       18.2020    9.6190    2.0980 C.3   213  ILE213      0.0019
    137  CG2       19.8110   10.4450    3.9520 C.3   213  ILE213      0.0019
    138  CD1       17.1220    8.9770    3.0390 C.3   213  ILE213      0.0001
    139  N         23.6320   10.8550    6.1000 N.3   215  ASP215     -0.1239
    140  CA        23.2610   11.6990    7.1950 C.3   215  ASP215      0.1674
    141  C         24.0490   11.3940    8.4460 C.2   215  ASP215      0.2266
    142  O         24.8570   10.4440    8.5000 O.2   215  ASP215     -0.2867
    143  CB        21.7390   11.7200    7.4640 C.3   215  ASP215      0.1410
    144  CG        21.2520   10.5610    8.3840 C.2   215  ASP215      0.3668
    145  OD1       21.9150    9.4660    8.4410 O.co2 215  ASP215     -0.2456
    146  OD2       20.1430   10.6940    8.9990 O.co2 215  ASP215     -0.2456
    147  N         23.2720   11.1290   12.8750 N.3   217  GLU217     -0.1245
    148  CA        22.1620   11.0580   13.8870 C.3   217  GLU217      0.1567
    149  C         22.7040   10.7520   15.2400 C.2   217  GLU217      0.2260
    150  O         23.6610    9.9750   15.3270 O.2   217  GLU217     -0.2867
    151  CB        21.1760    9.9090   13.5090 C.3   217  GLU217      0.0388
    152  CG        20.4610   10.1670   12.1920 C.3   217  GLU217      0.1160
    153  CD        19.5950    8.9970   11.7170 C.2   217  GLU217      0.3649
    154  OE1       19.1960    8.2350   12.5980 O.co2 217  GLU217     -0.2457
    155  OE2       19.3310    8.9260   10.4280 O.co2 217  GLU217     -0.2457
    156  N         21.7400    8.5870   18.5640 N.3   219  PHE219     -0.1241
    157  CA        20.8120    7.4920   19.0120 C.3   219  PHE219      0.1605
    158  C         20.7180    7.5260   20.5250 C.2   219  PHE219      0.2264
    159  O         21.6680    7.1430   21.1920 O.2   219  PHE219     -0.2867
    160  CB        21.3840    6.1700   18.5000 C.3   219  PHE219      0.0534
    161  CG        20.9450    5.9000   17.0870 C.ar  219  PHE219     -0.0203
    162  CD1       21.6210    6.4820   16.0070 C.ar  219  PHE219     -0.0042
    163  CD2       19.7710    5.1280   16.8790 C.ar  219  PHE219     -0.0042
    164  CE1       21.1290    6.2790   14.6920 C.ar  219  PHE219     -0.0003
    165  CE2       19.3290    4.8800   15.5750 C.ar  219  PHE219     -0.0003
    166  CZ        20.0200    5.5140   14.5100 C.ar  219  PHE219     -0.0000
    167  N         15.7970    1.0840   15.9820 N.3   224  ALA224     -0.1245
    168  CA        15.8700    0.8860   14.5160 C.3   224  ALA224      0.1562
    169  C         17.2140    0.4030   13.9530 C.2   224  ALA224      0.2260
    170  O         17.7980    1.0840   13.1040 O.2   224  ALA224     -0.2867
    171  CB        15.3780    2.1390   13.7230 C.3   224  ALA224      0.0290
@<TRIPOS>BOND
     1    21    19   ar
     2    21    20   ar
     3    94    93    2
     4    19    17   ar
     5    20    18   ar
     6    83    82    2
     7   131   132    1
     8    93    92    1
     9    96    95    1
    10    95    97    1
    11    95    92    1
    12    17    16   ar
    13    69    68    2
    14    82    81    1
    15    82    91   am
    16    18    16   ar
    17   132   133    1
    18   132   135    1
    19    80    81    1
    20    92    91    1
    21   136   135    1
    22   136   138    1
    23    68    67    1
    24    16    15    1
    25    81    84    1
    26   133   134    2
    27   135   137    1
    28    66    67    1
    29    67    70    1
    30   100    99    1
    31   100   101    2
    32    15    12    1
    33    98    99    1
    34    99   102    1
    35    84    85    1
    36    11    12    1
    37   104   105    1
    38    85    86    1
    39   106   107    2
    40   106   105    1
    41    12    13    1
    42     9     7   ar
    43     9    10   ar
    44    70    71    1
    45     3     2    1
    46     3     4    2
    47     2     1    1
    48     2     5    1
    49     7     6   ar
    50   102   103    1
    51   105   108    1
    52    71    73   ar
    53    71    72   ar
    54    10     8   ar
    55    63    62    2
    56   124   123    2
    57    76    73   ar
    58    76    78   ar
    59     6     8   ar
    60     6     5    1
    61    73    75   ar
    62    72    74   ar
    63    62    61    1
    64    78    79   ar
    65    13    14    2
    66    13    22   am
    67    86    87    1
    68   139   140    1
    69    75    74   ar
    70    75    77   ar
    71   121   122    1
    72   123   122    1
    73    79    77   ar
    74    90    88    1
    75   108   109    1
    76    22    23    1
    77    87    88    2
    78   140   143    1
    79   140   141    1
    80    88    89    1
    81   109   110   ar
    82   109   111   ar
    83    61    60    1
    84    61    64    1
    85   122   125    1
    86   143   144    1
    87    64    65    1
    88   125   126    1
    89    26    23    1
    90    26    27    1
    91    23    24    1
    92   144   145   ar
    93   144   146   ar
    94    25    24    2
    95   141   142    2
    96   128   126   ar
    97   128   130   ar
    98   112   113    1
    99    24    36   am
   100   126   127   ar
   101    32    34   ar
   102    32    29   ar
   103   117   118    1
   104   117   116    1
   105    27    29   ar
   106    27    28   ar
   107   113   116    1
   108   113   114    1
   109   130   129   ar
   110    34    35   ar
   111    29    31   ar
   112   119   118   ar
   113   118   120   ar
   114    36    37    1
   115   127   129   ar
   116   155   153   ar
   117    28    30   ar
   118   114   115    2
   119    37    38    1
   120    37    40    1
   121    35    33   ar
   122    31    30   ar
   123    31    33   ar
   124    41    40    1
   125    41    42    1
   126    38    45   am
   127    38    39    2
   128    45    46    1
   129   153   152    1
   130   153   154   ar
   131   152   151    1
   132    44    42   ar
   133    46    47    1
   134    42    43   ar
   135   147   148    1
   136   170   169    2
   137    59    57    1
   138   151   148    1
   139    47    48    2
   140    47    49   am
   141   171   168    1
   142   148   149    1
   143   169   168    1
   144    49    50    1
   145   166   164   ar
   146   166   165   ar
   147   168   167    1
   148    57    56    2
   149    57    58    1
   150    56    55    1
   151   164   162   ar
   152    53    50    1
   153    53    54    1
   154   149   150    2
   155    50    51    1
   156   165   163   ar
   157    55    54    1
   158   162   161   ar
   159    51    52    2
   160   163   161   ar
   161   161   160    1
   162   160   157    1
   163   156   157    1
   164   157   158    1
   165   158   159    2
