@<TRIPOS>MOLECULE
tmp/3iljA00.pdb
 144 138 0 0 0
SMALL
GASTEIGER

@<TRIPOS>ATOM
      1  N          9.6970    8.7220   15.6020 N.3    70  LEU70      -0.1245
      2  CA         8.9500    9.9220   15.9470 C.3    70  LEU70       0.1561
      3  C          9.3050   10.4040   17.3500 C.2    70  LEU70       0.2260
      4  O          9.4200   11.6100   17.5940 O.2    70  LEU70      -0.2867
      5  CB         7.4440    9.6630   15.8490 C.3    70  LEU70       0.0270
      6  CG         6.5460   10.8500   16.1870 C.3    70  LEU70       0.0019
      7  CD1        6.8060   12.0140   15.2190 C.3    70  LEU70       0.0001
      8  CD2        5.0770   10.4400   16.1540 C.3    70  LEU70       0.0001
      9  N         10.7980   14.1360   17.9680 N.3    74  GLN74      -0.1245
     10  CA        10.1050   15.0180   18.9040 C.3    74  GLN74       0.1566
     11  C         11.0140   15.4100   20.0600 C.2    74  GLN74       0.2260
     12  O         10.9600   16.5410   20.5210 O.2    74  GLN74      -0.2867
     13  CB         8.8040   14.3860   19.4150 C.3    74  GLN74       0.0367
     14  CG         7.7240   14.3120   18.3290 C.3    74  GLN74       0.0905
     15  CD         6.4180   13.7430   18.8360 C.2    74  GLN74       0.2608
     16  OE1        6.3600   13.1440   19.9100 O.2    74  GLN74      -0.2717
     17  NE2        5.3530   13.9340   18.0640 N.am   74  GLN74      -0.0878
     18  N         13.3680   18.0590   18.6860 N.3    77  GLU77      -0.1245
     19  CA        12.6680   19.3450   18.6320 C.3    77  GLU77       0.1567
     20  C         12.6570   20.0490   19.9870 C.2    77  GLU77       0.2260
     21  O         12.8880   21.2590   20.0710 O.2    77  GLU77      -0.2867
     22  CB        11.2280   19.1790   18.1400 C.3    77  GLU77       0.0388
     23  CG        11.1030   18.9660   16.6480 C.3    77  GLU77       0.1160
     24  CD         9.6720   18.7550   16.2160 C.2    77  GLU77       0.3649
     25  OE1        8.8460   18.3480   17.0600 O.co2  77  GLU77      -0.2457
     26  OE2        9.3730   19.0020   15.0340 O.co2  77  GLU77      -0.2457
     27  N          0.3270   30.3840   15.1050 N.3    88  ARG88      -0.1245
     28  CA         0.4360   29.0380   14.5620 C.3    88  ARG88       0.1563
     29  C          1.2700   29.0930   13.2900 C.2    88  ARG88       0.2260
     30  O          1.7580   28.0700   12.8090 O.2    88  ARG88      -0.2867
     31  CB        -0.9510   28.4760   14.2510 C.3    88  ARG88       0.0307
     32  CG        -0.9850   26.9870   13.9270 C.3    88  ARG88       0.0489
     33  CD        -1.1590   26.1420   15.1820 C.3    88  ARG88       0.2205
     34  NE         0.1120   25.8070   15.8200 N.pl3  88  ARG88      -0.0865
     35  CZ         0.6740   24.6020   15.7760 C.cat  88  ARG88       0.5346
     36  NH1        0.0760   23.6140   15.1250 N.pl3  88  ARG88       0.1354
     37  NH2        1.8310   24.3820   16.3860 N.pl3  88  ARG88       0.1354
     38  N          5.1930   27.6650   14.2740 N.3    91  PRO91      -0.2102
     39  CA         4.9740   26.9560   15.5370 C.3    91  PRO91       0.1504
     40  C          6.2560   26.8210   16.3520 C.2    91  PRO91       0.2575
     41  O          6.3270   27.3290   17.4690 O.2    91  PRO91      -0.2718
     42  CB         4.5040   25.5730   15.0720 C.3    91  PRO91       0.0282
     43  CG         5.0440   25.4530   13.6710 C.3    91  PRO91       0.0208
     44  CD         4.8490   26.8200   13.1200 C.3    91  PRO91       0.0893
     45  N          7.2500   26.1360   15.7950 N.am   92  ARG92      -0.1980
     46  CA         8.5020   25.8790   16.4950 C.3    92  ARG92       0.1597
     47  C          9.6560   26.4500   15.6900 C.2    92  ARG92       0.2287
     48  O          9.5490   26.5980   14.4730 O.2    92  ARG92      -0.2864
     49  CB         8.7090   24.3740   16.6830 C.3    92  ARG92       0.0334
     50  CG         7.5360   23.6620   17.3230 C.3    92  ARG92       0.0492
     51  CD         7.8390   22.1900   17.5560 C.3    92  ARG92       0.2205
     52  NE         6.6930   21.4850   18.1260 N.pl3  92  ARG92      -0.0865
     53  CZ         6.4950   21.3090   19.4300 C.cat  92  ARG92       0.5346
     54  NH1        7.3720   21.7810   20.3080 N.pl3  92  ARG92       0.1354
     55  NH2        5.4200   20.6560   19.8560 N.pl3  92  ARG92       0.1354
     56  N         11.6440   22.3730   13.1820 N.3    95  ALA95      -0.1231
     57  CA        10.6100   21.3900   12.8880 C.3    95  ALA95       0.1694
     58  C         11.2350   20.2070   12.1970 C.2    95  ALA95       0.2592
     59  O         11.9730   20.3790   11.2290 O.2    95  ALA95      -0.2718
     60  CB         9.5290   21.9950   12.0030 C.3    95  ALA95       0.0304
     61  N         10.9400   19.0160   12.7120 N.am   96  LEU96      -0.1966
     62  CA        11.3640   17.7630   12.1060 C.3    96  LEU96       0.1728
     63  C         10.1090   17.0010   11.7230 C.2    96  LEU96       0.2616
     64  O          9.2250   16.7980   12.5580 O.2    96  LEU96      -0.2715
     65  CB        12.1780   16.9490   13.1070 C.3    96  LEU96       0.0311
     66  CG        13.4680   17.6280   13.5590 C.3    96  LEU96       0.0022
     67  CD1       14.1170   16.8430   14.6880 C.3    96  LEU96       0.0001
     68  CD2       14.4220   17.7900   12.3810 C.3    96  LEU96       0.0001
     69  N         10.0140   16.6060   10.4580 N.am   97  ASP97      -0.1971
     70  CA         8.8330   15.9040    9.9760 C.3    97  ASP97       0.1709
     71  C          9.2210   14.6370    9.2730 C.2    97  ASP97       0.2293
     72  O         10.1290   14.6430    8.4470 O.2    97  ASP97      -0.2864
     73  CB         8.0740   16.7920    8.9930 C.3    97  ASP97       0.1436
     74  CG         7.3430   17.8950    9.6860 C.2    97  ASP97       0.3671
     75  OD1        6.4590   17.5640   10.4840 O.co2  97  ASP97      -0.2456
     76  OD2        7.6570   19.0730    9.4460 O.co2  97  ASP97      -0.2456
     77  N         -2.9990    7.9410   15.5840 N.3   109  GLU109     -0.1231
     78  CA        -3.2300    9.1720   16.3190 C.3   109  GLU109      0.1699
     79  C         -1.9740   10.0460   16.3420 C.2   109  GLU109      0.2592
     80  O         -2.0570   11.2680   16.4280 O.2   109  GLU109     -0.2718
     81  CB        -3.6500    8.8560   17.7570 C.3   109  GLU109      0.0402
     82  CG        -4.9610    8.0780   17.8850 C.3   109  GLU109      0.1161
     83  CD        -4.7670    6.5720   18.0420 C.2   109  GLU109      0.3649
     84  OE1       -3.6770    6.0510   17.7040 O.co2 109  GLU109     -0.2457
     85  OE2       -5.7180    5.9060   18.5150 O.co2 109  GLU109     -0.2457
     86  N         -0.8100    9.4140   16.2690 N.am  110  ARG110     -0.1966
     87  CA         0.4510   10.1380   16.3860 C.3   110  ARG110      0.1729
     88  C          1.0870   10.4100   15.0380 C.2   110  ARG110      0.2616
     89  O          1.8330   11.3710   14.8740 O.2   110  ARG110     -0.2715
     90  CB         1.4600    9.3320   17.2000 C.3   110  ARG110      0.0348
     91  CG         1.0680    9.0180   18.6270 C.3   110  ARG110      0.0492
     92  CD         2.2750    8.4840   19.3630 C.3   110  ARG110      0.2205
     93  NE         3.3490    9.4720   19.3500 N.pl3 110  ARG110     -0.0865
     94  CZ         4.6240    9.2060   19.6110 C.cat 110  ARG110      0.5346
     95  NH1        5.0010    7.9720   19.9110 N.pl3 110  ARG110      0.1354
     96  NH2        5.5270   10.1750   19.5650 N.pl3 110  ARG110      0.1354
     97  N          0.8100    9.5460   14.0730 N.am  111  LEU111     -0.1963
     98  CA         1.6370    9.5130   12.8820 C.3   111  LEU111      0.1728
     99  C          0.8250    9.3320   11.6170 C.2   111  LEU111      0.2616
    100  O          0.0770    8.3690   11.4930 O.2   111  LEU111     -0.2715
    101  CB         2.6430    8.3690   13.0280 C.3   111  LEU111      0.0311
    102  CG         4.0160    8.4160   12.3640 C.3   111  LEU111      0.0022
    103  CD1        4.6370    9.8010   12.4430 C.3   111  LEU111      0.0001
    104  CD2        4.9160    7.3700   13.0140 C.3   111  LEU111      0.0001
    105  N          0.9690   10.2750   10.6900 N.am  112  THR112     -0.1951
    106  CA         0.4530   10.1130    9.3390 C.3   112  THR112      0.1897
    107  C          1.6270   10.1290    8.3770 C.2   112  THR112      0.2313
    108  O          2.3370   11.1360    8.2690 O.2   112  THR112     -0.2863
    109  CB        -0.5210   11.2250    8.9440 C.3   112  THR112      0.1794
    110  OG1       -1.7030   11.1220    9.7470 O.3   112  THR112     -0.2208
    111  CG2       -0.8980   11.1020    7.4810 C.3   112  THR112      0.0378
    112  N          3.6560   12.0740    4.9710 N.3   115  HIS115     -0.1226
    113  CA         3.2420   13.2650    5.6990 C.3   115  HIS115      0.1752
    114  C          2.0090   13.8770    5.0510 C.2   115  HIS115      0.2596
    115  O          1.9490   14.0330    3.8330 O.2   115  HIS115     -0.2718
    116  CB         4.3900   14.2760    5.7280 C.3   115  HIS115      0.0759
    117  CG         4.1000   15.5040    6.5350 C.ar  115  HIS115      0.0818
    118  ND1        3.3690   16.5660    6.0430 N.ar  115  HIS115     -0.2268
    119  CD2        4.4620   15.8460    7.7930 C.ar  115  HIS115      0.1154
    120  CE1        3.2860   17.5040    6.9700 C.ar  115  HIS115      0.1986
    121  NE2        3.9400   17.0910    8.0410 N.ar  115  HIS115     -0.2212
    122  N          1.0300   14.2330    5.8800 N.am  116  TYR116     -0.1976
    123  CA        -0.3100   14.5540    5.4040 C.3   116  TYR116      0.1639
    124  C         -0.3870   15.6940    4.3930 C.2   116  TYR116      0.2290
    125  O         -1.2920   15.7230    3.5650 O.2   116  TYR116     -0.2864
    126  CB        -1.2320   14.8620    6.5870 C.3   116  TYR116      0.0560
    127  CG        -1.1400   16.2870    7.0770 C.ar  116  TYR116     -0.0198
    128  CD1       -0.1550   16.6690    7.9720 C.ar  116  TYR116     -0.0009
    129  CD2       -2.0390   17.2510    6.6430 C.ar  116  TYR116     -0.0009
    130  CE1       -0.0650   17.9720    8.4250 C.ar  116  TYR116      0.0417
    131  CE2       -1.9580   18.5590    7.0910 C.ar  116  TYR116      0.0417
    132  CZ        -0.9710   18.9120    7.9820 C.ar  116  TYR116      0.1957
    133  OH        -0.8880   20.2120    8.4300 O.3   116  TYR116     -0.2866
    134  N          3.5420   21.2020   -0.3650 N.3   121  ARG121     -0.1245
    135  CA         4.6610   22.0150    0.1090 C.3   121  ARG121      0.1563
    136  C          5.9050   21.8950   -0.7550 C.2   121  ARG121      0.2260
    137  O          6.6050   20.8940   -0.6890 O.2   121  ARG121     -0.2867
    138  CB         5.0050   21.6150    1.5400 C.3   121  ARG121      0.0307
    139  CG         3.7830   21.5610    2.4170 C.3   121  ARG121      0.0489
    140  CD         4.0780   21.1480    3.8290 C.3   121  ARG121      0.2205
    141  NE         2.8790   21.3210    4.6470 N.pl3 121  ARG121     -0.0865
    142  CZ         2.8710   21.3070    5.9730 C.cat 121  ARG121      0.5346
    143  NH1        4.0050   21.1360    6.6370 N.pl3 121  ARG121      0.1354
    144  NH2        1.7310   21.4750    6.6300 N.pl3 121  ARG121      0.1354
@<TRIPOS>BOND
     1   136   137    2
     2   136   135    1
     3   134   135    1
     4   135   138    1
     5   138   139    1
     6   139   140    1
     7   125   124    2
     8   140   141    1
     9   115   114    2
    10   124   123    1
    11   141   142    2
    12   112   113    1
    13   114   113    1
    14   114   122   am
    15   123   122    1
    16   123   126    1
    17   113   116    1
    18   116   117    1
    19   142   144    1
    20   142   143    1
    21   118   117   ar
    22   118   120   ar
    23   117   119   ar
    24   126   127    1
    25   129   127   ar
    26   129   131   ar
    27   120   121   ar
    28   127   128   ar
    29   131   132   ar
    30   111   109    1
    31   119   121   ar
    32   128   130   ar
    33   132   130   ar
    34   132   133    1
    35   108   107    2
    36   107   106    1
    37    72    71    2
    38   109   106    1
    39   109   110    1
    40    73    74    1
    41    73    70    1
    42    71    70    1
    43   106   105    1
    44    76    74   ar
    45    74    75   ar
    46    70    69    1
    47    69    63   am
    48   105    99   am
    49    59    58    2
    50   100    99    2
    51    99    98    1
    52    63    62    1
    53    63    64    2
    54    60    57    1
    55    62    61    1
    56    62    65    1
    57    58    61   am
    58    58    57    1
    59   102   103    1
    60   102   104    1
    61   102   101    1
    62    68    66    1
    63    30    29    2
    64    98   101    1
    65    98    97    1
    66    57    56    1
    67    65    66    1
    68    44    43    1
    69    44    38    1
    70    29    28    1
    71    66    67    1
    72    43    42    1
    73    32    31    1
    74    32    33    1
    75    97    88   am
    76    31    28    1
    77    38    39    1
    78    48    47    2
    79    28    27    1
    80    89    88    2
    81    26    24   ar
    82    88    87    1
    83    42    39    1
    84    36    35    1
    85    33    34    1
    86     7     6    1
    87    39    40    1
    88    77    78    1
    89     1     2    1
    90    47    46    1
    91    35    34    2
    92    35    37    1
    93    45    40   am
    94    45    46    1
    95     5     2    1
    96     5     6    1
    97     2     3    1
    98     8     6    1
    99    24    23    1
   100    24    25   ar
   101    86    79   am
   102    86    87    1
   103    78    79    1
   104    78    81    1
   105    79    80    2
   106    40    41    2
   107    87    90    1
   108    46    49    1
   109    23    22    1
   110    49    50    1
   111    90    91    1
   112    50    51    1
   113     3     4    2
   114    51    52    1
   115    84    83   ar
   116    81    82    1
   117    82    83    1
   118     9    10    1
   119    83    85   ar
   120    17    15   am
   121    52    53    2
   122    22    19    1
   123    14    15    1
   124    14    13    1
   125    91    92    1
   126    19    18    1
   127    19    20    1
   128    15    16    2
   129    10    13    1
   130    10    11    1
   131    93    92    1
   132    93    94    2
   133    53    55    1
   134    53    54    1
   135    96    94    1
   136    94    95    1
   137    20    21    2
   138    11    12    2
