@<TRIPOS>MOLECULE
tmp/3ilrA00.pdb
 122 117 0 0 0
SMALL
GASTEIGER

@<TRIPOS>ATOM
      1  N         27.8950   17.8450   15.6400 N.3    69  TYR69      -0.1241
      2  CA        28.6610   19.0700   15.7220 C.3    69  TYR69       0.1605
      3  C         29.4270   19.3600   14.4350 C.2    69  TYR69       0.2264
      4  O         29.4620   20.4940   13.9510 O.2    69  TYR69      -0.2867
      5  CB        29.6400   18.9950   16.8940 C.3    69  TYR69       0.0534
      6  CG        30.4780   20.2380   16.9980 C.ar   69  TYR69      -0.0201
      7  CD1       29.9440   21.4110   17.5000 C.ar   69  TYR69      -0.0009
      8  CD2       31.7910   20.2490   16.5620 C.ar   69  TYR69      -0.0009
      9  CE1       30.6990   22.5530   17.5890 C.ar   69  TYR69       0.0417
     10  CE2       32.5560   21.3930   16.6480 C.ar   69  TYR69       0.0417
     11  CZ        32.0070   22.5400   17.1590 C.ar   69  TYR69       0.1957
     12  OH        32.7690   23.6820   17.2480 O.3    69  TYR69      -0.2866
     13  N         23.5230   12.6570   15.0710 N.3    75  LYS75      -0.1245
     14  CA        23.2500   12.0740   16.3690 C.3    75  LYS75       0.1561
     15  C         21.8040   11.6550   16.4810 C.2    75  LYS75       0.2260
     16  O         20.9850   11.9890   15.6370 O.2    75  LYS75      -0.2867
     17  CB        23.6510   13.0170   17.4970 C.3    75  LYS75       0.0271
     18  CG        22.9300   14.3110   17.5260 C.3    75  LYS75       0.0035
     19  CD        23.6200   15.3040   18.4630 C.3    75  LYS75       0.0206
     20  CE        22.9850   16.6650   18.3070 C.3    75  LYS75       0.1093
     21  NZ        23.3230   17.5690   19.4530 N.3    75  LYS75      -0.1314
     22  N         24.2820    8.1470   25.8560 N.3   140  ILE140     -0.1245
     23  CA        23.9960    8.6830   27.1730 C.3   140  ILE140      0.1561
     24  C         22.6070    8.1910   27.5560 C.2   140  ILE140      0.2260
     25  O         21.6580    8.3420   26.7920 O.2   140  ILE140     -0.2867
     26  CB        24.0400   10.2140   27.1070 C.3   140  ILE140      0.0252
     27  CG1       25.4900   10.6690   26.8880 C.3   140  ILE140      0.0019
     28  CG2       23.4880   10.8020   28.3830 C.3   140  ILE140      0.0019
     29  CD1       25.6340   12.1630   26.6100 C.3   140  ILE140      0.0001
     30  N         20.3190   18.3110   32.5980 N.3   145  HIS145     -0.1241
     31  CA        20.4850   19.2580   31.5060 C.3   145  HIS145      0.1621
     32  C         20.2170   20.6940   31.9540 C.2   145  HIS145      0.2264
     33  O         19.3270   20.9240   32.7770 O.2   145  HIS145     -0.2867
     34  CB        19.5250   18.8720   30.3560 C.3   145  HIS145      0.0745
     35  CG        19.9450   19.3990   29.0220 C.ar  145  HIS145      0.0817
     36  ND1       19.7370   20.7070   28.6400 N.ar  145  HIS145     -0.2268
     37  CD2       20.5760   18.7970   27.9880 C.ar  145  HIS145      0.1154
     38  CE1       20.2210   20.8880   27.4250 C.ar  145  HIS145      0.1986
     39  NE2       20.7300   19.7440   27.0060 N.ar  145  HIS145     -0.2212
     40  N         22.2350   29.4410   24.1140 N.3   217  GLN217     -0.1231
     41  CA        21.5240   28.2660   23.6600 C.3   217  GLN217      0.1698
     42  C         22.4460   27.0800   23.7390 C.2   217  GLN217      0.2593
     43  O         23.6470   27.2100   23.5220 O.2   217  GLN217     -0.2718
     44  CB        21.1070   28.4600   22.2080 C.3   217  GLN217      0.0381
     45  CG        20.3510   27.2740   21.6080 C.3   217  GLN217      0.0905
     46  CD        21.2370   26.1600   21.1050 C.2   217  GLN217      0.2608
     47  OE1       20.8230   24.9850   21.1020 O.2   217  GLN217     -0.2717
     48  NE2       22.4520   26.4970   20.6880 N.am  217  GLN217     -0.0878
     49  N         21.8930   25.9260   24.0840 N.am  218  GLY218     -0.1942
     50  CA        22.6610   24.6840   24.0280 C.3   218  GLY218      0.2014
     51  C         23.6480   24.5670   25.1560 C.2   218  GLY218      0.2639
     52  O         23.4690   25.1750   26.2160 O.2   218  GLY218     -0.2714
     53  N         24.6900   23.7720   24.9330 N.am  219  GLY219     -0.1939
     54  CA        25.6800   23.5440   25.9930 C.3   219  GLY219      0.2014
     55  C         25.6850   22.0960   26.4560 C.2   219  GLY219      0.2639
     56  O         24.6790   21.3920   26.3160 O.2   219  GLY219     -0.2714
     57  N         26.8130   21.6530   27.0050 N.am  220  TYR220     -0.1960
     58  CA        26.9280   20.2560   27.4610 C.3   220  TYR220      0.1756
     59  C         26.0090   20.0430   28.6540 C.2   220  TYR220      0.2461
     60  O         25.7100   20.9770   29.3800 O.2   220  TYR220     -0.2730
     61  CB        28.3680   19.9780   27.9250 C.3   220  TYR220      0.0574
     62  CG        29.4300   20.1270   26.8790 C.ar  220  TYR220     -0.0198
     63  CD1       29.3850   19.3780   25.7220 C.ar  220  TYR220     -0.0009
     64  CD2       30.5080   20.9720   27.0830 C.ar  220  TYR220     -0.0009
     65  CE1       30.3780   19.5070   24.7720 C.ar  220  TYR220      0.0417
     66  CE2       31.5080   21.1010   26.1670 C.ar  220  TYR220      0.0417
     67  CZ        31.4320   20.3590   24.9930 C.ar  220  TYR220      0.1957
     68  OH        32.4160   20.4510   24.0010 O.3   220  TYR220     -0.2866
     69  N         25.5630   18.8090   28.8790 N.am  221  PRO221     -0.2727
     70  CA        24.8040   18.5460   30.0980 C.3   221  PRO221      0.1402
     71  C         25.7530   18.5750   31.2850 C.2   221  PRO221      0.2269
     72  O         26.8510   18.0030   31.2330 O.2   221  PRO221     -0.2865
     73  CB        24.2810   17.1070   29.8930 C.3   221  PRO221      0.0296
     74  CG        25.2700   16.5130   28.9130 C.3   221  PRO221      0.0237
     75  CD        25.7120   17.6210   28.0290 C.3   221  PRO221      0.0939
     76  N         30.3740   28.7680   23.0290 N.3   246  LYS246     -0.1245
     77  CA        30.1830   27.4810   22.3710 C.3   246  LYS246      0.1561
     78  C         31.4610   26.9860   21.7140 C.2   246  LYS246      0.2260
     79  O         31.6280   25.7800   21.4990 O.2   246  LYS246     -0.2867
     80  CB        29.1000   27.5960   21.3130 C.3   246  LYS246      0.0271
     81  CG        28.2440   26.3760   21.1980 C.3   246  LYS246      0.0035
     82  CD        26.7860   26.8050   21.1480 C.3   246  LYS246      0.0206
     83  CE        25.9580   25.9640   22.1020 C.3   246  LYS246      0.1093
     84  NZ        26.6000   25.9100   23.4630 N.3   246  LYS246     -0.1314
     85  N         35.1640   24.0750   23.5240 N.3   249  ARG249     -0.1245
     86  CA        34.6110   22.7320   23.6430 C.3   249  ARG249      0.1563
     87  C         35.4510   21.8530   24.5940 C.2   249  ARG249      0.2260
     88  O         36.0130   20.8060   24.2360 O.2   249  ARG249     -0.2867
     89  CB        34.3670   22.1540   22.2640 C.3   249  ARG249      0.0307
     90  CG        33.5080   23.1750   21.4970 C.3   249  ARG249      0.0489
     91  CD        32.9220   22.6040   20.2520 C.3   249  ARG249      0.2205
     92  NE        31.9060   21.6040   20.5350 N.pl3 249  ARG249     -0.0865
     93  CZ        30.6500   21.8860   20.8560 C.cat 249  ARG249      0.5346
     94  NH1       30.2430   23.1500   20.9470 N.pl3 249  ARG249      0.1354
     95  NH2       29.7910   20.9020   21.0670 N.pl3 249  ARG249      0.1354
     96  N         35.7200   19.1950   26.9190 N.3   251  ASN251     -0.1240
     97  CA        34.8840   18.0110   27.0210 C.3   251  ASN251      0.1653
     98  C         35.7820   16.8070   27.2360 C.2   251  ASN251      0.2266
     99  O         36.5940   16.4600   26.3690 O.2   251  ASN251     -0.2867
    100  CB        34.0950   17.8320   25.7290 C.3   251  ASN251      0.1155
    101  CG        33.0150   16.7790   25.8650 C.2   251  ASN251      0.2627
    102  OD1       32.7000   16.3400   26.9760 O.2   251  ASN251     -0.2716
    103  ND2       32.4390   16.3660   24.7410 N.am  251  ASN251     -0.0877
    104  N         20.5600    9.0750   24.0390 N.3   345  TYR345     -0.1241
    105  CA        21.1510   10.1920   23.3100 C.3   345  TYR345      0.1605
    106  C         22.4560    9.6410   22.7480 C.2   345  TYR345      0.2264
    107  O         23.4420    9.4410   23.4620 O.2   345  TYR345     -0.2867
    108  CB        21.3760   11.3870   24.2510 C.3   345  TYR345      0.0534
    109  CG        21.8660   12.6590   23.5690 C.ar  345  TYR345     -0.0201
    110  CD1       21.4790   12.9820   22.2800 C.ar  345  TYR345     -0.0009
    111  CD2       22.7010   13.5330   24.2510 C.ar  345  TYR345     -0.0009
    112  CE1       21.9220   14.1720   21.6710 C.ar  345  TYR345      0.0417
    113  CE2       23.1500   14.6920   23.6670 C.ar  345  TYR345      0.0417
    114  CZ        22.7610   15.0040   22.3620 C.ar  345  TYR345      0.1957
    115  OH        23.2150   16.1990   21.8000 O.3   345  TYR345     -0.2866
    116  N         25.6170    9.7100   20.6670 N.3   347  VAL347     -0.1245
    117  CA        26.5180   10.8160   20.3460 C.3   347  VAL347      0.1561
    118  C         27.8580   10.3140   19.8290 C.2   347  VAL347      0.2260
    119  O         28.0840    9.1180   19.6660 O.2   347  VAL347     -0.2867
    120  CB        26.7300   11.7040   21.5880 C.3   347  VAL347      0.0252
    121  CG1       25.4090   12.3860   21.9770 C.3   347  VAL347      0.0019
    122  CG2       27.2630   10.8680   22.7470 C.3   347  VAL347      0.0019
@<TRIPOS>BOND
     1     4     3    2
     2     3     2    1
     3    13    14    1
     4    16    15    2
     5     1     2    1
     6     2     5    1
     7    14    15    1
     8    14    17    1
     9     8    10   ar
    10     8     6   ar
    11    10    11   ar
    12     5     6    1
    13     6     7   ar
    14    11    12    1
    15    11     9   ar
    16    17    18    1
    17     7     9   ar
    18    18    19    1
    19    20    19    1
    20    20    21    1
    21   119   118    2
    22   118   117    1
    23    91    92    1
    24    91    90    1
    25   117   116    1
    26   117   120    1
    27    92    93    2
    28    48    46   am
    29    93    94    1
    30    93    95    1
    31    47    46    2
    32    46    45    1
    33    82    81    1
    34    82    83    1
    35    81    80    1
    36    80    77    1
    37    90    89    1
    38    79    78    2
    39   120   121    1
    40   120   122    1
    41    45    44    1
    42   112   110   ar
    43   112   114   ar
    44    78    77    1
    45   115   114    1
    46    83    84    1
    47    44    41    1
    48    89    86    1
    49   110   109   ar
    50   114   113   ar
    51    77    76    1
    52   106   105    1
    53   106   107    2
    54   105   104    1
    55   105   108    1
    56    43    42    2
    57    85    86    1
    58   109   108    1
    59   109   111   ar
    60    86    87    1
    61    41    42    1
    62    41    40    1
    63   113   111   ar
    64    42    49   am
    65    68    67    1
    66    50    49    1
    67    50    51    1
    68    88    87    2
    69   103   101   am
    70    65    67   ar
    71    65    63   ar
    72    53    51   am
    73    53    54    1
    74    67    66   ar
    75    51    52    2
    76    63    62   ar
    77   100   101    1
    78   100    97    1
    79    22    23    1
    80   101   102    2
    81    54    55    1
    82    66    64   ar
    83    56    55    2
    84    99    98    2
    85    55    57   am
    86    29    27    1
    87    25    24    2
    88    62    64   ar
    89    62    61    1
    90    27    26    1
    91    96    97    1
    92    57    58    1
    93    39    38   ar
    94    39    37   ar
    95    97    98    1
    96    26    23    1
    97    26    28    1
    98    23    24    1
    99    38    36   ar
   100    58    61    1
   101    58    59    1
   102    37    35   ar
   103    75    69    1
   104    75    74    1
   105    36    35   ar
   106    59    69   am
   107    59    60    2
   108    69    70    1
   109    74    73    1
   110    35    34    1
   111    73    70    1
   112    70    71    1
   113    34    31    1
   114    72    71    2
   115    31    32    1
   116    31    30    1
   117    32    33    2
