@<TRIPOS>MOLECULE
tmp/3ilrA01.pdb
 103 99 0 0 0
SMALL
GASTEIGER

@<TRIPOS>ATOM
      1  N         25.0140   16.4760   13.9120 N.3    68  GLY68      -0.1210
      2  CA        26.0370   16.4960   14.9390 C.3    68  GLY68       0.1956
      3  C         26.8600   17.7510   14.8210 C.2    68  GLY68       0.2611
      4  O         26.5870   18.6220   13.9890 O.2    68  GLY68      -0.2717
      5  N         27.8950   17.8450   15.6400 N.am   69  TYR69      -0.1976
      6  CA        28.6610   19.0700   15.7220 C.3    69  TYR69       0.1639
      7  C         29.4270   19.3600   14.4350 C.2    69  TYR69       0.2290
      8  O         29.4620   20.4940   13.9510 O.2    69  TYR69      -0.2864
      9  CB        29.6400   18.9950   16.8940 C.3    69  TYR69       0.0560
     10  CG        30.4780   20.2380   16.9980 C.ar   69  TYR69      -0.0198
     11  CD1       29.9440   21.4110   17.5000 C.ar   69  TYR69      -0.0009
     12  CD2       31.7910   20.2490   16.5620 C.ar   69  TYR69      -0.0009
     13  CE1       30.6990   22.5530   17.5890 C.ar   69  TYR69       0.0417
     14  CE2       32.5560   21.3930   16.6480 C.ar   69  TYR69       0.0417
     15  CZ        32.0070   22.5400   17.1590 C.ar   69  TYR69       0.1957
     16  OH        32.7690   23.6820   17.2480 O.3    69  TYR69      -0.2866
     17  N         28.4440   14.6150   10.5830 N.3    73  GLU73      -0.1231
     18  CA        28.2330   13.8720   11.8120 C.3    73  GLU73       0.1699
     19  C         26.7580   14.0010   12.1590 C.2    73  GLU73       0.2593
     20  O         26.1340   15.0380   11.9060 O.2    73  GLU73      -0.2718
     21  CB        29.1270   14.4080   12.9400 C.3    73  GLU73       0.0402
     22  CG        30.6270   14.0900   12.7130 C.3    73  GLU73       0.1161
     23  CD        31.5150   14.5820   13.8290 C.2    73  GLU73       0.3649
     24  OE1       31.0310   15.3680   14.6770 O.co2  73  GLU73      -0.2457
     25  OE2       32.7020   14.1880   13.8530 O.co2  73  GLU73      -0.2457
     26  N         26.1930   12.9360   12.7110 N.am   74  THR74      -0.1939
     27  CA        24.7880   12.9540   13.0670 C.3    74  THR74       0.2028
     28  C         24.6710   12.4070   14.4650 C.2    74  THR74       0.2642
     29  O         25.6140   11.8090   15.0050 O.2    74  THR74      -0.2714
     30  CB        23.9430   12.0760   12.1270 C.3    74  THR74       0.1808
     31  OG1       24.4060   10.7200   12.2040 O.3    74  THR74      -0.2208
     32  CG2       24.0440   12.5780   10.6690 C.3    74  THR74       0.0379
     33  N         23.5230   12.6570   15.0710 N.am   75  LYS75      -0.1977
     34  CA        23.2500   12.0740   16.3690 C.3    75  LYS75       0.1596
     35  C         21.8040   11.6550   16.4810 C.2    75  LYS75       0.2287
     36  O         20.9850   11.9890   15.6370 O.2    75  LYS75      -0.2864
     37  CB        23.6510   13.0170   17.4970 C.3    75  LYS75       0.0298
     38  CG        22.9300   14.3110   17.5260 C.3    75  LYS75       0.0038
     39  CD        23.6200   15.3040   18.4630 C.3    75  LYS75       0.0206
     40  CE        22.9850   16.6650   18.3070 C.3    75  LYS75       0.1093
     41  NZ        23.3230   17.5690   19.4530 N.3    75  LYS75      -0.1314
     42  N         26.8130   21.6530   27.0050 N.3   220  TYR220     -0.1241
     43  CA        26.9280   20.2560   27.4610 C.3   220  TYR220      0.1605
     44  C         26.0090   20.0430   28.6540 C.2   220  TYR220      0.2264
     45  O         25.7100   20.9770   29.3800 O.2   220  TYR220     -0.2867
     46  CB        28.3680   19.9780   27.9250 C.3   220  TYR220      0.0534
     47  CG        29.4300   20.1270   26.8790 C.ar  220  TYR220     -0.0201
     48  CD1       29.3850   19.3780   25.7220 C.ar  220  TYR220     -0.0009
     49  CD2       30.5080   20.9720   27.0830 C.ar  220  TYR220     -0.0009
     50  CE1       30.3780   19.5070   24.7720 C.ar  220  TYR220      0.0417
     51  CE2       31.5080   21.1010   26.1670 C.ar  220  TYR220      0.0417
     52  CZ        31.4320   20.3590   24.9930 C.ar  220  TYR220      0.1957
     53  OH        32.4160   20.4510   24.0010 O.3   220  TYR220     -0.2866
     54  N         35.1640   24.0750   23.5240 N.3   249  ARG249     -0.1245
     55  CA        34.6110   22.7320   23.6430 C.3   249  ARG249      0.1563
     56  C         35.4510   21.8530   24.5940 C.2   249  ARG249      0.2260
     57  O         36.0130   20.8060   24.2360 O.2   249  ARG249     -0.2867
     58  CB        34.3670   22.1540   22.2640 C.3   249  ARG249      0.0307
     59  CG        33.5080   23.1750   21.4970 C.3   249  ARG249      0.0489
     60  CD        32.9220   22.6040   20.2520 C.3   249  ARG249      0.2205
     61  NE        31.9060   21.6040   20.5350 N.pl3 249  ARG249     -0.0865
     62  CZ        30.6500   21.8860   20.8560 C.cat 249  ARG249      0.5346
     63  NH1       30.2430   23.1500   20.9470 N.pl3 249  ARG249      0.1354
     64  NH2       29.7910   20.9020   21.0670 N.pl3 249  ARG249      0.1354
     65  N         35.7200   19.1950   26.9190 N.3   251  ASN251     -0.1240
     66  CA        34.8840   18.0110   27.0210 C.3   251  ASN251      0.1653
     67  C         35.7820   16.8070   27.2360 C.2   251  ASN251      0.2266
     68  O         36.5940   16.4600   26.3690 O.2   251  ASN251     -0.2867
     69  CB        34.0950   17.8320   25.7290 C.3   251  ASN251      0.1155
     70  CG        33.0150   16.7790   25.8650 C.2   251  ASN251      0.2627
     71  OD1       32.7000   16.3400   26.9760 O.2   251  ASN251     -0.2716
     72  ND2       32.4390   16.3660   24.7410 N.am  251  ASN251     -0.0877
     73  N         20.5600    9.0750   24.0390 N.3   345  TYR345     -0.1241
     74  CA        21.1510   10.1920   23.3100 C.3   345  TYR345      0.1605
     75  C         22.4560    9.6410   22.7480 C.2   345  TYR345      0.2264
     76  O         23.4420    9.4410   23.4620 O.2   345  TYR345     -0.2867
     77  CB        21.3760   11.3870   24.2510 C.3   345  TYR345      0.0534
     78  CG        21.8660   12.6590   23.5690 C.ar  345  TYR345     -0.0201
     79  CD1       21.4790   12.9820   22.2800 C.ar  345  TYR345     -0.0009
     80  CD2       22.7010   13.5330   24.2510 C.ar  345  TYR345     -0.0009
     81  CE1       21.9220   14.1720   21.6710 C.ar  345  TYR345      0.0417
     82  CE2       23.1500   14.6920   23.6670 C.ar  345  TYR345      0.0417
     83  CZ        22.7610   15.0040   22.3620 C.ar  345  TYR345      0.1957
     84  OH        23.2150   16.1990   21.8000 O.3   345  TYR345     -0.2866
     85  N         25.6170    9.7100   20.6670 N.3   347  VAL347     -0.1231
     86  CA        26.5180   10.8160   20.3460 C.3   347  VAL347      0.1692
     87  C         27.8580   10.3140   19.8290 C.2   347  VAL347      0.2593
     88  O         28.0840    9.1180   19.6660 O.2   347  VAL347     -0.2718
     89  CB        26.7300   11.7040   21.5880 C.3   347  VAL347      0.0266
     90  CG1       25.4090   12.3860   21.9770 C.3   347  VAL347      0.0020
     91  CG2       27.2630   10.8680   22.7470 C.3   347  VAL347      0.0020
     92  N         28.7580   11.2340   19.5220 N.am  348  GLY348     -0.1942
     93  CA        30.0640   10.7780   19.0490 C.3   348  GLY348      0.2014
     94  C         30.0010   10.2680   17.6210 C.2   348  GLY348      0.2638
     95  O         30.8550    9.5060   17.1840 O.2   348  GLY348     -0.2714
     96  N         29.0030   10.7210   16.8930 N.am  349  ASP349     -0.1971
     97  CA        28.7920   10.3050   15.5060 C.3   349  ASP349      0.1709
     98  C         28.7190    8.7790   15.3650 C.2   349  ASP349      0.2293
     99  O         29.3680    8.1660   14.5130 O.2   349  ASP349     -0.2864
    100  CB        29.8790   10.8950   14.6030 C.3   349  ASP349      0.1436
    101  CG        29.5540   10.7300   13.1320 C.2   349  ASP349      0.3671
    102  OD1       28.3580   10.8340   12.7610 O.co2 349  ASP349     -0.2456
    103  OD2       30.4990   10.4930   12.3510 O.co2 349  ASP349     -0.2456
@<TRIPOS>BOND
     1    17    18    1
     2    32    30    1
     3    18    19    1
     4    18    21    1
     5    20    19    2
     6    30    31    1
     7    30    27    1
     8    19    26   am
     9   103   101   ar
    10    26    27    1
    11    22    21    1
    12    22    23    1
    13   102   101   ar
    14    27    28    1
    15   101   100    1
    16    23    25   ar
    17    23    24   ar
    18     1     2    1
    19     8     7    2
    20     4     3    2
    21     7     6    1
    22    28    29    2
    23    28    33   am
    24    99    98    2
    25   100    97    1
    26     3     2    1
    27     3     5   am
    28    33    34    1
    29    98    97    1
    30    97    96    1
    31    36    35    2
    32     5     6    1
    33     6     9    1
    34    34    35    1
    35    34    37    1
    36    12    14   ar
    37    12    10   ar
    38    14    15   ar
    39    96    94   am
    40     9    10    1
    41    10    11   ar
    42    15    16    1
    43    15    13   ar
    44    95    94    2
    45    37    38    1
    46    11    13   ar
    47    38    39    1
    48    94    93    1
    49    40    39    1
    50    40    41    1
    51    93    92    1
    52    92    87   am
    53    88    87    2
    54    87    86    1
    55    60    61    1
    56    60    59    1
    57    86    85    1
    58    86    89    1
    59    61    62    2
    60    62    63    1
    61    62    64    1
    62    59    58    1
    63    89    90    1
    64    89    91    1
    65    81    79   ar
    66    81    83   ar
    67    84    83    1
    68    58    55    1
    69    79    78   ar
    70    83    82   ar
    71    75    74    1
    72    75    76    2
    73    74    73    1
    74    74    77    1
    75    54    55    1
    76    78    80   ar
    77    78    77    1
    78    55    56    1
    79    82    80   ar
    80    53    52    1
    81    57    56    2
    82    72    70   am
    83    50    52   ar
    84    50    48   ar
    85    52    51   ar
    86    48    47   ar
    87    69    70    1
    88    69    66    1
    89    70    71    2
    90    51    49   ar
    91    68    67    2
    92    47    49   ar
    93    47    46    1
    94    65    66    1
    95    42    43    1
    96    66    67    1
    97    43    46    1
    98    43    44    1
    99    44    45    2
