@<TRIPOS>MOLECULE
tmp/3ilrA02.pdb
 135 127 0 0 0
SMALL
GASTEIGER

@<TRIPOS>ATOM
      1  N          8.0410   19.5540   21.9460 N.3    14  ASN14      -0.1225
      2  CA         9.1710   20.4710   21.8850 C.3    14  ASN14       0.1785
      3  C          9.1110   21.2790   23.1770 C.2    14  ASN14       0.2597
      4  O          8.4050   22.2950   23.2670 O.2    14  ASN14      -0.2718
      5  CB         9.0410   21.3660   20.6540 C.3    14  ASN14       0.1169
      6  CG        10.1930   22.3130   20.5120 C.2    14  ASN14       0.2627
      7  OD1       10.8200   22.7070   21.4920 O.2    14  ASN14      -0.2716
      8  ND2       10.4660   22.7110   19.2770 N.am   14  ASN14      -0.0877
      9  N          9.7890   20.8050   24.2180 N.am   15  VAL15      -0.1966
     10  CA         9.5000   21.3600   25.5400 C.3    15  VAL15       0.1727
     11  C          9.8890   22.8180   25.7120 C.2    15  VAL15       0.2616
     12  O          9.3140   23.5330   26.5460 O.2    15  VAL15      -0.2715
     13  CB        10.1500   20.5360   26.6550 C.3    15  VAL15       0.0290
     14  CG1        9.5700   19.1090   26.6990 C.3    15  VAL15       0.0023
     15  CG2       11.6360   20.5060   26.4400 C.3    15  VAL15       0.0023
     16  N         10.8540   23.2720   24.9150 N.am   16  GLN16      -0.1977
     17  CA        11.2660   24.6690   25.0190 C.3    16  GLN16       0.1601
     18  C         10.2670   25.6150   24.3500 C.2    16  GLN16       0.2287
     19  O         10.1260   26.7820   24.7550 O.2    16  GLN16      -0.2864
     20  CB        12.6600   24.8510   24.4270 C.3    16  GLN16       0.0394
     21  CG        13.7700   23.9930   25.0450 C.3    16  GLN16       0.0908
     22  CD        13.8430   22.5740   24.4830 C.2    16  GLN16       0.2608
     23  OE1       13.0850   22.1870   23.5770 O.2    16  GLN16      -0.2717
     24  NE2       14.7990   21.7890   25.0100 N.am   16  GLN16      -0.0878
     25  N         10.8760   13.2380   23.8430 N.3    33  VAL33      -0.1245
     26  CA        11.5460   14.1100   22.8910 C.3    33  VAL33       0.1561
     27  C         12.3840   13.2560   21.9230 C.2    33  VAL33       0.2260
     28  O         12.8230   12.1610   22.2880 O.2    33  VAL33      -0.2867
     29  CB        12.4340   15.1690   23.6040 C.3    33  VAL33       0.0252
     30  CG1       11.5970   15.9870   24.5690 C.3    33  VAL33       0.0019
     31  CG2       13.5860   14.4790   24.3670 C.3    33  VAL33       0.0019
     32  N         18.2400   10.7320   19.1120 N.3    77  ARG77      -0.1245
     33  CA        17.6160   11.0230   20.4160 C.3    77  ARG77       0.1563
     34  C         16.2590   10.3580   20.5110 C.2    77  ARG77       0.2260
     35  O         15.4340   10.4860   19.5810 O.2    77  ARG77      -0.2867
     36  CB        17.4080   12.5270   20.5890 C.3    77  ARG77       0.0307
     37  CG        16.8860   12.8730   21.9990 C.3    77  ARG77       0.0489
     38  CD        16.4190   14.3340   22.1480 C.3    77  ARG77       0.2205
     39  NE        17.3430   15.2970   21.5620 N.pl3  77  ARG77      -0.0865
     40  CZ        18.4860   15.6970   22.1250 C.cat  77  ARG77       0.5346
     41  NH1       19.2350   16.6040   21.5200 N.pl3  77  ARG77       0.1354
     42  NH2       18.8990   15.1640   23.2680 N.pl3  77  ARG77       0.1354
     43  N         11.6990   13.5780   29.1370 N.3    81  SER81      -0.1217
     44  CA        12.0460   14.7340   29.9370 C.3    81  SER81       0.1889
     45  C         11.0940   14.8270   31.1260 C.2    81  SER81       0.2288
     46  O          9.8740   14.7310   30.9640 O.2    81  SER81      -0.2866
     47  CB        11.9330   16.0280   29.1250 C.3    81  SER81       0.2089
     48  OG        12.1460   17.1310   29.9860 O.3    81  SER81      -0.2183
     49  N         11.6140   30.5270   23.4870 N.3   105  LYS105     -0.1245
     50  CA        11.9750   29.1410   23.8270 C.3   105  LYS105      0.1561
     51  C         12.1020   28.9480   25.3350 C.2   105  LYS105      0.2260
     52  O         13.0110   28.2460   25.8060 O.2   105  LYS105     -0.2867
     53  CB        13.2940   28.7190   23.1760 C.3   105  LYS105      0.0271
     54  CG        13.3960   28.9880   21.6910 C.3   105  LYS105      0.0035
     55  CD        12.2270   28.4180   20.9320 C.3   105  LYS105      0.0206
     56  CE        12.4910   28.4890   19.4310 C.3   105  LYS105      0.1093
     57  NZ        12.8110   27.1650   18.8280 N.3   105  LYS105     -0.1314
     58  N         20.3190   18.3110   32.5980 N.3   145  HIS145     -0.1241
     59  CA        20.4850   19.2580   31.5060 C.3   145  HIS145      0.1621
     60  C         20.2170   20.6940   31.9540 C.2   145  HIS145      0.2264
     61  O         19.3270   20.9240   32.7770 O.2   145  HIS145     -0.2867
     62  CB        19.5250   18.8720   30.3560 C.3   145  HIS145      0.0745
     63  CG        19.9450   19.3990   29.0220 C.ar  145  HIS145      0.0817
     64  ND1       19.7370   20.7070   28.6400 N.ar  145  HIS145     -0.2268
     65  CD2       20.5760   18.7970   27.9880 C.ar  145  HIS145      0.1154
     66  CE1       20.2210   20.8880   27.4250 C.ar  145  HIS145      0.1986
     67  NE2       20.7300   19.7440   27.0060 N.ar  145  HIS145     -0.2212
     68  N         19.2900   27.1570   29.7720 N.3   148  PRO148     -0.2116
     69  CA        19.6000   28.5640   29.4870 C.3   148  PRO148      0.1372
     70  C         18.4220   29.2720   28.8240 C.2   148  PRO148      0.2244
     71  O         17.6420   28.6550   28.0870 O.2   148  PRO148     -0.2868
     72  CB        20.8030   28.4740   28.5180 C.3   148  PRO148      0.0268
     73  CG        20.7350   27.0790   27.9360 C.3   148  PRO148      0.0207
     74  CD        20.1600   26.2090   29.0630 C.3   148  PRO148      0.0892
     75  N         17.5590   32.1090   26.2340 N.3   150  ARG150     -0.1245
     76  CA        18.2300   32.7200   25.0930 C.3   150  ARG150      0.1563
     77  C         17.9470   34.2190   24.9490 C.2   150  ARG150      0.2260
     78  O         18.3900   34.8300   23.9550 O.2   150  ARG150     -0.2867
     79  CB        17.9690   31.9500   23.7850 C.3   150  ARG150      0.0307
     80  CG        16.5910   32.1400   23.1750 C.3   150  ARG150      0.0489
     81  CD        16.4970   31.4260   21.8270 C.3   150  ARG150      0.2205
     82  NE        15.2440   31.6720   21.1250 N.pl3 150  ARG150     -0.0865
     83  CZ        15.0680   31.4620   19.8200 C.cat 150  ARG150      0.5346
     84  NH1       16.0630   30.9890   19.0890 N.pl3 150  ARG150      0.1354
     85  NH2       13.9000   31.7110   19.2450 N.pl3 150  ARG150      0.1354
     86  N         22.2350   29.4410   24.1140 N.3   217  GLN217     -0.1231
     87  CA        21.5240   28.2660   23.6600 C.3   217  GLN217      0.1698
     88  C         22.4460   27.0800   23.7390 C.2   217  GLN217      0.2593
     89  O         23.6470   27.2100   23.5220 O.2   217  GLN217     -0.2718
     90  CB        21.1070   28.4600   22.2080 C.3   217  GLN217      0.0381
     91  CG        20.3510   27.2740   21.6080 C.3   217  GLN217      0.0905
     92  CD        21.2370   26.1600   21.1050 C.2   217  GLN217      0.2608
     93  OE1       20.8230   24.9850   21.1020 O.2   217  GLN217     -0.2717
     94  NE2       22.4520   26.4970   20.6880 N.am  217  GLN217     -0.0878
     95  N         21.8930   25.9260   24.0840 N.am  218  GLY218     -0.1942
     96  CA        22.6610   24.6840   24.0280 C.3   218  GLY218      0.2014
     97  C         23.6480   24.5670   25.1560 C.2   218  GLY218      0.2639
     98  O         23.4690   25.1750   26.2160 O.2   218  GLY218     -0.2714
     99  N         24.6900   23.7720   24.9330 N.am  219  GLY219     -0.1954
    100  CA        25.6800   23.5440   25.9930 C.3   219  GLY219      0.1869
    101  C         25.6850   22.0960   26.4560 C.2   219  GLY219      0.2309
    102  O         24.6790   21.3920   26.3160 O.2   219  GLY219     -0.2863
    103  N         17.2650   20.0240   34.6560 N.3   339  TYR339     -0.1241
    104  CA        16.2060   18.9920   34.6130 C.3   339  TYR339      0.1605
    105  C         16.7570   17.6570   34.1730 C.2   339  TYR339      0.2264
    106  O         17.7980   17.5890   33.4840 O.2   339  TYR339     -0.2867
    107  CB        15.0380   19.3760   33.6730 C.3   339  TYR339      0.0534
    108  CG        15.4000   19.4640   32.2090 C.ar  339  TYR339     -0.0201
    109  CD1       14.9620   18.4930   31.2920 C.ar  339  TYR339     -0.0009
    110  CD2       16.1550   20.5370   31.7280 C.ar  339  TYR339     -0.0009
    111  CE1       15.2620   18.5720   29.9710 C.ar  339  TYR339      0.0417
    112  CE2       16.4840   20.6210   30.3840 C.ar  339  TYR339      0.0417
    113  CZ        16.0220   19.6270   29.5210 C.ar  339  TYR339      0.1957
    114  OH        16.2920   19.6620   28.1510 O.3   339  TYR339     -0.2866
    115  N         16.6260   13.9450   32.2640 N.3   341  LYS341     -0.1245
    116  CA        16.1250   13.1140   31.1400 C.3   341  LYS341      0.1561
    117  C         16.7380   11.7290   31.2090 C.2   341  LYS341      0.2260
    118  O         17.8620   11.5690   31.6610 O.2   341  LYS341     -0.2867
    119  CB        16.4810   13.6950   29.7500 C.3   341  LYS341      0.0271
    120  CG        15.9400   15.0340   29.4710 C.3   341  LYS341      0.0035
    121  CD        16.1940   15.3840   27.9600 C.3   341  LYS341      0.0206
    122  CE        17.6250   15.8360   27.7300 C.3   341  LYS341      0.1093
    123  NZ        17.8650   16.0160   26.2410 N.3   341  LYS341     -0.1314
    124  N         20.5600    9.0750   24.0390 N.3   345  TYR345     -0.1241
    125  CA        21.1510   10.1920   23.3100 C.3   345  TYR345      0.1605
    126  C         22.4560    9.6410   22.7480 C.2   345  TYR345      0.2264
    127  O         23.4420    9.4410   23.4620 O.2   345  TYR345     -0.2867
    128  CB        21.3760   11.3870   24.2510 C.3   345  TYR345      0.0534
    129  CG        21.8660   12.6590   23.5690 C.ar  345  TYR345     -0.0201
    130  CD1       21.4790   12.9820   22.2800 C.ar  345  TYR345     -0.0009
    131  CD2       22.7010   13.5330   24.2510 C.ar  345  TYR345     -0.0009
    132  CE1       21.9220   14.1720   21.6710 C.ar  345  TYR345      0.0417
    133  CE2       23.1500   14.6920   23.6670 C.ar  345  TYR345      0.0417
    134  CZ        22.7610   15.0040   22.3620 C.ar  345  TYR345      0.1957
    135  OH        23.2150   16.1990   21.8000 O.3   345  TYR345     -0.2866
@<TRIPOS>BOND
     1    57    56    1
     2    84    83    1
     3    32    33    1
     4    85    83    1
     5     8     6   am
     6    56    55    1
     7    35    34    2
     8    83    82    2
     9    33    34    1
    10    33    36    1
    11     6     5    1
    12     6     7    2
    13    36    37    1
    14     5     2    1
    15    94    92   am
    16    55    54    1
    17    93    92    2
    18    92    91    1
    19    82    81    1
    20    41    40    1
    21    39    40    2
    22    39    38    1
    23    91    90    1
    24   132   130   ar
    25   132   134   ar
    26    54    53    1
    27   135   134    1
    28    81    80    1
    29     2     1    1
    30     2     3    1
    31    27    28    2
    32    27    26    1
    33    37    38    1
    34    40    42    1
    35    90    87    1
    36   130   129   ar
    37   134   133   ar
    38   126   125    1
    39   126   127    2
    40    26    29    1
    41    26    25    1
    42    80    79    1
    43    53    50    1
    44     3     4    2
    45     3     9   am
    46   125   124    1
    47   125   128    1
    48    49    50    1
    49    89    88    2
    50   129   131   ar
    51   129   128    1
    52    23    22    2
    53    29    31    1
    54    29    30    1
    55    87    88    1
    56    87    86    1
    57   133   131   ar
    58    88    95   am
    59    79    76    1
    60    50    51    1
    61    78    77    2
    62    96    95    1
    63    96    97    1
    64     9    10    1
    65    18    19    2
    66    18    17    1
    67    20    17    1
    68    20    21    1
    69    22    24   am
    70    22    21    1
    71    16    17    1
    72    16    11   am
    73    99    97   am
    74    99   100    1
    75    77    76    1
    76    76    75    1
    77    97    98    2
    78    51    52    2
    79    10    11    1
    80    10    13    1
    81    11    12    2
    82   100   101    1
    83   123   122    1
    84   102   101    2
    85    15    13    1
    86    13    14    1
    87    67    66   ar
    88    67    65   ar
    89    66    64   ar
    90   122   121    1
    91    73    72    1
    92    73    74    1
    93   121   120    1
    94    65    63   ar
    95    71    70    2
    96   114   113    1
    97    72    69    1
    98    64    63   ar
    99    70    69    1
   100    63    62    1
   101    74    68    1
   102    47    44    1
   103    47    48    1
   104    43    44    1
   105   120   119    1
   106    69    68    1
   107   113   111   ar
   108   113   112   ar
   109   119   116    1
   110    44    45    1
   111   111   109   ar
   112    62    59    1
   113   112   110   ar
   114    46    45    2
   115   116   117    1
   116   116   115    1
   117   117   118    2
   118   109   108   ar
   119    59    60    1
   120    59    58    1
   121   110   108   ar
   122    60    61    2
   123   108   107    1
   124   106   105    2
   125   107   104    1
   126   105   104    1
   127   104   103    1
