@<TRIPOS>MOLECULE
tmp/3ilrA03.pdb
 102 95 0 0 0
SMALL
GASTEIGER

@<TRIPOS>ATOM
      1  N         23.5230   12.6570   15.0710 N.3    75  LYS75      -0.1245
      2  CA        23.2500   12.0740   16.3690 C.3    75  LYS75       0.1561
      3  C         21.8040   11.6550   16.4810 C.2    75  LYS75       0.2260
      4  O         20.9850   11.9890   15.6370 O.2    75  LYS75      -0.2867
      5  CB        23.6510   13.0170   17.4970 C.3    75  LYS75       0.0271
      6  CG        22.9300   14.3110   17.5260 C.3    75  LYS75       0.0035
      7  CD        23.6200   15.3040   18.4630 C.3    75  LYS75       0.0206
      8  CE        22.9850   16.6650   18.3070 C.3    75  LYS75       0.1093
      9  NZ        23.3230   17.5690   19.4530 N.3    75  LYS75      -0.1314
     10  N         18.2400   10.7320   19.1120 N.3    77  ARG77      -0.1245
     11  CA        17.6160   11.0230   20.4160 C.3    77  ARG77       0.1563
     12  C         16.2590   10.3580   20.5110 C.2    77  ARG77       0.2260
     13  O         15.4340   10.4860   19.5810 O.2    77  ARG77      -0.2867
     14  CB        17.4080   12.5270   20.5890 C.3    77  ARG77       0.0307
     15  CG        16.8860   12.8730   21.9990 C.3    77  ARG77       0.0489
     16  CD        16.4190   14.3340   22.1480 C.3    77  ARG77       0.2205
     17  NE        17.3430   15.2970   21.5620 N.pl3  77  ARG77      -0.0865
     18  CZ        18.4860   15.6970   22.1250 C.cat  77  ARG77       0.5346
     19  NH1       19.2350   16.6040   21.5200 N.pl3  77  ARG77       0.1354
     20  NH2       18.8990   15.1640   23.2680 N.pl3  77  ARG77       0.1354
     21  N         20.7320   11.9780   31.8320 N.3   143  GLN143     -0.1245
     22  CA        21.4360   13.2330   31.9230 C.3   143  GLN143      0.1566
     23  C         20.6430   14.2840   32.6750 C.2   143  GLN143      0.2260
     24  O         19.4190   14.2490   32.7260 O.2   143  GLN143     -0.2867
     25  CB        21.8450   13.7180   30.5270 C.3   143  GLN143      0.0367
     26  CG        20.6910   13.9260   29.5760 C.3   143  GLN143      0.0905
     27  CD        21.1490   14.5180   28.2530 C.2   143  GLN143      0.2608
     28  OE1       20.6900   14.1150   27.1820 O.2   143  GLN143     -0.2717
     29  NE2       22.0510   15.4770   28.3250 N.am  143  GLN143     -0.0878
     30  N         20.3190   18.3110   32.5980 N.3   145  HIS145     -0.1241
     31  CA        20.4850   19.2580   31.5060 C.3   145  HIS145      0.1621
     32  C         20.2170   20.6940   31.9540 C.2   145  HIS145      0.2264
     33  O         19.3270   20.9240   32.7770 O.2   145  HIS145     -0.2867
     34  CB        19.5250   18.8720   30.3560 C.3   145  HIS145      0.0745
     35  CG        19.9450   19.3990   29.0220 C.ar  145  HIS145      0.0817
     36  ND1       19.7370   20.7070   28.6400 N.ar  145  HIS145     -0.2268
     37  CD2       20.5760   18.7970   27.9880 C.ar  145  HIS145      0.1154
     38  CE1       20.2210   20.8880   27.4250 C.ar  145  HIS145      0.1986
     39  NE2       20.7300   19.7440   27.0060 N.ar  145  HIS145     -0.2212
     40  N         21.1270   27.6510   15.8030 N.3   179  LYS179     -0.1245
     41  CA        21.5450   27.3420   17.1610 C.3   179  LYS179      0.1561
     42  C         21.7090   28.6620   17.9120 C.2   179  LYS179      0.2260
     43  O         20.7260   29.3920   18.0560 O.2   179  LYS179     -0.2867
     44  CB        22.7800   26.4380   17.1570 C.3   179  LYS179      0.0271
     45  CG        22.4840   25.0220   16.6650 C.3   179  LYS179      0.0035
     46  CD        23.7490   24.2690   16.3690 C.3   179  LYS179      0.0206
     47  CE        24.4860   24.8810   15.1960 C.3   179  LYS179      0.1093
     48  NZ        23.7070   24.8060   13.9400 N.3   179  LYS179     -0.1314
     49  N         22.2350   29.4410   24.1140 N.3   217  GLN217     -0.1231
     50  CA        21.5240   28.2660   23.6600 C.3   217  GLN217      0.1698
     51  C         22.4460   27.0800   23.7390 C.2   217  GLN217      0.2593
     52  O         23.6470   27.2100   23.5220 O.2   217  GLN217     -0.2718
     53  CB        21.1070   28.4600   22.2080 C.3   217  GLN217      0.0381
     54  CG        20.3510   27.2740   21.6080 C.3   217  GLN217      0.0905
     55  CD        21.2370   26.1600   21.1050 C.2   217  GLN217      0.2608
     56  OE1       20.8230   24.9850   21.1020 O.2   217  GLN217     -0.2717
     57  NE2       22.4520   26.4970   20.6880 N.am  217  GLN217     -0.0878
     58  N         21.8930   25.9260   24.0840 N.am  218  GLY218     -0.1942
     59  CA        22.6610   24.6840   24.0280 C.3   218  GLY218      0.2014
     60  C         23.6480   24.5670   25.1560 C.2   218  GLY218      0.2639
     61  O         23.4690   25.1750   26.2160 O.2   218  GLY218     -0.2714
     62  N         24.6900   23.7720   24.9330 N.am  219  GLY219     -0.1954
     63  CA        25.6800   23.5440   25.9930 C.3   219  GLY219      0.1869
     64  C         25.6850   22.0960   26.4560 C.2   219  GLY219      0.2309
     65  O         24.6790   21.3920   26.3160 O.2   219  GLY219     -0.2863
     66  N         25.5630   18.8090   28.8790 N.3   221  PRO221     -0.2116
     67  CA        24.8040   18.5460   30.0980 C.3   221  PRO221      0.1372
     68  C         25.7530   18.5750   31.2850 C.2   221  PRO221      0.2244
     69  O         26.8510   18.0030   31.2330 O.2   221  PRO221     -0.2868
     70  CB        24.2810   17.1070   29.8930 C.3   221  PRO221      0.0268
     71  CG        25.2700   16.5130   28.9130 C.3   221  PRO221      0.0207
     72  CD        25.7120   17.6210   28.0290 C.3   221  PRO221      0.0892
     73  N         30.3740   28.7680   23.0290 N.3   246  LYS246     -0.1245
     74  CA        30.1830   27.4810   22.3710 C.3   246  LYS246      0.1561
     75  C         31.4610   26.9860   21.7140 C.2   246  LYS246      0.2260
     76  O         31.6280   25.7800   21.4990 O.2   246  LYS246     -0.2867
     77  CB        29.1000   27.5960   21.3130 C.3   246  LYS246      0.0271
     78  CG        28.2440   26.3760   21.1980 C.3   246  LYS246      0.0035
     79  CD        26.7860   26.8050   21.1480 C.3   246  LYS246      0.0206
     80  CE        25.9580   25.9640   22.1020 C.3   246  LYS246      0.1093
     81  NZ        26.6000   25.9100   23.4630 N.3   246  LYS246     -0.1314
     82  N         16.6260   13.9450   32.2640 N.3   341  LYS341     -0.1245
     83  CA        16.1250   13.1140   31.1400 C.3   341  LYS341      0.1561
     84  C         16.7380   11.7290   31.2090 C.2   341  LYS341      0.2260
     85  O         17.8620   11.5690   31.6610 O.2   341  LYS341     -0.2867
     86  CB        16.4810   13.6950   29.7500 C.3   341  LYS341      0.0271
     87  CG        15.9400   15.0340   29.4710 C.3   341  LYS341      0.0035
     88  CD        16.1940   15.3840   27.9600 C.3   341  LYS341      0.0206
     89  CE        17.6250   15.8360   27.7300 C.3   341  LYS341      0.1093
     90  NZ        17.8650   16.0160   26.2410 N.3   341  LYS341     -0.1314
     91  N         20.5600    9.0750   24.0390 N.3   345  TYR345     -0.1241
     92  CA        21.1510   10.1920   23.3100 C.3   345  TYR345      0.1605
     93  C         22.4560    9.6410   22.7480 C.2   345  TYR345      0.2264
     94  O         23.4420    9.4410   23.4620 O.2   345  TYR345     -0.2867
     95  CB        21.3760   11.3870   24.2510 C.3   345  TYR345      0.0534
     96  CG        21.8660   12.6590   23.5690 C.ar  345  TYR345     -0.0201
     97  CD1       21.4790   12.9820   22.2800 C.ar  345  TYR345     -0.0009
     98  CD2       22.7010   13.5330   24.2510 C.ar  345  TYR345     -0.0009
     99  CE1       21.9220   14.1720   21.6710 C.ar  345  TYR345      0.0417
    100  CE2       23.1500   14.6920   23.6670 C.ar  345  TYR345      0.0417
    101  CZ        22.7610   15.0040   22.3620 C.ar  345  TYR345      0.1957
    102  OH        23.2150   16.1990   21.8000 O.3   345  TYR345     -0.2866
@<TRIPOS>BOND
     1    48    47    1
     2     1     2    1
     3    47    46    1
     4     4     3    2
     5    40    41    1
     6     2     3    1
     7     2     5    1
     8    46    45    1
     9    45    44    1
    10    44    41    1
    11    41    42    1
    12     5     6    1
    13     6     7    1
    14    42    43    2
    15     8     7    1
    16     8     9    1
    17    10    11    1
    18    13    12    2
    19    11    12    1
    20    11    14    1
    21    14    15    1
    22    57    55   am
    23    56    55    2
    24    55    54    1
    25    79    78    1
    26    79    80    1
    27    78    77    1
    28    77    74    1
    29    76    75    2
    30    19    18    1
    31    17    18    2
    32    17    16    1
    33    54    53    1
    34    99    97   ar
    35    99   101   ar
    36    75    74    1
    37   102   101    1
    38    15    16    1
    39    80    81    1
    40    18    20    1
    41    53    50    1
    42    97    96   ar
    43   101   100   ar
    44    74    73    1
    45    93    92    1
    46    93    94    2
    47    92    91    1
    48    92    95    1
    49    52    51    2
    50    96    95    1
    51    96    98   ar
    52    50    51    1
    53    50    49    1
    54   100    98   ar
    55    51    58   am
    56    59    58    1
    57    59    60    1
    58    62    60   am
    59    62    63    1
    60    60    61    2
    61    63    64    1
    62    90    89    1
    63    65    64    2
    64    39    38   ar
    65    39    37   ar
    66    28    27    2
    67    38    36   ar
    68    89    88    1
    69    88    87    1
    70    37    35   ar
    71    72    66    1
    72    72    71    1
    73    27    29   am
    74    27    26    1
    75    36    35   ar
    76    66    67    1
    77    71    70    1
    78    35    34    1
    79    87    86    1
    80    26    25    1
    81    86    83    1
    82    70    67    1
    83    67    68    1
    84    34    31    1
    85    25    22    1
    86    83    84    1
    87    83    82    1
    88    84    85    2
    89    69    68    2
    90    31    32    1
    91    31    30    1
    92    21    22    1
    93    22    23    1
    94    32    33    2
    95    23    24    2
