@<TRIPOS>MOLECULE
tmp/3iltB00.pdb
 134 129 0 0 0
SMALL
GASTEIGER

@<TRIPOS>ATOM
      1  N         22.7700  -15.3120   23.1550 N.3    58  TYR58      -0.1241
      2  CA        23.1450  -13.9200   23.2070 C.3    58  TYR58       0.1605
      3  C         24.4090  -13.8040   24.0140 C.2    58  TYR58       0.2264
      4  O         25.3710  -13.1620   23.6040 O.2    58  TYR58      -0.2867
      5  CB        22.0220  -13.1110   23.8190 C.3    58  TYR58       0.0534
      6  CG        20.9020  -12.9480   22.8410 C.ar   58  TYR58      -0.0201
      7  CD1       20.8180  -11.8110   22.0530 C.ar   58  TYR58      -0.0009
      8  CD2       19.9440  -13.9430   22.6720 C.ar   58  TYR58      -0.0009
      9  CE1       19.7980  -11.6460   21.1460 C.ar   58  TYR58       0.0417
     10  CE2       18.9200  -13.7950   21.7510 C.ar   58  TYR58       0.0417
     11  CZ        18.8570  -12.6330   20.9940 C.ar   58  TYR58       0.1957
     12  OH        17.8570  -12.4450   20.0700 O.3    58  TYR58      -0.2866
     13  N         20.1830   -8.0700   18.4400 N.3    86  PRO86      -0.2102
     14  CA        19.4500   -7.5030   19.5670 C.3    86  PRO86       0.1504
     15  C         20.1830   -7.9430   20.8180 C.2    86  PRO86       0.2576
     16  O         19.6720   -8.7430   21.5870 O.2    86  PRO86      -0.2718
     17  CB        18.1010   -8.1990   19.4790 C.3    86  PRO86       0.0282
     18  CG        18.3860   -9.4750   18.7240 C.3    86  PRO86       0.0208
     19  CD        19.3770   -9.0520   17.6980 C.3    86  PRO86       0.0893
     20  N         21.4020   -7.4480   20.9850 N.am   87  LEU87      -0.1966
     21  CA        22.2370   -7.8360   22.1020 C.3    87  LEU87       0.1728
     22  C         22.0850   -6.7360   23.1290 C.2    87  LEU87       0.2616
     23  O         22.4360   -5.5710   22.9020 O.2    87  LEU87      -0.2715
     24  CB        23.6930   -7.9740   21.6730 C.3    87  LEU87       0.0311
     25  CG        24.6070   -8.5560   22.7440 C.3    87  LEU87       0.0022
     26  CD1       24.2900  -10.0110   22.9450 C.3    87  LEU87       0.0001
     27  CD2       26.0370   -8.3940   22.3200 C.3    87  LEU87       0.0001
     28  N         21.5210   -7.1110   24.2530 N.am   88  THR88      -0.1951
     29  CA        21.1870   -6.1490   25.2660 C.3    88  THR88       0.1897
     30  C         22.4290   -5.6160   25.9380 C.2    88  THR88       0.2313
     31  O         23.3380   -6.3500   26.2960 O.2    88  THR88      -0.2863
     32  CB        20.2580   -6.7760   26.2740 C.3    88  THR88       0.1794
     33  OG1       19.0720   -7.1530   25.5810 O.3    88  THR88      -0.2208
     34  CG2       19.9110   -5.7980   27.3630 C.3    88  THR88       0.0378
     35  N         27.9010   -7.6120   30.7450 N.3    93  ARG93      -0.1245
     36  CA        28.4540   -7.6580   29.4090 C.3    93  ARG93       0.1563
     37  C         29.3330   -6.4700   29.1210 C.2    93  ARG93       0.2260
     38  O         30.3580   -6.6190   28.5080 O.2    93  ARG93      -0.2867
     39  CB        27.3470   -7.7040   28.3810 C.3    93  ARG93       0.0307
     40  CG        26.5840   -8.9800   28.4400 C.3    93  ARG93       0.0489
     41  CD        25.4790   -8.8890   27.4480 C.3    93  ARG93       0.2205
     42  NE        24.6900  -10.0940   27.4430 N.pl3  93  ARG93      -0.0865
     43  CZ        23.5600  -10.2010   26.7760 C.cat  93  ARG93       0.5346
     44  NH1       23.1300   -9.1600   26.0810 N.pl3  93  ARG93       0.1354
     45  NH2       22.8820  -11.3370   26.8010 N.pl3  93  ARG93       0.1354
     46  N         14.3980  -16.1750   28.1360 N.3   135  LEU135     -0.1245
     47  CA        15.4050  -16.8460   27.3530 C.3   135  LEU135      0.1561
     48  C         16.5380  -17.1020   28.3230 C.2   135  LEU135      0.2260
     49  O         16.9000  -16.2120   29.0780 O.2   135  LEU135     -0.2867
     50  CB        15.8660  -15.8870   26.2640 C.3   135  LEU135      0.0270
     51  CG        16.7670  -16.4220   25.1750 C.3   135  LEU135      0.0019
     52  CD1       15.9450  -17.2690   24.2630 C.3   135  LEU135      0.0001
     53  CD2       17.3770  -15.2680   24.4250 C.3   135  LEU135      0.0001
     54  N         20.4790  -15.1050   28.4200 N.3   138  GLY138     -0.1210
     55  CA        20.1100  -13.8060   27.9100 C.3   138  GLY138      0.1956
     56  C         20.0260  -12.7960   29.0220 C.2   138  GLY138      0.2613
     57  O         20.0140  -13.1300   30.2030 O.2   138  GLY138     -0.2717
     58  N         19.9580  -11.5360   28.6340 N.am  139  SER139     -0.1938
     59  CA        19.9780  -10.4690   29.6000 C.3   139  SER139      0.2055
     60  C         18.6980  -10.4640   30.4120 C.2   139  SER139      0.2643
     61  O         18.6700   -9.9700   31.5270 O.2   139  SER139     -0.2714
     62  CB        20.1160   -9.1490   28.8730 C.3   139  SER139      0.2130
     63  OG        19.0280   -9.0080   27.9890 O.3   139  SER139     -0.2179
     64  N         17.6180  -10.9850   29.8560 N.am  140  THR140     -0.1950
     65  CA        16.3720  -10.9230   30.5930 C.3   140  THR140      0.1897
     66  C         16.5240  -11.7770   31.8280 C.2   140  THR140      0.2313
     67  O         16.1920  -11.3670   32.9380 O.2   140  THR140     -0.2863
     68  CB        15.2000  -11.4240   29.7680 C.3   140  THR140      0.1794
     69  OG1       15.0540  -10.5890   28.6180 O.3   140  THR140     -0.2208
     70  CG2       13.9260  -11.3620   30.5870 C.3   140  THR140      0.0378
     71  N         14.0100  -17.3540   21.4310 N.3   171  THR171     -0.1218
     72  CA        12.7980  -16.6060   21.5900 C.3   171  THR171      0.1862
     73  C         11.6940  -17.3960   20.9450 C.2   171  THR171      0.2287
     74  O         10.5750  -17.4410   21.4540 O.2   171  THR171     -0.2866
     75  CB        12.9250  -15.2600   20.9280 C.3   171  THR171      0.1770
     76  OG1       14.1200  -14.6290   21.4120 O.3   171  THR171     -0.2211
     77  CG2       11.7190  -14.4080   21.2480 C.3   171  THR171      0.0375
     78  N          5.9060  -15.3830   28.6460 N.3   187  TYR187     -0.1227
     79  CA         7.2870  -15.3320   28.2590 C.3   187  TYR187      0.1736
     80  C          7.8000  -13.9460   28.5660 C.2   187  TYR187      0.2595
     81  O          7.2650  -12.9570   28.0820 O.2   187  TYR187     -0.2718
     82  CB         7.4260  -15.6870   26.7770 C.3   187  TYR187      0.0548
     83  CG         8.8530  -15.7720   26.3170 C.ar  187  TYR187     -0.0200
     84  CD1        9.8020  -16.4340   27.0750 C.ar  187  TYR187     -0.0009
     85  CD2        9.2490  -15.1950   25.1260 C.ar  187  TYR187     -0.0009
     86  CE1       11.1110  -16.5000   26.6660 C.ar  187  TYR187      0.0417
     87  CE2       10.5550  -15.2590   24.7070 C.ar  187  TYR187      0.0417
     88  CZ        11.4790  -15.9120   25.4760 C.ar  187  TYR187      0.1957
     89  OH        12.7820  -15.9740   25.0500 O.3   187  TYR187     -0.2866
     90  N          8.8020  -13.8780   29.4290 N.am  188  LEU188     -0.1966
     91  CA         9.4580  -12.6300   29.7150 C.3   188  LEU188      0.1728
     92  C         10.5280  -12.4670   28.6690 C.2   188  LEU188      0.2616
     93  O         11.5280  -13.1560   28.6830 O.2   188  LEU188     -0.2715
     94  CB        10.0910  -12.6590   31.1020 C.3   188  LEU188      0.0311
     95  CG         9.0490  -12.8630   32.1950 C.3   188  LEU188      0.0022
     96  CD1        9.7310  -13.0270   33.5400 C.3   188  LEU188      0.0001
     97  CD2        8.1110  -11.6900   32.2080 C.3   188  LEU188      0.0001
     98  N         10.3000  -11.5530   27.7440 N.am  189  LEU189     -0.1963
     99  CA        11.2480  -11.3180   26.6870 C.3   189  LEU189      0.1728
    100  C         11.2410   -9.8440   26.4070 C.2   189  LEU189      0.2616
    101  O         10.4730   -9.0810   26.9870 O.2   189  LEU189     -0.2715
    102  CB        10.8780  -12.0920   25.4260 C.3   189  LEU189      0.0311
    103  CG         9.7580  -11.4910   24.5920 C.3   189  LEU189      0.0022
    104  CD1        9.6470  -12.2620   23.2810 C.3   189  LEU189      0.0001
    105  CD2        8.4590  -11.5460   25.3610 C.3   189  LEU189      0.0001
    106  N         12.1080   -9.4300   25.5140 N.am  190  GLU190     -0.1977
    107  CA        12.2610   -8.0220   25.2860 C.3   190  GLU190      0.1602
    108  C         11.1270   -7.5080   24.4360 C.2   190  GLU190      0.2287
    109  O         10.6080   -8.2110   23.5770 O.2   190  GLU190     -0.2864
    110  CB        13.6340   -7.7610   24.6940 C.3   190  GLU190      0.0415
    111  CG        14.6810   -8.1120   25.7240 C.3   190  GLU190      0.1163
    112  CD        16.0310   -8.2000   25.1410 C.2   190  GLU190      0.3649
    113  OE1       16.1140   -8.3670   23.9060 O.co2 190  GLU190     -0.2457
    114  OE2       17.0040   -8.1120   25.9190 O.co2 190  GLU190     -0.2457
    115  N         11.0190   -7.9000   20.5240 N.3   193  MET193     -0.1245
    116  CA        10.6630   -9.1850   19.9810 C.3   193  MET193      0.1570
    117  C          9.1980   -9.3830   20.2410 C.2   193  MET193      0.2261
    118  O          8.4650   -9.7960   19.3560 O.2   193  MET193     -0.2867
    119  CB        11.4920  -10.2710   20.6360 C.3   193  MET193      0.0387
    120  CG        12.8760  -10.2960   20.0420 C.3   193  MET193      0.0595
    121  SD        14.0610  -10.8600   21.2430 S.3   193  MET193     -0.1393
    122  CE        15.5890  -10.1530   20.6220 C.3   193  MET193      0.0692
    123  N         19.6920   -2.3560   22.9060 N.3   217  TYR217     -0.1241
    124  CA        20.5550   -3.2340   22.1650 C.3   217  TYR217      0.1605
    125  C         21.6930   -2.3740   21.7270 C.2   217  TYR217      0.2264
    126  O         21.4920   -1.2380   21.3090 O.2   217  TYR217     -0.2867
    127  CB        19.8650   -3.7340   20.9230 C.3   217  TYR217      0.0534
    128  CG        18.7000   -4.6080   21.2190 C.ar  217  TYR217     -0.0201
    129  CD1       18.7280   -5.4850   22.2890 C.ar  217  TYR217     -0.0009
    130  CD2       17.5840   -4.5860   20.4090 C.ar  217  TYR217     -0.0009
    131  CE1       17.6530   -6.3040   22.5520 C.ar  217  TYR217      0.0417
    132  CE2       16.5100   -5.3980   20.6670 C.ar  217  TYR217      0.0417
    133  CZ        16.5520   -6.2510   21.7350 C.ar  217  TYR217      0.1957
    134  OH        15.4760   -7.0520   21.9700 O.3   217  TYR217     -0.2866
@<TRIPOS>BOND
     1    19    13    1
     2    19    18    1
     3    13    14    1
     4    18    17    1
     5   118   117    2
     6    17    14    1
     7    14    15    1
     8   116   117    1
     9   116   115    1
    10   116   119    1
    11   120   119    1
    12   120   121    1
    13    12    11    1
    14   130   132   ar
    15   130   128   ar
    16   122   121    1
    17   132   133   ar
    18    15    20   am
    19    15    16    2
    20   127   128    1
    21   127   124    1
    22    75    77    1
    23    75    76    1
    24    75    72    1
    25    73    74    2
    26    73    72    1
    27    20    21    1
    28    11     9   ar
    29    11    10   ar
    30     9     7   ar
    31   128   129   ar
    32   126   125    2
    33    71    72    1
    34    24    21    1
    35    24    25    1
    36   125   124    1
    37   133   134    1
    38   133   131   ar
    39    10     8   ar
    40     7     6   ar
    41    21    22    1
    42   124   123    1
    43   129   131   ar
    44    27    25    1
    45     8     6   ar
    46    25    26    1
    47     6     5    1
    48    23    22    2
    49    22    28   am
    50     1     2    1
    51     2     5    1
    52     2     3    1
    53   104   103    1
    54   109   108    2
    55     4     3    2
    56   113   112   ar
    57    28    29    1
    58    52    51    1
    59    53    51    1
    60   108   107    1
    61   103   105    1
    62   103   102    1
    63   110   107    1
    64   110   111    1
    65    87    85   ar
    66    87    88   ar
    67    89    88    1
    68    85    83   ar
    69   112   111    1
    70   112   114   ar
    71    51    50    1
    72    29    30    1
    73    29    32    1
    74   107   106    1
    75   102    99    1
    76    88    86   ar
    77   106   100   am
    78    33    32    1
    79    30    31    2
    80    44    43    1
    81    50    47    1
    82    32    34    1
    83    83    82    1
    84    83    84   ar
    85   100    99    1
    86   100   101    2
    87    86    84   ar
    88    99    98    1
    89    43    45    1
    90    43    42    2
    91    82    79    1
    92    47    46    1
    93    47    48    1
    94    42    41    1
    95    41    40    1
    96    98    92   am
    97    55    54    1
    98    55    56    1
    99    63    62    1
   100    81    80    2
   101    79    80    1
   102    79    78    1
   103    48    49    2
   104    39    40    1
   105    39    36    1
   106    38    37    2
   107    80    90   am
   108    69    68    1
   109    58    56   am
   110    58    59    1
   111    92    93    2
   112    92    91    1
   113    62    59    1
   114    56    57    2
   115    37    36    1
   116    36    35    1
   117    90    91    1
   118    59    60    1
   119    91    94    1
   120    68    70    1
   121    68    65    1
   122    64    60   am
   123    64    65    1
   124    60    61    2
   125    65    66    1
   126    94    95    1
   127    66    67    2
   128    95    97    1
   129    95    96    1
