@<TRIPOS>MOLECULE
tmp/3iltB02.pdb
 108 105 0 0 0
SMALL
GASTEIGER

@<TRIPOS>ATOM
      1  N         16.3300   -6.4420   10.4320 N.3    32  TYR32      -0.1241
      2  CA        16.7640   -5.1780   10.9760 C.3    32  TYR32       0.1605
      3  C         18.2670   -5.1650   11.1420 C.2    32  TYR32       0.2264
      4  O         18.9380   -4.2400   10.6810 O.2    32  TYR32      -0.2867
      5  CB        16.0690   -4.9160   12.3110 C.3    32  TYR32       0.0534
      6  CG        16.5570   -3.6750   12.9870 C.ar   32  TYR32      -0.0201
      7  CD1       15.8320   -2.5030   12.9190 C.ar   32  TYR32      -0.0009
      8  CD2       17.7480   -3.6750   13.6980 C.ar   32  TYR32      -0.0009
      9  CE1       16.2740   -1.3680   13.5390 C.ar   32  TYR32       0.0417
     10  CE2       18.1990   -2.5370   14.3250 C.ar   32  TYR32       0.0417
     11  CZ        17.4610   -1.3880   14.2330 C.ar   32  TYR32       0.1957
     12  OH        17.8920   -0.2430   14.8490 O.3    32  TYR32      -0.2866
     13  N         26.3400    2.8110   21.4960 N.3   101  LYS101     -0.1231
     14  CA        25.1590    3.2870   22.1600 C.3   101  LYS101      0.1678
     15  C         24.0530    2.3940   21.6500 C.2   101  LYS101      0.2434
     16  O         24.1700    1.8150   20.5850 O.2   101  LYS101     -0.2733
     17  CB        24.8950    4.7380   21.7930 C.3   101  LYS101      0.0284
     18  CG        25.8780    5.6780   22.4310 C.3   101  LYS101      0.0035
     19  CD        25.9830    5.4020   23.9180 C.3   101  LYS101      0.0206
     20  CE        26.8920    6.4190   24.5840 C.3   101  LYS101      0.1093
     21  NZ        28.2080    6.5340   23.8900 N.3   101  LYS101     -0.1314
     22  N         22.9790    2.2580   22.4150 N.am  102  PRO102     -0.2718
     23  CA        21.8850    1.4280   21.9130 C.3   102  PRO102      0.1535
     24  C         21.3610    1.9070   20.5570 C.2   102  PRO102      0.2599
     25  O         21.2200    3.1010   20.3170 O.2   102  PRO102     -0.2715
     26  CB        20.8210    1.5720   23.0010 C.3   102  PRO102      0.0310
     27  CG        21.2440    2.8100   23.7790 C.3   102  PRO102      0.0237
     28  CD        22.7180    2.7440   23.7740 C.3   102  PRO102      0.0939
     29  N         21.1070    0.9630   19.6620 N.am  103  PHE103     -0.1960
     30  CA        20.5360    1.2850   18.3660 C.3   103  PHE103      0.1771
     31  C         19.0660    0.9780   18.4600 C.2   103  PHE103      0.2619
     32  O         18.2660    1.3120   17.5850 O.2   103  PHE103     -0.2715
     33  CB        21.1900    0.4490   17.2670 C.3   103  PHE103      0.0574
     34  CG        21.0120   -1.0400   17.4350 C.ar  103  PHE103     -0.0200
     35  CD1       19.8160   -1.6490   17.1020 C.ar  103  PHE103     -0.0042
     36  CD2       22.0390   -1.8260   17.9010 C.ar  103  PHE103     -0.0042
     37  CE1       19.6520   -3.0090   17.2320 C.ar  103  PHE103     -0.0003
     38  CE2       21.8770   -3.1970   18.0260 C.ar  103  PHE103     -0.0003
     39  CZ        20.6750   -3.7820   17.7000 C.ar  103  PHE103     -0.0000
     40  N         18.7070    0.2990   19.5330 N.am  104  MET104     -0.1963
     41  CA        17.3130    0.0160   19.7410 C.3   104  MET104      0.1736
     42  C         17.0280   -0.0300   21.2180 C.2   104  MET104      0.2617
     43  O         17.8430   -0.4930   22.0020 O.2   104  MET104     -0.2715
     44  CB        16.9220   -1.2880   19.0670 C.3   104  MET104      0.0427
     45  CG        15.4540   -1.5760   19.1980 C.3   104  MET104      0.0599
     46  SD        14.8470   -2.7190   17.9750 S.3   104  MET104     -0.1393
     47  CE        15.8590   -2.3390   16.5570 C.3   104  MET104      0.0692
     48  N         15.8740    0.4870   21.5920 N.am  105  SER105     -0.1950
     49  CA        15.4390    0.4670   22.9710 C.3   105  SER105      0.1924
     50  C         14.5210   -0.7140   23.1400 C.2   105  SER105      0.2314
     51  O         13.8080   -1.1040   22.2190 O.2   105  SER105     -0.2863
     52  CB        14.6820    1.7470   23.3120 C.3   105  SER105      0.2116
     53  OG        15.4860    2.8900   23.0690 O.3   105  SER105     -0.2180
     54  N         26.3310    4.0930   14.6180 N.3   235  VAL235     -0.1231
     55  CA        25.0300    3.8590   15.2220 C.3   235  VAL235      0.1692
     56  C         24.3670    5.1850   15.5070 C.2   235  VAL235      0.2591
     57  O         23.1790    5.3670   15.2650 O.2   235  VAL235     -0.2718
     58  CB        25.1410    3.0980   16.5460 C.3   235  VAL235      0.0266
     59  CG1       23.8170    3.1490   17.2880 C.3   235  VAL235      0.0020
     60  CG2       25.5550    1.6710   16.2910 C.3   235  VAL235      0.0020
     61  N         25.1420    6.1210   16.0350 N.am  236  LEU236     -0.1980
     62  CA        24.5950    7.4300   16.3200 C.3   236  LEU236      0.1596
     63  C         24.2020    8.1020   15.0160 C.2   236  LEU236      0.2287
     64  O         23.1150    8.6700   14.8990 O.2   236  LEU236     -0.2864
     65  CB        25.5990    8.2620   17.0980 C.3   236  LEU236      0.0297
     66  CG        25.7930    7.7280   18.5120 C.3   236  LEU236      0.0022
     67  CD1       26.7360    8.6100   19.3020 C.3   236  LEU236      0.0001
     68  CD2       24.4480    7.6000   19.2210 C.3   236  LEU236      0.0001
     69  N         21.2830    6.3450   13.7610 N.3   239  SER239     -0.1202
     70  CA        20.1760    6.6950   14.6330 C.3   239  SER239      0.2020
     71  C         19.6270    8.0450   14.2440 C.2   239  SER239      0.2618
     72  O         18.4290    8.2160   14.0680 O.2   239  SER239     -0.2717
     73  CB        20.6180    6.7440   16.0900 C.3   239  SER239      0.2103
     74  OG        19.5760    7.2860   16.8700 O.3   239  SER239     -0.2182
     75  N         20.5200    9.0090   14.1000 N.am  240  GLU240     -0.1979
     76  CA        20.1050   10.3740   13.8410 C.3   240  GLU240      0.1602
     77  C         19.5740   10.5700   12.4400 C.2   240  GLU240      0.2287
     78  O         18.6410   11.3420   12.2390 O.2   240  GLU240     -0.2864
     79  CB        21.2540   11.3290   14.1060 C.3   240  GLU240      0.0415
     80  CG        21.3570   11.6610   15.5710 C.3   240  GLU240      0.1163
     81  CD        22.7840   11.8460   16.0140 C.2   240  GLU240      0.3649
     82  OE1       23.5570   12.5140   15.2880 O.co2 240  GLU240     -0.2457
     83  OE2       23.1240   11.3230   17.0910 O.co2 240  GLU240     -0.2457
     84  N         17.7390    4.0260   11.7620 N.3   244  LEU244     -0.1231
     85  CA        17.3380    3.0980   12.8030 C.3   244  LEU244      0.1693
     86  C         15.8370    3.0210   12.8780 C.2   244  LEU244      0.2592
     87  O         15.2700    1.9350   12.9930 O.2   244  LEU244     -0.2718
     88  CB        17.8780    3.5460   14.1510 C.3   244  LEU244      0.0284
     89  CG        19.3920    3.3970   14.2520 C.3   244  LEU244      0.0019
     90  CD1       19.8040    3.4230   15.7180 C.3   244  LEU244      0.0001
     91  CD2       19.8050    2.1040   13.5750 C.3   244  LEU244      0.0001
     92  N         15.1960    4.1830   12.8240 N.am  245  ASP245     -0.1974
     93  CA        13.7500    4.2490   12.9280 C.3   245  ASP245      0.1709
     94  C         13.1530    3.6830   11.6580 C.2   245  ASP245      0.2293
     95  O         12.1880    2.9310   11.7060 O.2   245  ASP245     -0.2864
     96  CB        13.2820    5.6890   13.1620 C.3   245  ASP245      0.1436
     97  CG        13.2990    6.1440   14.5790 C.2   245  ASP245      0.3671
     98  OD1       13.5700    5.3750   15.4770 O.co2 245  ASP245     -0.2456
     99  OD2       12.9510    7.3800   14.7630 O.co2 245  ASP245     -0.2456
    100  N         13.5620    0.0590   11.9300 N.3   248  LYS248     -0.1245
    101  CA        12.6560   -0.5130   12.9090 C.3   248  LYS248      0.1561
    102  C         11.2590   -0.5550   12.3160 C.2   248  LYS248      0.2260
    103  O         10.5530   -1.5480   12.4400 O.2   248  LYS248     -0.2867
    104  CB        12.6890    0.2380   14.2430 C.3   248  LYS248      0.0271
    105  CG        11.5350   -0.1410   15.1540 C.3   248  LYS248      0.0035
    106  CD        11.9460   -0.3350   16.6100 C.3   248  LYS248      0.0206
    107  CE        10.8770   -1.1650   17.3400 C.3   248  LYS248      0.1093
    108  NZ        10.9550   -1.1120   18.8300 N.3   248  LYS248     -0.1314
@<TRIPOS>BOND
     1     1     2    1
     2     4     3    2
     3     2     3    1
     4     2     5    1
     5    94    95    2
     6    94    93    1
     7    84    85    1
     8   100   101    1
     9    78    77    2
    10     5     6    1
    11   102   103    2
    12   102   101    1
    13    77    76    1
    14    85    86    1
    15    85    88    1
    16    92    86   am
    17    92    93    1
    18    86    87    2
    19   101   104    1
    20     7     6   ar
    21     7     9   ar
    22    93    96    1
    23     6     8   ar
    24    96    97    1
    25     9    11   ar
    26    91    89    1
    27     8    10   ar
    28    69    70    1
    29    76    75    1
    30    76    79    1
    31    72    71    2
    32    75    71   am
    33    79    80    1
    34    88    89    1
    35    11    10   ar
    36    11    12    1
    37   104   105    1
    38    71    70    1
    39    89    90    1
    40    97    99   ar
    41    97    98   ar
    42    54    55    1
    43    70    73    1
    44    64    63    2
    45    63    62    1
    46   105   106    1
    47    55    56    1
    48    55    58    1
    49    57    56    2
    50    82    81   ar
    51    56    61   am
    52    80    81    1
    53    81    83   ar
    54    61    62    1
    55    73    74    1
    56    60    58    1
    57    62    65    1
    58    58    59    1
    59    47    46    1
    60   106   107    1
    61    65    66    1
    62    35    37   ar
    63    35    34   ar
    64    37    39   ar
    65    33    34    1
    66    33    30    1
    67   107   108    1
    68    34    36   ar
    69    32    31    2
    70    39    38   ar
    71    36    38   ar
    72    46    45    1
    73    30    31    1
    74    30    29    1
    75    31    40   am
    76    66    68    1
    77    66    67    1
    78    44    45    1
    79    44    41    1
    80    40    41    1
    81    29    24   am
    82    41    42    1
    83    25    24    2
    84    24    23    1
    85    16    15    2
    86    42    48   am
    87    42    43    2
    88    13    14    1
    89    48    49    1
    90    15    14    1
    91    15    22   am
    92    17    14    1
    93    17    18    1
    94    23    22    1
    95    23    26    1
    96    51    50    2
    97    22    28    1
    98    18    19    1
    99    49    50    1
   100    49    52    1
   101    26    27    1
   102    53    52    1
   103    28    27    1
   104    21    20    1
   105    19    20    1
