@<TRIPOS>MOLECULE
tmp/3iluB02.pdb
 96 93 0 0 0
SMALL
GASTEIGER

@<TRIPOS>ATOM
      1  N         -4.0170  -53.9430  -22.7800 N.3   101  LYS101     -0.1231
      2  CA        -2.8010  -53.3710  -23.3190 C.3   101  LYS101      0.1678
      3  C         -1.6680  -54.1720  -22.7070 C.2   101  LYS101      0.2434
      4  O         -1.8300  -54.7340  -21.6230 O.2   101  LYS101     -0.2733
      5  CB        -2.6800  -51.8940  -22.9450 C.3   101  LYS101      0.0284
      6  CG        -3.7330  -51.0120  -23.6090 C.3   101  LYS101      0.0035
      7  CD        -3.3900  -50.7300  -25.0480 C.3   101  LYS101      0.0206
      8  CE        -4.3620  -49.6970  -25.6630 C.3   101  LYS101      0.1093
      9  NZ        -5.8250  -49.9890  -25.4460 N.3   101  LYS101     -0.1314
     10  N         -0.5320  -54.2480  -23.4070 N.am  102  PRO102     -0.2718
     11  CA         0.6260  -55.0680  -23.0130 C.3   102  PRO102      0.1535
     12  C          1.1340  -54.7210  -21.6190 C.2   102  PRO102      0.2599
     13  O          1.1810  -53.5520  -21.2530 O.2   102  PRO102     -0.2715
     14  CB         1.6970  -54.6810  -24.0250 C.3   102  PRO102      0.0310
     15  CG         0.9750  -54.0800  -25.1700 C.3   102  PRO102      0.0237
     16  CD        -0.3020  -53.5040  -24.6570 C.3   102  PRO102      0.0939
     17  N          1.5120  -55.7340  -20.8520 N.am  103  PHE103     -0.1960
     18  CA         2.1540  -55.4850  -19.5720 C.3   103  PHE103      0.1771
     19  C          3.6580  -55.7490  -19.6590 C.2   103  PHE103      0.2619
     20  O          4.4110  -55.4540  -18.7320 O.2   103  PHE103     -0.2715
     21  CB         1.4870  -56.2940  -18.4450 C.3   103  PHE103      0.0574
     22  CG         1.5910  -57.7840  -18.6040 C.ar  103  PHE103     -0.0200
     23  CD1        2.7160  -58.4680  -18.1540 C.ar  103  PHE103     -0.0042
     24  CD2        0.5610  -58.5060  -19.1830 C.ar  103  PHE103     -0.0042
     25  CE1        2.8220  -59.8520  -18.2870 C.ar  103  PHE103     -0.0003
     26  CE2        0.6560  -59.8950  -19.3240 C.ar  103  PHE103     -0.0003
     27  CZ         1.7900  -60.5730  -18.8700 C.ar  103  PHE103     -0.0000
     28  N          4.0940  -56.3160  -20.7750 N.am  104  MET104     -0.1963
     29  CA         5.5120  -56.5950  -20.9530 C.3   104  MET104      0.1736
     30  C          5.8510  -56.7250  -22.4130 C.2   104  MET104      0.2617
     31  O          5.0770  -57.2870  -23.1910 O.2   104  MET104     -0.2715
     32  CB         5.9310  -57.8740  -20.2200 C.3   104  MET104      0.0427
     33  CG         7.4530  -58.0550  -20.1410 C.3   104  MET104      0.0599
     34  SD         7.9370  -59.5700  -19.2920 S.3   104  MET104     -0.1393
     35  CE         7.2360  -59.3370  -17.6700 C.3   104  MET104      0.0692
     36  N          7.0180  -56.2120  -22.7750 N.am  105  SER105     -0.1950
     37  CA         7.5070  -56.2830  -24.1500 C.3   105  SER105      0.1924
     38  C          8.4080  -57.5040  -24.3510 C.2   105  SER105      0.2314
     39  O          9.0550  -57.9800  -23.4010 O.2   105  SER105     -0.2863
     40  CB         8.2920  -55.0170  -24.4770 C.3   105  SER105      0.2116
     41  OG         8.6200  -54.9570  -25.8530 O.3   105  SER105     -0.2180
     42  N          6.6810  -57.3320  -29.8560 N.3   215  LYS215     -0.1245
     43  CA         5.3060  -57.5000  -29.4370 C.3   215  LYS215      0.1561
     44  C          5.1900  -57.4930  -27.9230 C.2   215  LYS215      0.2260
     45  O          6.1050  -57.0450  -27.2230 O.2   215  LYS215     -0.2867
     46  CB         4.7260  -58.7700  -30.0370 C.3   215  LYS215      0.0271
     47  CG         5.5550  -60.0010  -29.7780 C.3   215  LYS215      0.0035
     48  CD         5.3590  -61.0390  -30.8640 C.3   215  LYS215      0.0206
     49  CE         6.1580  -62.2870  -30.5370 C.3   215  LYS215      0.1093
     50  NZ         6.0930  -63.2720  -31.6280 N.3   215  LYS215     -0.1314
     51  N         -3.9680  -52.4690  -15.5280 N.3   235  VAL235     -0.1231
     52  CA        -2.6490  -52.6600  -16.1120 C.3   235  VAL235      0.1692
     53  C         -2.0190  -51.3010  -16.4250 C.2   235  VAL235      0.2591
     54  O         -0.8560  -51.0890  -16.1480 O.2   235  VAL235     -0.2718
     55  CB        -2.6920  -53.5430  -17.3740 C.3   235  VAL235      0.0266
     56  CG1       -1.3250  -53.5470  -18.0790 C.3   235  VAL235      0.0020
     57  CG2       -3.1180  -54.9570  -17.0050 C.3   235  VAL235      0.0020
     58  N         -2.7920  -50.3690  -16.9720 N.am  236  LEU236     -0.1980
     59  CA        -2.2120  -49.0650  -17.2710 C.3   236  LEU236      0.1596
     60  C         -1.7460  -48.3780  -15.9850 C.2   236  LEU236      0.2287
     61  O         -0.6750  -47.7800  -15.9430 O.2   236  LEU236     -0.2864
     62  CB        -3.2050  -48.1880  -18.0160 C.3   236  LEU236      0.0297
     63  CG        -3.6500  -48.7690  -19.3550 C.3   236  LEU236      0.0022
     64  CD1       -4.8010  -47.9860  -19.9090 C.3   236  LEU236      0.0001
     65  CD2       -2.4860  -48.7730  -20.3280 C.3   236  LEU236      0.0001
     66  N          1.4520  -49.9950  -14.7940 N.3   239  SER239     -0.1202
     67  CA         2.5120  -49.5540  -15.6780 C.3   239  SER239      0.2020
     68  C          3.0210  -48.1860  -15.2400 C.2   239  SER239      0.2618
     69  O          4.2130  -47.9950  -14.9890 O.2   239  SER239     -0.2717
     70  CB         1.9780  -49.4540  -17.1090 C.3   239  SER239      0.2103
     71  OG         3.0070  -49.0040  -17.9600 O.3   239  SER239     -0.2182
     72  N          2.1100  -47.2320  -15.1480 N.am  240  GLU240     -0.1979
     73  CA         2.4960  -45.8580  -14.8410 C.3   240  GLU240      0.1602
     74  C          3.0940  -45.6940  -13.4470 C.2   240  GLU240      0.2287
     75  O          4.0280  -44.9150  -13.2590 O.2   240  GLU240     -0.2864
     76  CB         1.3120  -44.9140  -15.0560 C.3   240  GLU240      0.0415
     77  CG         1.0690  -44.6510  -16.5330 C.3   240  GLU240      0.1163
     78  CD        -0.2680  -43.9920  -16.7990 C.2   240  GLU240      0.3649
     79  OE1       -0.8370  -43.4000  -15.8500 O.co2 240  GLU240     -0.2457
     80  OE2       -0.7430  -44.0630  -17.9580 O.co2 240  GLU240     -0.2457
     81  N          5.2440  -52.5130  -12.7150 N.3   244  LEU244     -0.1231
     82  CA         5.7020  -53.4860  -13.7020 C.3   244  LEU244      0.1693
     83  C          7.2270  -53.5500  -13.8020 C.2   244  LEU244      0.2592
     84  O          7.7920  -54.6340  -13.9180 O.2   244  LEU244     -0.2718
     85  CB         5.0770  -53.2190  -15.0720 C.3   244  LEU244      0.0284
     86  CG         3.5520  -53.2790  -15.0710 C.3   244  LEU244      0.0019
     87  CD1        3.0070  -53.0620  -16.4850 C.3   244  LEU244      0.0001
     88  CD2        3.0720  -54.6020  -14.4760 C.3   244  LEU244      0.0001
     89  N          7.8980  -52.3990  -13.7640 N.am  245  ASP245     -0.1974
     90  CA         9.3640  -52.3900  -13.8430 C.3   245  ASP245      0.1709
     91  C          9.9750  -52.9980  -12.5800 C.2   245  ASP245      0.2293
     92  O         10.9570  -53.7360  -12.6380 O.2   245  ASP245     -0.2864
     93  CB         9.8950  -50.9730  -14.0660 C.3   245  ASP245      0.1436
     94  CG         9.5160  -50.4140  -15.4280 C.2   245  ASP245      0.3671
     95  OD1        9.6490  -51.1390  -16.4430 O.co2 245  ASP245     -0.2456
     96  OD2        9.0730  -49.2470  -15.4810 O.co2 245  ASP245     -0.2456
@<TRIPOS>BOND
     1    50    49    1
     2    48    49    1
     3    48    47    1
     4    46    47    1
     5    46    43    1
     6    42    43    1
     7    43    44    1
     8    44    45    2
     9    41    40    1
    10     8     9    1
    11     8     7    1
    12    15    16    1
    13    15    14    1
    14     7     6    1
    15    16    10    1
    16    40    37    1
    17    38    37    1
    18    38    39    2
    19    37    36    1
    20    14    11    1
    21     6     5    1
    22    10    11    1
    23    10     3   am
    24     2     5    1
    25     2     1    1
    26     2     3    1
    27    31    30    2
    28    11    12    1
    29    36    30   am
    30     3     4    2
    31    30    29    1
    32    12    13    2
    33    12    17   am
    34    29    28    1
    35    29    32    1
    36    17    18    1
    37    28    19   am
    38    65    63    1
    39    32    33    1
    40    33    34    1
    41    64    63    1
    42    19    18    1
    43    19    20    2
    44    18    21    1
    45    63    62    1
    46    26    24   ar
    47    26    27   ar
    48    34    35    1
    49    24    22   ar
    50    27    25   ar
    51    22    21    1
    52    22    23   ar
    53    25    23   ar
    54    56    55    1
    55    62    59    1
    56    71    70    1
    57    80    78   ar
    58    55    57    1
    59    55    52    1
    60    59    58    1
    61    59    60    1
    62    70    67    1
    63    58    53   am
    64    78    77    1
    65    78    79   ar
    66    77    76    1
    67    87    86    1
    68    95    94   ar
    69    53    54    2
    70    53    52    1
    71    52    51    1
    72    60    61    2
    73    67    68    1
    74    67    66    1
    75    96    94   ar
    76    94    93    1
    77    68    72   am
    78    68    69    2
    79    72    73    1
    80    85    86    1
    81    85    82    1
    82    86    88    1
    83    76    73    1
    84    73    74    1
    85    93    90    1
    86    84    83    2
    87    90    89    1
    88    90    91    1
    89    83    89   am
    90    83    82    1
    91    82    81    1
    92    74    75    2
    93    92    91    2
