@<TRIPOS>MOLECULE
tmp/3ilzA00.pdb
 225 213 0 0 0
SMALL
GASTEIGER

@<TRIPOS>ATOM
      1  N         27.9140   46.8300   25.1840 N.3    72  PHE72      -0.1241
      2  CA        29.0890   46.3430   25.9190 C.3    72  PHE72       0.1605
      3  C         29.2620   47.0600   27.2530 C.2    72  PHE72       0.2264
      4  O         29.4310   46.4200   28.2890 O.2    72  PHE72      -0.2867
      5  CB        30.3560   46.4810   25.0710 C.3    72  PHE72       0.0534
      6  CG        31.5880   45.8360   25.6830 C.ar   72  PHE72      -0.0203
      7  CD1       31.8960   44.5110   25.4130 C.ar   72  PHE72      -0.0042
      8  CD2       32.4410   46.5630   26.5060 C.ar   72  PHE72      -0.0042
      9  CE1       33.0460   43.9200   25.9700 C.ar   72  PHE72      -0.0003
     10  CE2       33.5740   45.9810   27.0620 C.ar   72  PHE72      -0.0003
     11  CZ        33.8720   44.6580   26.7880 C.ar   72  PHE72      -0.0000
     12  N         26.7780   46.1540   29.8580 N.3    75  PHE75      -0.1227
     13  CA        27.1010   44.8390   30.4290 C.3    75  PHE75       0.1736
     14  C         28.2670   44.9060   31.4110 C.2    75  PHE75       0.2596
     15  O         28.2010   44.3200   32.4960 O.2    75  PHE75      -0.2718
     16  CB        27.3660   43.8000   29.3260 C.3    75  PHE75       0.0547
     17  CG        26.1770   43.5320   28.4430 C.ar   75  PHE75      -0.0202
     18  CD1       26.3500   43.1630   27.1200 C.ar   75  PHE75      -0.0042
     19  CD2       24.8840   43.6360   28.9380 C.ar   75  PHE75      -0.0042
     20  CE1       25.2630   42.9120   26.3000 C.ar   75  PHE75      -0.0003
     21  CE2       23.7910   43.3920   28.1220 C.ar   75  PHE75      -0.0003
     22  CZ        23.9740   43.0430   26.8010 C.ar   75  PHE75      -0.0000
     23  N         29.3370   45.6160   31.0630 N.am   76  THR76      -0.1953
     24  CA        30.4750   45.6610   31.9710 C.3    76  THR76       0.1897
     25  C         30.1010   46.3600   33.2610 C.2    76  THR76       0.2313
     26  O         30.6800   46.0800   34.3070 O.2    76  THR76      -0.2863
     27  CB        31.7100   46.3560   31.3690 C.3    76  THR76       0.1794
     28  OG1       31.3540   47.6740   30.9250 O.3    76  THR76      -0.2208
     29  CG2       32.2650   45.5530   30.2040 C.3    76  THR76       0.0378
     30  N         27.5120   46.0040   35.0270 N.3    78  ILE78      -0.1231
     31  CA        26.8680   45.1100   35.9860 C.3    78  ILE78       0.1692
     32  C         27.6620   43.8260   36.2180 C.2    78  ILE78       0.2591
     33  O         27.2800   43.0040   37.0460 O.2    78  ILE78      -0.2718
     34  CB        25.4290   44.7310   35.5680 C.3    78  ILE78       0.0266
     35  CG1       25.4280   44.0490   34.1950 C.3    78  ILE78       0.0019
     36  CG2       24.5160   45.9720   35.5970 C.3    78  ILE78       0.0020
     37  CD1       24.1470   43.2690   33.8880 C.3    78  ILE78       0.0001
     38  N         28.7650   43.6510   35.4990 N.am   79  ILE79      -0.1980
     39  CA        29.4870   42.3770   35.5590 C.3    79  ILE79       0.1595
     40  C         30.3210   42.1770   36.8390 C.2    79  ILE79       0.2287
     41  O         30.5190   41.0470   37.2920 O.2    79  ILE79      -0.2864
     42  CB        30.3340   42.1180   34.2860 C.3    79  ILE79       0.0276
     43  CG1       30.4820   40.6030   34.0730 C.3    79  ILE79       0.0022
     44  CG2       31.6870   42.8340   34.3570 C.3    79  ILE79       0.0022
     45  CD1       31.1120   40.2090   32.7330 C.3    79  ILE79       0.0001
     46  N         28.3760   40.4620   39.5650 N.3    82  ALA82      -0.1245
     47  CA        28.1320   39.0660   39.1870 C.3    82  ALA82       0.1562
     48  C         29.3600   38.1990   39.4860 C.2    82  ALA82       0.2260
     49  O         29.2430   37.1310   40.0780 O.2    82  ALA82      -0.2867
     50  CB        27.7460   38.9460   37.6970 C.3    82  ALA82       0.0290
     51  N         29.9200   37.7040   43.2770 N.3    85  ARG85      -0.1231
     52  CA        29.0440   36.7170   43.8830 C.3    85  ARG85       0.1694
     53  C         29.4810   35.2670   43.6130 C.2    85  ARG85       0.2591
     54  O         29.2470   34.3870   44.4360 O.2    85  ARG85      -0.2718
     55  CB        27.6020   36.9680   43.4560 C.3    85  ARG85       0.0321
     56  CG        27.0400   38.2130   44.1450 C.3    85  ARG85       0.0489
     57  CD        25.5550   38.3330   43.9660 C.3    85  ARG85       0.2205
     58  NE        25.2300   38.8600   42.6540 N.pl3  85  ARG85      -0.0865
     59  CZ        24.9740   40.1470   42.4280 C.cat  85  ARG85       0.5346
     60  NH1       25.0360   41.0180   43.4240 N.pl3  85  ARG85       0.1354
     61  NH2       24.6690   40.5670   41.2130 N.pl3  85  ARG85       0.1354
     62  N         30.1020   35.0200   42.4650 N.am   86  VAL86      -0.1980
     63  CA        30.6810   33.7000   42.2100 C.3    86  VAL86       0.1595
     64  C         31.7900   33.4220   43.2220 C.2    86  VAL86       0.2287
     65  O         31.8620   32.3470   43.8130 O.2    86  VAL86      -0.2864
     66  CB        31.2100   33.5460   40.7700 C.3    86  VAL86       0.0276
     67  CG1       31.8700   32.1510   40.5830 C.3    86  VAL86       0.0022
     68  CG2       30.0720   33.7450   39.7630 C.3    86  VAL86       0.0022
     69  N         32.9870   32.0780   34.1440 N.3   112  MET112     -0.1245
     70  CA        32.0160   32.2350   33.0520 C.3   112  MET112      0.1570
     71  C         30.9840   31.1040   33.0360 C.2   112  MET112      0.2261
     72  O         29.8070   31.3420   32.7620 O.2   112  MET112     -0.2867
     73  CB        32.7220   32.3340   31.6940 C.3   112  MET112      0.0387
     74  CG        31.7410   32.5570   30.5200 C.3   112  MET112      0.0595
     75  SD        30.7460   34.0310   30.7220 S.3   112  MET112     -0.1393
     76  CE        29.8000   33.9940   29.1810 C.3   112  MET112      0.0692
     77  N         28.4890   31.9290   35.8360 N.3   115  MET115     -0.1230
     78  CA        27.6730   33.0800   35.4530 C.3   115  MET115      0.1702
     79  C         26.6830   32.7040   34.3590 C.2   115  MET115      0.2593
     80  O         25.5490   33.1710   34.3570 O.2   115  MET115     -0.2718
     81  CB        28.5510   34.2400   34.9830 C.3   115  MET115      0.0401
     82  CG        29.2850   34.9380   36.1180 C.3   115  MET115      0.0596
     83  SD        30.4870   36.1140   35.4830 S.3   115  MET115     -0.1393
     84  CE        29.4010   37.1780   34.5320 C.3   115  MET115      0.0692
     85  N         27.1230   31.8710   33.4250 N.am  116  SER116     -0.1952
     86  CA        26.2640   31.4790   32.3170 C.3   116  SER116      0.1924
     87  C         25.1290   30.6000   32.7950 C.2   116  SER116      0.2314
     88  O         23.9860   30.7310   32.3350 O.2   116  SER116     -0.2863
     89  CB        27.0590   30.7870   31.2110 C.3   116  SER116      0.2116
     90  OG        28.0020   31.6990   30.6390 O.3   116  SER116     -0.2180
     91  N         23.8830   30.6890   35.8350 N.3   118  ARG118     -0.1231
     92  CA        23.0020   31.5450   36.6370 C.3   118  ARG118      0.1694
     93  C         22.0640   32.3760   35.7430 C.2   118  ARG118      0.2591
     94  O         20.8950   32.5740   36.0730 O.2   118  ARG118     -0.2718
     95  CB        23.8120   32.4310   37.5980 C.3   118  ARG118      0.0321
     96  CG        24.3580   31.6370   38.8070 C.3   118  ARG118      0.0489
     97  CD        25.2220   32.4690   39.7680 C.3   118  ARG118      0.2205
     98  NE        25.2630   31.8240   41.0810 N.pl3 118  ARG118     -0.0865
     99  CZ        25.5780   32.4370   42.2160 C.cat 118  ARG118      0.5346
    100  NH1       25.9280   33.7250   42.2260 N.pl3 118  ARG118      0.1354
    101  NH2       25.5490   31.7520   43.3460 N.pl3 118  ARG118      0.1354
    102  N         22.5770   32.8380   34.6050 N.am  119  ALA119     -0.1980
    103  CA        21.7380   33.5340   33.6230 C.3   119  ALA119      0.1597
    104  C         20.7400   32.5900   32.9620 C.2   119  ALA119      0.2287
    105  O         19.5560   32.9230   32.8210 O.2   119  ALA119     -0.2864
    106  CB        22.6070   34.2100   32.5690 C.3   119  ALA119      0.0319
    107  N         17.6060   31.5940   34.6110 N.3   122  ARG122     -0.1245
    108  CA        16.6610   32.7070   34.6390 C.3   122  ARG122      0.1563
    109  C         16.0910   33.0150   33.2620 C.2   122  ARG122      0.2260
    110  O         15.5420   34.1050   33.0370 O.2   122  ARG122     -0.2867
    111  CB        17.3220   33.9660   35.2010 C.3   122  ARG122      0.0307
    112  CG        17.5550   33.9320   36.7030 C.3   122  ARG122      0.0489
    113  CD        18.0760   35.2640   37.1800 C.3   122  ARG122      0.2205
    114  NE        18.1090   35.3570   38.6320 N.pl3 122  ARG122     -0.0865
    115  CZ        19.2250   35.3500   39.3550 C.cat 122  ARG122      0.5346
    116  NH1       20.4010   35.2490   38.7580 N.pl3 122  ARG122      0.1354
    117  NH2       19.1650   35.4410   40.6770 N.pl3 122  ARG122      0.1354
    118  N         18.2700   36.7860   32.2410 N.3   131  THR131     -0.1203
    119  CA        18.5120   37.8430   33.2120 C.3   131  THR131      0.1994
    120  C         19.9590   37.8180   33.6900 C.2   131  THR131      0.2618
    121  O         20.4700   36.7650   34.0840 O.2   131  THR131     -0.2717
    122  CB        17.5420   37.7560   34.4030 C.3   131  THR131      0.1784
    123  OG1       16.2050   37.9710   33.9340 O.3   131  THR131     -0.2211
    124  CG2       17.8810   38.8060   35.4490 C.3   131  THR131      0.0376
    125  N         20.6120   38.9760   33.6360 N.am  132  LEU132     -0.1965
    126  CA        22.0220   39.1310   34.0070 C.3   132  LEU132      0.1728
    127  C         22.2180   39.8450   35.3430 C.2   132  LEU132      0.2617
    128  O         21.5090   40.8140   35.6590 O.2   132  LEU132     -0.2715
    129  CB        22.7710   39.9170   32.9240 C.3   132  LEU132      0.0311
    130  CG        22.5040   39.5460   31.4620 C.3   132  LEU132      0.0022
    131  CD1       23.2880   40.4860   30.5480 C.3   132  LEU132      0.0001
    132  CD2       22.8360   38.0800   31.1750 C.3   132  LEU132      0.0001
    133  N         23.2220   39.4060   36.0980 N.am  133  SER133     -0.1936
    134  CA        23.5090   39.9350   37.4250 C.3   133  SER133      0.2055
    135  C         22.2400   40.1000   38.2630 C.2   133  SER133      0.2643
    136  O         22.1560   40.9890   39.1110 O.2   133  SER133     -0.2714
    137  CB        24.2720   41.2550   37.3560 C.3   133  SER133      0.2130
    138  OG        25.4270   41.1180   36.5600 O.3   133  SER133     -0.2179
    139  N         21.2560   39.2430   38.0120 N.am  134  GLY134     -0.1954
    140  CA        20.0170   39.2580   38.7710 C.3   134  GLY134      0.1869
    141  C         19.1560   40.5050   38.6260 C.2   134  GLY134      0.2309
    142  O         18.2560   40.7290   39.4380 O.2   134  GLY134     -0.2863
    143  N         22.4410   40.7510   23.7530 N.3   143  LEU143     -0.1245
    144  CA        23.5840   40.0620   24.3530 C.3   143  LEU143      0.1561
    145  C         24.5920   39.6290   23.2850 C.2   143  LEU143      0.2260
    146  O         25.8020   39.6820   23.5160 O.2   143  LEU143     -0.2867
    147  CB        23.1090   38.8700   25.1920 C.3   143  LEU143      0.0270
    148  CG        24.1660   38.1520   26.0360 C.3   143  LEU143      0.0019
    149  CD1       24.8170   39.1090   27.0260 C.3   143  LEU143      0.0001
    150  CD2       23.5160   36.9700   26.7650 C.3   143  LEU143      0.0001
    151  N         26.2000   43.0240   22.0560 N.3   146  GLY146     -0.1210
    152  CA        26.8750   43.7060   23.1420 C.3   146  GLY146      0.1956
    153  C         28.2060   43.0660   23.5290 C.2   146  GLY146      0.2612
    154  O         28.8270   43.4750   24.5020 O.2   146  GLY146     -0.2717
    155  N         28.6520   42.0690   22.7720 N.am  147  GLY147     -0.1942
    156  CA        29.9910   41.5410   22.9640 C.3   147  GLY147      0.2014
    157  C         30.1330   40.0250   22.9700 C.2   147  GLY147      0.2638
    158  O         31.2000   39.5020   22.6710 O.2   147  GLY147     -0.2714
    159  N         29.0700   39.3090   23.2910 N.am  148  LEU148     -0.1977
    160  CA        29.1870   37.8630   23.4380 C.3   148  LEU148      0.1596
    161  C         29.1490   37.0960   22.1180 C.2   148  LEU148      0.2287
    162  O         29.5880   35.9460   22.0530 O.2   148  LEU148     -0.2864
    163  CB        28.1320   37.3190   24.4080 C.3   148  LEU148      0.0297
    164  CG        28.4750   37.4880   25.8900 C.3   148  LEU148      0.0022
    165  CD1       27.5610   36.6270   26.7680 C.3   148  LEU148      0.0001
    166  CD2       29.9530   37.1500   26.1390 C.3   148  LEU148      0.0001
    167  N         24.1560   30.4010   25.3350 N.3   155  ILE155     -0.1245
    168  CA        23.5450   30.5480   26.6560 C.3   155  ILE155      0.1561
    169  C         22.0200   30.5160   26.5630 C.2   155  ILE155      0.2260
    170  O         21.3440   29.9030   27.3950 O.2   155  ILE155     -0.2867
    171  CB        24.0120   31.8230   27.3890 C.3   155  ILE155      0.0252
    172  CG1       25.5380   31.8300   27.5230 C.3   155  ILE155      0.0019
    173  CG2       23.3430   31.9210   28.7690 C.3   155  ILE155      0.0019
    174  CD1       26.0890   33.1370   28.0960 C.3   155  ILE155      0.0001
    175  N         33.8790   31.5530   25.2850 N.3   235  HIS235     -0.1241
    176  CA        34.0050   32.8660   25.8940 C.3   235  HIS235      0.1621
    177  C         35.4720   33.2150   26.0810 C.2   235  HIS235      0.2264
    178  O         35.8910   34.3420   25.7920 O.2   235  HIS235     -0.2867
    179  CB        33.2620   32.9690   27.2290 C.3   235  HIS235      0.0745
    180  CG        33.5560   34.2390   27.9680 C.ar  235  HIS235      0.0817
    181  ND1       34.4650   34.3090   28.9990 N.ar  235  HIS235     -0.2268
    182  CD2       33.0930   35.5000   27.7880 C.ar  235  HIS235      0.1154
    183  CE1       34.5350   35.5560   29.4400 C.ar  235  HIS235      0.1986
    184  NE2       33.7230   36.2980   28.7100 N.ar  235  HIS235     -0.2212
    185  N         37.0270   36.5450   24.4970 N.3   239  PHE239     -0.1241
    186  CA        37.5790   37.5440   25.4050 C.3   239  PHE239      0.1605
    187  C         38.9840   37.9680   24.9690 C.2   239  PHE239      0.2264
    188  O         39.3190   39.1560   25.0040 O.2   239  PHE239     -0.2867
    189  CB        37.6070   37.0190   26.8410 C.3   239  PHE239      0.0534
    190  CG        38.0740   38.0280   27.8470 C.ar  239  PHE239     -0.0203
    191  CD1       37.2120   39.0120   28.3040 C.ar  239  PHE239     -0.0042
    192  CD2       39.3670   37.9940   28.3320 C.ar  239  PHE239     -0.0042
    193  CE1       37.6270   39.9470   29.2370 C.ar  239  PHE239     -0.0003
    194  CE2       39.7970   38.9270   29.2600 C.ar  239  PHE239     -0.0003
    195  CZ        38.9270   39.9090   29.7080 C.ar  239  PHE239     -0.0000
    196  N         38.6880   39.9860   22.4530 N.3   242  MET242     -0.1245
    197  CA        38.1420   41.3280   22.6510 C.3   242  MET242      0.1570
    198  C         39.2420   42.2750   23.0870 C.2   242  MET242      0.2261
    199  O         39.2670   43.4360   22.6650 O.2   242  MET242     -0.2867
    200  CB        36.9950   41.3050   23.6700 C.3   242  MET242      0.0387
    201  CG        35.6780   40.8300   23.3340 C.3   242  MET242      0.0595
    202  SD        34.8860   40.4610   24.9200 S.3   242  MET242     -0.1393
    203  CE        34.5120   38.7200   24.6830 C.3   242  MET242      0.0692
    204  N         36.9160   42.1610   35.9970 N.3   254  PHE254     -0.1241
    205  CA        36.6080   41.5180   34.7230 C.3   254  PHE254      0.1605
    206  C         37.9020   41.0850   34.0280 C.2   254  PHE254      0.2264
    207  O         38.0380   39.9350   33.6100 O.2   254  PHE254     -0.2867
    208  CB        35.7850   42.5250   33.8860 C.3   254  PHE254      0.0534
    209  CG        35.3350   42.0370   32.5300 C.ar  254  PHE254     -0.0203
    210  CD1       34.7560   40.7850   32.3550 C.ar  254  PHE254     -0.0042
    211  CD2       35.4080   42.8960   31.4320 C.ar  254  PHE254     -0.0042
    212  CE1       34.3130   40.3800   31.1040 C.ar  254  PHE254     -0.0003
    213  CE2       34.9660   42.4970   30.1710 C.ar  254  PHE254     -0.0003
    214  CZ        34.4150   41.2400   30.0070 C.ar  254  PHE254     -0.0000
    215  N         39.3310   36.8610   33.8420 N.3   258  PHE258     -0.1241
    216  CA        39.3860   36.2110   32.5360 C.3   258  PHE258      0.1605
    217  C         40.7690   36.2040   31.8960 C.2   258  PHE258      0.2264
    218  O         40.9160   36.0060   30.6890 O.2   258  PHE258     -0.2867
    219  CB        38.2990   36.7640   31.6120 C.3   258  PHE258      0.0534
    220  CG        36.9150   36.4380   32.0920 C.ar  258  PHE258     -0.0203
    221  CD1       35.9840   37.4320   32.3060 C.ar  258  PHE258     -0.0042
    222  CD2       36.5750   35.1230   32.3980 C.ar  258  PHE258     -0.0042
    223  CE1       34.7110   37.1180   32.7640 C.ar  258  PHE258     -0.0003
    224  CE2       35.3080   34.8030   32.8750 C.ar  258  PHE258     -0.0003
    225  CZ        34.3780   35.7980   33.0490 C.ar  258  PHE258     -0.0000
@<TRIPOS>BOND
     1   162   161    2
     2   151   152    1
     3   161   160    1
     4   196   197    1
     5   197   198    1
     6   197   200    1
     7   199   198    2
     8   158   157    2
     9   155   156    1
    10   155   153   am
    11   156   157    1
    12   157   159   am
    13   152   153    1
    14   145   146    2
    15   145   144    1
    16   159   160    1
    17   201   200    1
    18   201   202    1
    19   160   163    1
    20   153   154    2
    21   143   144    1
    22   144   147    1
    23   163   164    1
    24   185   186    1
    25   203   202    1
    26   187   188    2
    27   187   186    1
    28     5     6    1
    29     5     2    1
    30     1     2    1
    31   147   148    1
    32   175   176    1
    33   167   168    1
    34   186   189    1
    35     7     6   ar
    36     7     9   ar
    37     6     8   ar
    38   178   177    2
    39   164   166    1
    40   164   165    1
    41   176   177    1
    42   176   179    1
    43     2     3    1
    44     9    11   ar
    45   148   150    1
    46   148   149    1
    47    20    22   ar
    48    20    18   ar
    49     8    10   ar
    50   169   168    1
    51   169   170    2
    52   168   171    1
    53    11    10   ar
    54    22    21   ar
    55   189   190    1
    56    18    17   ar
    57   179   180    1
    58     3     4    2
    59   171   172    1
    60   171   173    1
    61   172   174    1
    62   182   180   ar
    63   182   184   ar
    64   190   191   ar
    65   190   192   ar
    66   180   181   ar
    67    21    19   ar
    68   191   193   ar
    69   192   194   ar
    70    17    19   ar
    71    17    16    1
    72   184   183   ar
    73   181   183   ar
    74    76    75    1
    75   193   195   ar
    76   194   195   ar
    77    16    13    1
    78    12    13    1
    79   214   213   ar
    80   214   212   ar
    81   213   211   ar
    82    29    27    1
    83    13    14    1
    84    74    75    1
    85    74    73    1
    86   131   130    1
    87    90    89    1
    88   218   217    2
    89    28    27    1
    90    23    14   am
    91    23    24    1
    92   212   210   ar
    93   132   130    1
    94    89    86    1
    95    27    24    1
    96    14    15    2
    97   211   209   ar
    98   130   129    1
    99   219   220    1
   100   219   216    1
   101    73    70    1
   102   217   216    1
   103    24    25    1
   104   220   221   ar
   105   220   222   ar
   106   118   119    1
   107   221   223   ar
   108    86    87    1
   109    86    85    1
   110    88    87    2
   111   210   209   ar
   112   222   224   ar
   113   209   208    1
   114   216   215    1
   115   106   103    1
   116    45    43    1
   117    72    71    2
   118   223   225   ar
   119   105   104    2
   120   224   225   ar
   121   129   126    1
   122   104   103    1
   123    71    70    1
   124   110   109    2
   125    70    69    1
   126   119   120    1
   127   119   122    1
   128    25    26    2
   129   109   108    1
   130    85    79   am
   131   207   206    2
   132   103   102    1
   133   125   120   am
   134   125   126    1
   135   120   121    2
   136   208   205    1
   137    37    35    1
   138   123   122    1
   139   126   127    1
   140   206   205    1
   141    43    42    1
   142    35    34    1
   143    42    44    1
   144    42    39    1
   145    80    79    2
   146    79    78    1
   147   122   124    1
   148    84    83    1
   149   102    93   am
   150   107   108    1
   151   108   111    1
   152   205   204    1
   153    81    78    1
   154    81    82    1
   155    30    31    1
   156   111   112    1
   157   127   128    2
   158   127   133   am
   159    78    77    1
   160    83    82    1
   161    38    39    1
   162    38    32   am
   163    39    40    1
   164    34    36    1
   165    34    31    1
   166    93    94    2
   167    93    92    1
   168    91    92    1
   169    31    32    1
   170   133   134    1
   171    32    33    2
   172   138   137    1
   173    92    95    1
   174   112   113    1
   175    40    41    2
   176   113   114    1
   177   137   134    1
   178   134   135    1
   179    95    96    1
   180    50    47    1
   181   139   135   am
   182   139   140    1
   183   135   136    2
   184   141   140    1
   185   141   142    2
   186   114   115    2
   187   116   115    1
   188    96    97    1
   189    47    48    1
   190    47    46    1
   191   115   117    1
   192    48    49    2
   193    68    66    1
   194    97    98    1
   195    67    66    1
   196    66    63    1
   197    98    99    2
   198    61    59    1
   199    63    62    1
   200    63    64    1
   201    99   100    1
   202    99   101    1
   203    59    58    2
   204    59    60    1
   205    62    53   am
   206    58    57    1
   207    64    65    2
   208    51    52    1
   209    55    52    1
   210    55    56    1
   211    53    52    1
   212    53    54    2
   213    57    56    1
