@<TRIPOS>MOLECULE
tmp/3im0A00.pdb
 96 91 0 0 0
SMALL
GASTEIGER

@<TRIPOS>ATOM
      1  N          8.5140  -21.7990   13.3350 N.3    49  THR49      -0.1218
      2  CA         7.9460  -22.1340   12.0560 C.3    49  THR49       0.1862
      3  C          8.4320  -23.5130   11.6080 C.2    49  THR49       0.2287
      4  O          9.1070  -24.1840   12.3900 O.2    49  THR49      -0.2866
      5  CB         8.3100  -21.1330   10.9360 C.3    49  THR49       0.1770
      6  OG1        9.7230  -21.2880   10.6960 O.3    49  THR49      -0.2211
      7  CG2        8.0580  -19.7070   11.3780 C.3    49  THR49       0.0375
      8  N          3.5250  -15.1080   16.7620 N.3    91  LYS91      -0.1245
      9  CA         2.1420  -14.8710   16.3940 C.3    91  LYS91       0.1561
     10  C          1.1600  -15.3730   17.4480 C.2    91  LYS91       0.2260
     11  O          1.4030  -16.3200   18.1890 O.2    91  LYS91      -0.2867
     12  CB         1.7780  -15.6430   15.1090 C.3    91  LYS91       0.0271
     13  CG         2.1790  -14.9700   13.7980 C.3    91  LYS91       0.0035
     14  CD         3.6920  -14.7740   13.7170 C.3    91  LYS91       0.0206
     15  CE         4.0670  -14.2870   12.3260 C.3    91  LYS91       0.1093
     16  NZ         5.5570  -14.2580   12.1460 N.3    91  LYS91      -0.1314
     17  N         -0.0630  -15.1770    4.4060 N.3   103  SER103     -0.1202
     18  CA         0.7020  -15.4190    5.6170 C.3   103  SER103      0.2020
     19  C          1.9200  -16.2470    5.2000 C.2   103  SER103      0.2619
     20  O          1.9930  -16.7140    4.0630 O.2   103  SER103     -0.2717
     21  CB        -0.0530  -16.1660    6.7070 C.3   103  SER103      0.2103
     22  OG        -0.3810  -17.4930    6.2840 O.3   103  SER103     -0.2182
     23  N          2.8490  -16.4290    6.1100 N.am  104  GLY104     -0.1942
     24  CA         4.0120  -17.2400    5.8120 C.3   104  GLY104      0.2014
     25  C          4.7650  -16.8780    4.5700 C.2   104  GLY104      0.2638
     26  O          5.1050  -17.7950    3.8030 O.2   104  GLY104     -0.2714
     27  N          5.1240  -15.6110    4.3700 N.am  105  TYR105     -0.1973
     28  CA         5.9750  -15.1710    3.2610 C.3   105  TYR105      0.1639
     29  C          5.2740  -15.4240    1.9290 C.2   105  TYR105      0.2290
     30  O          5.8860  -15.4520    0.8570 O.2   105  TYR105     -0.2864
     31  CB         7.4050  -15.8070    3.3400 C.3   105  TYR105      0.0560
     32  CG         7.8370  -15.7320    4.8140 C.ar  105  TYR105     -0.0198
     33  CD1        7.8680  -16.8530    5.6300 C.ar  105  TYR105     -0.0009
     34  CD2        8.1720  -14.5180    5.3840 C.ar  105  TYR105     -0.0009
     35  CE1        8.2410  -16.7830    6.9530 C.ar  105  TYR105      0.0417
     36  CE2        8.5460  -14.4270    6.7140 C.ar  105  TYR105      0.0417
     37  CZ         8.5810  -15.5590    7.4960 C.ar  105  TYR105      0.1957
     38  OH         8.9500  -15.4840    8.8260 O.3   105  TYR105     -0.2866
     39  N         -3.4080   -9.7370   11.8600 N.3   115  ARG115     -0.1245
     40  CA        -3.0930  -10.5720   13.0160 C.3   115  ARG115      0.1563
     41  C         -2.3860   -9.8160   14.1180 C.2   115  ARG115      0.2260
     42  O         -1.7710   -8.7610   13.9290 O.2   115  ARG115     -0.2867
     43  CB        -2.1400  -11.7000   12.5710 C.3   115  ARG115      0.0307
     44  CG        -2.8050  -12.7450   11.6980 C.3   115  ARG115      0.0489
     45  CD        -1.7990  -13.8750   11.4810 C.3   115  ARG115      0.2205
     46  NE        -0.8570  -13.4890   10.4340 N.pl3 115  ARG115     -0.0865
     47  CZ         0.1500  -14.2630   10.0430 C.cat 115  ARG115      0.5346
     48  NH1        0.3350  -15.4390   10.6350 N.pl3 115  ARG115      0.1354
     49  NH2        0.9170  -13.7760    9.0670 N.pl3 115  ARG115      0.1354
     50  N         -0.0790   -6.9780   12.6450 N.3   127  TYR127     -0.1241
     51  CA         0.7990   -7.5000   11.5860 C.3   127  TYR127      0.1605
     52  C         -0.0770   -7.8320   10.3880 C.2   127  TYR127      0.2264
     53  O         -0.9690   -8.6790   10.5350 O.2   127  TYR127     -0.2867
     54  CB         1.5260   -8.7180   12.1810 C.3   127  TYR127      0.0534
     55  CG         2.5780   -9.4010   11.3330 C.ar  127  TYR127     -0.0201
     56  CD1        3.7000   -8.7100   10.9020 C.ar  127  TYR127     -0.0009
     57  CD2        2.4370  -10.7410   10.9820 C.ar  127  TYR127     -0.0009
     58  CE1        4.6740   -9.3240   10.1220 C.ar  127  TYR127      0.0417
     59  CE2        3.3960  -11.3790   10.2040 C.ar  127  TYR127      0.0417
     60  CZ         4.5030  -10.6560    9.7880 C.ar  127  TYR127      0.1957
     61  OH         5.4770  -11.2590    9.0230 O.3   127  TYR127     -0.2866
     62  N         -0.8300   -8.7280    6.2270 N.3   129  TYR129     -0.1241
     63  CA        -0.4340   -9.1530    4.8940 C.3   129  TYR129      0.1605
     64  C         -1.4700   -8.5320    3.9450 C.2   129  TYR129      0.2264
     65  O         -2.6200   -8.9890    4.0000 O.2   129  TYR129     -0.2867
     66  CB        -0.4250  -10.6650    4.7180 C.3   129  TYR129      0.0534
     67  CG         0.8780  -11.3460    5.0350 C.ar  129  TYR129     -0.0201
     68  CD1        1.4170  -11.3410    6.3260 C.ar  129  TYR129     -0.0009
     69  CD2        1.5930  -12.0010    4.0420 C.ar  129  TYR129     -0.0009
     70  CE1        2.6330  -11.9800    6.5830 C.ar  129  TYR129      0.0417
     71  CE2        2.7880  -12.6350    4.2930 C.ar  129  TYR129      0.0417
     72  CZ         3.3030  -12.6210    5.5640 C.ar  129  TYR129      0.1957
     73  OH         4.5090  -13.2730    5.7860 O.3   129  TYR129     -0.2866
     74  N         -2.9880  -19.2760   15.1560 N.3   217  ASN217     -0.1240
     75  CA        -1.8170  -20.1140   14.8800 C.3   217  ASN217      0.1653
     76  C         -0.6790  -19.4570   15.6760 C.2   217  ASN217      0.2266
     77  O         -0.0860  -18.5060   15.1650 O.2   217  ASN217     -0.2867
     78  CB        -1.4830  -20.2020   13.4080 C.3   217  ASN217      0.1155
     79  CG        -0.4330  -21.2640   13.1070 C.2   217  ASN217      0.2627
     80  OD1        0.2120  -21.7360   14.0270 O.2   217  ASN217     -0.2716
     81  ND2       -0.3310  -21.6300   11.8470 N.am  217  ASN217     -0.0877
     82  N          2.9300  -19.2540   17.5990 N.3   219  PHE219     -0.1241
     83  CA         4.2480  -19.8550   17.5310 C.3   219  PHE219      0.1605
     84  C          5.2840  -18.7280   17.6040 C.2   219  PHE219      0.2264
     85  O          4.9550  -17.5640   17.3490 O.2   219  PHE219     -0.2867
     86  CB         4.4290  -20.5960   16.2060 C.3   219  PHE219      0.0534
     87  CG         4.1780  -19.7670   14.9610 C.ar  219  PHE219     -0.0203
     88  CD1        2.9040  -19.6800   14.4110 C.ar  219  PHE219     -0.0042
     89  CD2        5.1910  -19.0470   14.3270 C.ar  219  PHE219     -0.0042
     90  CE1        2.6450  -18.9580   13.2590 C.ar  219  PHE219     -0.0003
     91  CE2        4.9440  -18.3510   13.1660 C.ar  219  PHE219     -0.0003
     92  CZ         3.6700  -18.2780   12.6010 C.ar  219  PHE219     -0.0000
     93  N          8.5860  -16.1720   12.8220 N.3   222  GLY222     -0.1225
     94  CA        10.0030  -16.3480   12.4480 C.3   222  GLY222      0.1811
     95  C         10.6680  -14.9910   12.5110 C.2   222  GLY222      0.2280
     96  O         10.0410  -13.9100   12.6040 O.2   222  GLY222     -0.2866
@<TRIPOS>BOND
     1    30    29    2
     2    29    28    1
     3    28    31    1
     4    28    27    1
     5    31    32    1
     6    26    25    2
     7    64    65    2
     8    64    63    1
     9    69    71   ar
    10    69    67   ar
    11    20    19    2
    12    71    72   ar
    13    27    25   am
    14    17    18    1
    15    25    24    1
    16    66    63    1
    17    66    67    1
    18    32    34   ar
    19    32    33   ar
    20    63    62    1
    21    67    68   ar
    22    19    18    1
    23    19    23   am
    24    34    36   ar
    25    72    73    1
    26    72    70   ar
    27    18    21    1
    28    33    35   ar
    29    24    23    1
    30    22    21    1
    31    68    70   ar
    32    36    37   ar
    33    35    37   ar
    34    37    38    1
    35    61    60    1
    36    49    47    1
    37    60    58   ar
    38    60    59   ar
    39    47    46    2
    40    47    48    1
    41    58    56   ar
    42    59    57   ar
    43    52    53    2
    44    52    51    1
    45    46    45    1
    46     6     5    1
    47    56    55   ar
    48     5     7    1
    49     5     2    1
    50    57    55   ar
    51    55    54    1
    52    45    44    1
    53    51    54    1
    54    51    50    1
    55     3     2    1
    56     3     4    2
    57    44    43    1
    58    81    79   am
    59    39    40    1
    60     2     1    1
    61    16    15    1
    62    15    14    1
    63    94    95    1
    64    94    93    1
    65    95    96    2
    66    43    40    1
    67    92    91   ar
    68    92    90   ar
    69    40    41    1
    70    79    78    1
    71    79    80    2
    72    91    89   ar
    73    90    88   ar
    74    78    75    1
    75    14    13    1
    76    13    12    1
    77    42    41    2
    78    89    87   ar
    79    88    87   ar
    80    75    74    1
    81    75    76    1
    82    87    86    1
    83    12     9    1
    84    77    76    2
    85    86    83    1
    86     9     8    1
    87     9    10    1
    88    85    84    2
    89    10    11    2
    90    83    82    1
    91    83    84    1
