@<TRIPOS>MOLECULE
tmp/3im2A00.pdb
 93 85 0 0 0
SMALL
GASTEIGER

@<TRIPOS>ATOM
      1  N          5.7420  -22.2710   -6.0730 N.3   128  LEU128     -0.1245
      2  CA         5.8350  -23.3970   -5.1500 C.3   128  LEU128      0.1561
      3  C          5.8570  -24.7660   -5.8420 C.2   128  LEU128      0.2260
      4  O          6.3200  -25.7370   -5.2510 O.2   128  LEU128     -0.2867
      5  CB         4.7400  -23.3230   -4.0610 C.3   128  LEU128      0.0270
      6  CG         4.8850  -24.2080   -2.8090 C.3   128  LEU128      0.0019
      7  CD1        6.2190  -23.9960   -2.0960 C.3   128  LEU128      0.0001
      8  CD2        3.7290  -23.9770   -1.8370 C.3   128  LEU128      0.0001
      9  N          8.5780  -27.6690   -6.0330 N.3   131  THR131     -0.1218
     10  CA         8.5480  -28.9030   -5.2270 C.3   131  THR131      0.1862
     11  C          8.0900  -30.1200   -6.0370 C.2   131  THR131      0.2287
     12  O          8.4530  -31.2470   -5.7080 O.2   131  THR131     -0.2866
     13  CB         7.6650  -28.7810   -3.9430 C.3   131  THR131      0.1770
     14  OG1        6.2920  -28.5270   -4.2940 O.3   131  THR131     -0.2211
     15  CG2        8.1760  -27.6640   -3.0140 C.3   131  THR131      0.0375
     16  N         11.1330  -31.3340   -7.7420 N.3   134  MET134     -0.1230
     17  CA        11.9200  -32.0580   -6.7140 C.3   134  MET134      0.1702
     18  C         11.4890  -33.5260   -6.5500 C.2   134  MET134      0.2592
     19  O         12.3200  -34.4100   -6.3640 O.2   134  MET134     -0.2718
     20  CB        11.8380  -31.3580   -5.3520 C.3   134  MET134      0.0401
     21  CG        12.4280  -29.9570   -5.3420 C.3   134  MET134      0.0596
     22  SD        12.2120  -29.1100   -3.7590 S.3   134  MET134     -0.1393
     23  CE        12.7750  -27.4880   -4.2640 C.3   134  MET134      0.0692
     24  N         10.1750  -33.7420   -6.5980 N.am  135  ASP135     -0.1974
     25  CA         9.5700  -35.0730   -6.5630 C.3   135  ASP135      0.1709
     26  C         10.1200  -35.9130   -7.7230 C.2   135  ASP135      0.2293
     27  O         10.6140  -37.0280   -7.5170 O.2   135  ASP135     -0.2864
     28  CB         8.0430  -34.9230   -6.6350 C.3   135  ASP135      0.1436
     29  CG         7.2910  -36.2580   -6.5450 C.2   135  ASP135      0.3671
     30  OD1        7.9190  -37.3400   -6.4860 O.co2 135  ASP135     -0.2456
     31  OD2        6.0410  -36.2040   -6.5460 O.co2 135  ASP135     -0.2456
     32  N         13.8400  -36.9210   -7.3160 N.3   138  GLN138     -0.1245
     33  CA        13.9530  -38.1420   -6.4810 C.3   138  GLN138      0.1566
     34  C         13.7220  -39.4400   -7.2790 C.2   138  GLN138      0.2260
     35  O         14.4590  -40.4200   -7.1160 O.2   138  GLN138     -0.2867
     36  CB        12.9940  -38.0950   -5.2780 C.3   138  GLN138      0.0367
     37  CG        13.2090  -36.9060   -4.3320 C.3   138  GLN138      0.0905
     38  CD        12.2040  -36.8430   -3.1900 C.2   138  GLN138      0.2608
     39  OE1       11.1280  -37.4690   -3.2370 O.2   138  GLN138     -0.2717
     40  NE2       12.5530  -36.0870   -2.1410 N.am  138  GLN138     -0.0878
     41  N          6.6600  -42.2330   -7.6180 N.3   146  ASP146     -0.1239
     42  CA         6.1400  -41.5960   -6.4090 C.3   146  ASP146      0.1674
     43  C          4.8120  -42.1870   -5.8790 C.2   146  ASP146      0.2266
     44  O          4.4590  -41.9630   -4.7140 O.2   146  ASP146     -0.2867
     45  CB         6.0120  -40.0760   -6.6330 C.3   146  ASP146      0.1410
     46  CG         5.1190  -39.7100   -7.8290 C.2   146  ASP146      0.3668
     47  OD1        4.5090  -40.5990   -8.4770 O.co2 146  ASP146     -0.2456
     48  OD2        5.0410  -38.4950   -8.1220 O.co2 146  ASP146     -0.2456
     49  N          1.6970  -22.2820    1.6430 N.3   263  VAL263     -0.1245
     50  CA         0.9220  -23.2270    0.8140 C.3   263  VAL263      0.1561
     51  C         -0.3590  -22.6160    0.2210 C.2   263  VAL263      0.2260
     52  O         -0.6770  -22.8390   -0.9550 O.2   263  VAL263     -0.2867
     53  CB         0.6030  -24.5540    1.5770 C.3   263  VAL263      0.0252
     54  CG1       -0.4160  -25.4130    0.8180 C.3   263  VAL263      0.0019
     55  CG2        1.8750  -25.3540    1.8280 C.3   263  VAL263      0.0019
     56  N         10.3770  -26.7190    4.2810 N.3   300  TRP300     -0.1241
     57  CA        10.5850  -28.0900    3.8130 C.3   300  TRP300      0.1605
     58  C         12.0840  -28.3720    3.6690 C.2   300  TRP300      0.2264
     59  O         12.8430  -27.5240    3.1950 O.2   300  TRP300     -0.2867
     60  CB         9.9180  -28.3180    2.4530 C.3   300  TRP300      0.0550
     61  CG         8.4090  -28.2020    2.4020 C.ar  300  TRP300      0.0003
     62  CD1        7.5000  -29.2020    2.6160 C.ar  300  TRP300      0.0946
     63  CD2        7.6440  -27.0320    2.0600 C.ar  300  TRP300      0.0152
     64  NE1        6.2190  -28.7220    2.4500 N.ar  300  TRP300     -0.2442
     65  CE2        6.2790  -27.3980    2.1010 C.ar  300  TRP300      0.0810
     66  CE3        7.9810  -25.7090    1.7300 C.ar  300  TRP300      0.0012
     67  CZ2        5.2520  -26.4920    1.8270 C.ar  300  TRP300      0.0191
     68  CZ3        6.9610  -24.8090    1.4590 C.ar  300  TRP300      0.0001
     69  CH2        5.6100  -25.2050    1.5100 C.ar  300  TRP300      0.0015
     70  N         14.1820  -31.1220    1.6890 N.3   302  VAL302     -0.1245
     71  CA        13.8870  -32.1090    0.6420 C.3   302  VAL302      0.1561
     72  C         15.1860  -32.6800    0.0550 C.2   302  VAL302      0.2260
     73  O         16.0420  -31.9320   -0.4290 O.2   302  VAL302     -0.2867
     74  CB        13.0360  -31.4890   -0.4990 C.3   302  VAL302      0.0252
     75  CG1       12.5780  -32.5670   -1.5120 C.3   302  VAL302      0.0019
     76  CG2       11.8220  -30.7240    0.0670 C.3   302  VAL302      0.0019
     77  N         12.1530  -36.8330    3.5750 N.3   310  ASP310     -0.1239
     78  CA        11.9940  -35.3840    3.7070 C.3   310  ASP310      0.1674
     79  C         11.3110  -35.0250    5.0270 C.2   310  ASP310      0.2266
     80  O         10.5670  -35.8290    5.5980 O.2   310  ASP310     -0.2867
     81  CB        11.1830  -34.7960    2.5420 C.3   310  ASP310      0.1410
     82  CG        11.6880  -35.2330    1.1650 C.2   310  ASP310      0.3668
     83  OD1       12.9160  -35.4300    0.9680 O.co2 310  ASP310     -0.2456
     84  OD2       10.8330  -35.3620    0.2600 O.co2 310  ASP310     -0.2456
     85  N          9.3470  -31.6080    7.2470 N.3   312  GLU312     -0.1245
     86  CA         8.6810  -30.3120    7.1260 C.3   312  GLU312      0.1567
     87  C          8.2120  -29.7450    8.4760 C.2   312  GLU312      0.2260
     88  O          7.9390  -30.4890    9.4260 O.2   312  GLU312     -0.2867
     89  CB         7.5320  -30.3710    6.1070 C.3   312  GLU312      0.0388
     90  CG         6.3280  -31.1870    6.5240 C.3   312  GLU312      0.1160
     91  CD         5.0970  -30.8470    5.7090 C.2   312  GLU312      0.3649
     92  OE1        5.0320  -31.2420    4.5250 O.co2 312  GLU312     -0.2457
     93  OE2        4.1900  -30.1880    6.2560 O.co2 312  GLU312     -0.2457
@<TRIPOS>BOND
     1    47    46   ar
     2    48    46   ar
     3    46    45    1
     4    16    17    1
     5    26    27    2
     6    26    25    1
     7    41    42    1
     8    32    33    1
     9    34    35    2
    10    34    33    1
    11    17    18    1
    12    17    20    1
    13    28    25    1
    14    28    29    1
    15    45    42    1
    16    24    25    1
    17    24    18   am
    18    18    19    2
    19    31    29   ar
    20    29    30   ar
    21    33    36    1
    22    42    43    1
    23     1     2    1
    24    11    12    2
    25    11    10    1
    26     9    10    1
    27    43    44    2
    28     3     4    2
    29     3     2    1
    30    20    21    1
    31    21    22    1
    32    36    37    1
    33    10    13    1
    34     2     5    1
    35    37    38    1
    36    14    13    1
    37    23    22    1
    38     5     6    1
    39    13    15    1
    40    39    38    2
    41    38    40   am
    42     6     7    1
    43     6     8    1
    44    75    74    1
    45    52    51    2
    46    74    76    1
    47    74    71    1
    48    73    72    2
    49    72    71    1
    50    51    50    1
    51    84    82   ar
    52    71    70    1
    53    50    53    1
    54    50    49    1
    55    54    53    1
    56    83    82   ar
    57    82    81    1
    58    68    69   ar
    59    68    66   ar
    60    69    67   ar
    61    53    55    1
    62    66    63   ar
    63    67    65   ar
    64    63    65   ar
    65    63    61   ar
    66    65    64   ar
    67    61    60    1
    68    61    62   ar
    69    64    62   ar
    70    60    57    1
    71    81    78    1
    72    59    58    2
    73    77    78    1
    74    58    57    1
    75    78    79    1
    76    57    56    1
    77    92    91   ar
    78    79    80    2
    79    91    93   ar
    80    91    90    1
    81    89    90    1
    82    89    86    1
    83    86    85    1
    84    86    87    1
    85    87    88    2
