@<TRIPOS>MOLECULE
tmp/3imcB00.pdb
 100 96 0 0 0
SMALL
GASTEIGER

@<TRIPOS>ATOM
      1  N         -5.2610  -15.4620   38.2510 N.3    43  HIS43      -0.1241
      2  CA        -5.4810  -15.4350   39.6980 C.3    43  HIS43       0.1621
      3  C         -6.0250  -14.0820   40.1570 C.2    43  HIS43       0.2264
      4  O         -6.2900  -13.1810   39.3330 O.2    43  HIS43      -0.2867
      5  CB        -4.2050  -15.8190   40.4750 C.3    43  HIS43       0.0745
      6  CG        -3.0080  -14.9750   40.1510 C.ar   43  HIS43       0.0817
      7  ND1       -2.9720  -13.6150   40.3730 N.ar   43  HIS43      -0.2268
      8  CD2       -1.8030  -15.3000   39.6300 C.ar   43  HIS43       0.1154
      9  CE1       -1.7960  -13.1390   40.0050 C.ar   43  HIS43       0.1986
     10  NE2       -1.0690  -14.1410   39.5420 N.ar   43  HIS43      -0.2212
     11  N         -4.7860  -11.5780   41.4750 N.3    45  GLY45      -0.1210
     12  CA        -4.0240  -10.4190   41.0150 C.3    45  GLY45       0.1956
     13  C         -4.5480   -9.9220   39.6770 C.2    45  GLY45       0.2611
     14  O         -4.7850   -8.7150   39.4920 O.2    45  GLY45      -0.2717
     15  N         -4.7440  -10.8420   38.7420 N.am   46  HIS46      -0.1975
     16  CA        -5.2520  -10.4780   37.4220 C.3    46  HIS46       0.1656
     17  C         -6.6630   -9.9140   37.5490 C.2    46  HIS46       0.2291
     18  O         -7.0150   -8.9730   36.8550 O.2    46  HIS46      -0.2864
     19  CB        -5.2720  -11.6680   36.4900 C.3    46  HIS46       0.0771
     20  CG        -3.9270  -12.2750   36.2720 C.ar   46  HIS46       0.0820
     21  ND1       -3.5440  -13.4530   36.8760 N.ar   46  HIS46      -0.2267
     22  CD2       -2.8700  -11.8630   35.5350 C.ar   46  HIS46       0.1154
     23  CE1       -2.3090  -13.7470   36.5100 C.ar   46  HIS46       0.1986
     24  NE2       -1.8790  -12.8010   35.6920 N.ar   46  HIS46      -0.2212
     25  N         -7.9120   -8.1770   40.0040 N.3    48  ALA48      -0.1231
     26  CA        -7.8010   -6.7860   40.4440 C.3    48  ALA48       0.1694
     27  C         -7.4800   -5.8420   39.2810 C.2    48  ALA48       0.2591
     28  O         -7.9600   -4.7080   39.2540 O.2    48  ALA48      -0.2718
     29  CB        -6.7520   -6.6410   41.5290 C.3    48  ALA48       0.0304
     30  N         -6.6580   -6.3010   38.3390 N.am   49  LEU49      -0.1980
     31  CA        -6.3860   -5.5130   37.1260 C.3    49  LEU49       0.1596
     32  C         -7.6670   -5.3180   36.3230 C.2    49  LEU49       0.2287
     33  O         -7.9900   -4.1950   35.8920 O.2    49  LEU49      -0.2864
     34  CB        -5.3320   -6.1900   36.2440 C.3    49  LEU49       0.0297
     35  CG        -3.9890   -6.5740   36.9000 C.3    49  LEU49       0.0022
     36  CD1       -3.0410   -7.1570   35.8520 C.3    49  LEU49       0.0001
     37  CD2       -3.3590   -5.4260   37.6320 C.3    49  LEU49       0.0001
     38  N          0.2180   -5.1190   37.1820 N.3   145  GLY145     -0.1225
     39  CA         0.3780   -5.2040   38.6220 C.3   145  GLY145      0.1811
     40  C          1.6660   -4.5620   39.1070 C.2   145  GLY145      0.2280
     41  O          2.7000   -4.5570   38.4030 O.2   145  GLY145     -0.2866
     42  N          3.3790   -5.7990   41.5140 N.3   147  LYS147     -0.1231
     43  CA         4.2580   -6.8610   42.0270 C.3   147  LYS147      0.1693
     44  C          5.5120   -6.9950   41.1520 C.2   147  LYS147      0.2592
     45  O          6.6320   -7.1400   41.6600 O.2   147  LYS147     -0.2718
     46  CB         3.5510   -8.2160   42.1320 C.3   147  LYS147      0.0285
     47  CG         4.3380   -9.1980   43.0310 C.3   147  LYS147      0.0035
     48  CD         4.2560  -10.6370   42.6080 C.3   147  LYS147      0.0206
     49  CE         4.7700  -10.8180   41.1980 C.3   147  LYS147      0.1093
     50  NZ         4.9670  -12.2490   40.8520 N.3   147  LYS147     -0.1314
     51  N          5.3250   -6.9530   39.8290 N.am  148  ASP148     -0.1974
     52  CA         6.4570   -6.9700   38.8880 C.3   148  ASP148      0.1709
     53  C          6.8290   -5.5110   38.6100 C.2   148  ASP148      0.2293
     54  O          6.5520   -4.9410   37.5380 O.2   148  ASP148     -0.2864
     55  CB         6.0820   -7.7430   37.6360 C.3   148  ASP148      0.1436
     56  CG         5.8380   -9.2140   37.9370 C.2   148  ASP148      0.3671
     57  OD1        6.8200   -9.9430   38.1570 O.co2 148  ASP148     -0.2456
     58  OD2        4.6670   -9.6170   37.9730 O.co2 148  ASP148     -0.2456
     59  N         -1.3400   -1.2060   39.2930 N.3   171  VAL171     -0.1231
     60  CA        -2.3570   -1.5900   40.2740 C.3   171  VAL171      0.1678
     61  C         -1.6770   -2.2240   41.5020 C.2   171  VAL171      0.2434
     62  O         -0.8360   -3.1260   41.3360 O.2   171  VAL171     -0.2733
     63  CB        -3.3600   -2.5780   39.6520 C.3   171  VAL171      0.0265
     64  CG1       -4.4050   -2.9850   40.6680 C.3   171  VAL171      0.0020
     65  CG2       -4.0250   -1.9730   38.3840 C.3   171  VAL171      0.0020
     66  N         -1.9970   -1.7380   42.7190 N.am  172  PRO172     -0.2718
     67  CA        -1.3600   -2.2500   43.9370 C.3   172  PRO172      0.1535
     68  C         -1.4840   -3.7610   44.0530 C.2   172  PRO172      0.2599
     69  O         -2.5090   -4.3440   43.7040 O.2   172  PRO172     -0.2715
     70  CB        -2.1150   -1.5320   45.0640 C.3   172  PRO172      0.0310
     71  CG        -2.5530   -0.2380   44.4360 C.3   172  PRO172      0.0237
     72  CD        -2.9310   -0.6350   43.0190 C.3   172  PRO172      0.0939
     73  N         -0.4140   -4.3760   44.5470 N.am  173  THR173     -0.1937
     74  CA        -0.3070   -5.8230   44.6200 C.3   173  THR173      0.2028
     75  C         -1.4000   -6.4460   45.5030 C.2   173  THR173      0.2642
     76  O         -1.5980   -6.0430   46.6500 O.2   173  THR173     -0.2714
     77  CB         1.0980   -6.1840   45.1310 C.3   173  THR173      0.1808
     78  OG1        2.0640   -5.6830   44.1910 O.3   173  THR173     -0.2208
     79  CG2        1.2960   -7.7030   45.2180 C.3   173  THR173      0.0379
     80  N         -2.0870   -7.4380   44.9510 N.am  174  VAL174     -0.1977
     81  CA        -3.0210   -8.2530   45.7360 C.3   174  VAL174      0.1596
     82  C         -2.2020   -9.2680   46.5470 C.2   174  VAL174      0.2287
     83  O         -1.2360   -9.8690   46.0400 O.2   174  VAL174     -0.2864
     84  CB        -4.0260   -9.0170   44.8400 C.3   174  VAL174      0.0276
     85  CG1       -5.0000   -9.8380   45.6820 C.3   174  VAL174      0.0022
     86  CG2       -4.8430   -8.0430   44.0030 C.3   174  VAL174      0.0022
     87  N          0.3790  -12.2470   45.6120 N.3   182  MET182     -0.1230
     88  CA        -0.1970  -13.2440   44.7010 C.3   182  MET182      0.1702
     89  C          0.7640  -13.6200   43.5740 C.2   182  MET182      0.2593
     90  O          1.4470  -12.7550   43.0130 O.2   182  MET182     -0.2718
     91  CB        -1.4950  -12.7190   44.0810 C.3   182  MET182      0.0401
     92  CG        -2.6680  -12.5670   45.0320 C.3   182  MET182      0.0596
     93  SD        -3.2710  -14.1100   45.7360 S.3   182  MET182     -0.1393
     94  CE        -2.9650  -15.2870   44.4070 C.3   182  MET182      0.0692
     95  N          0.7960  -14.9160   43.2460 N.am  183  SER183     -0.1952
     96  CA         1.6260  -15.4450   42.1780 C.3   183  SER183      0.1924
     97  C          1.1750  -16.8570   41.8480 C.2   183  SER183      0.2314
     98  O          0.7610  -17.6240   42.7370 O.2   183  SER183     -0.2863
     99  CB         3.1060  -15.4680   42.5980 C.3   183  SER183      0.2116
    100  OG         3.8820  -16.2890   41.7300 O.3   183  SER183     -0.2180
@<TRIPOS>BOND
     1    22    24   ar
     2    22    20   ar
     3    24    23   ar
     4    36    35    1
     5    33    32    2
     6    34    35    1
     7    34    31    1
     8    20    19    1
     9    20    21   ar
    10    32    31    1
    11    19    16    1
    12    23    21   ar
    13    18    17    2
    14    35    37    1
    15    31    30    1
    16    38    39    1
    17    16    17    1
    18    16    15    1
    19    54    53    2
    20    55    56    1
    21    55    52    1
    22    56    58   ar
    23    56    57   ar
    24     1     2    1
    25    30    27   am
    26    65    63    1
    27    41    40    2
    28    53    52    1
    29    39    40    1
    30    15    13   am
    31    52    51    1
    32    28    27    2
    33    27    26    1
    34    59    60    1
    35     4     3    2
    36    14    13    2
    37    10     8   ar
    38    10     9   ar
    39     8     6   ar
    40    63    60    1
    41    63    64    1
    42    13    12    1
    43     2     3    1
    44     2     5    1
    45    51    44   am
    46    25    26    1
    47     9     7   ar
    48     6     7   ar
    49     6     5    1
    50    60    61    1
    51    26    29    1
    52    50    49    1
    53    12    11    1
    54    44    45    2
    55    44    43    1
    56    49    48    1
    57    62    61    2
    58    61    66   am
    59    42    43    1
    60   100    99    1
    61    97    96    1
    62    97    98    2
    63    43    46    1
    64    46    47    1
    65    96    99    1
    66    96    95    1
    67    48    47    1
    68    66    72    1
    69    66    67    1
    70    90    89    2
    71    72    71    1
    72    95    89   am
    73    89    88    1
    74    69    68    2
    75    67    68    1
    76    67    70    1
    77    86    84    1
    78    68    73   am
    79    91    88    1
    80    91    92    1
    81    78    77    1
    82    94    93    1
    83    71    70    1
    84    73    74    1
    85    74    77    1
    86    74    75    1
    87    88    87    1
    88    84    85    1
    89    84    81    1
    90    80    75   am
    91    80    81    1
    92    92    93    1
    93    77    79    1
    94    75    76    2
    95    81    82    1
    96    83    82    2
