@<TRIPOS>MOLECULE
tmp/3imeA00.pdb
 133 126 0 0 0
SMALL
GASTEIGER

@<TRIPOS>ATOM
      1  N          8.4780   11.3490    6.1060 N.3    35  PRO35      -0.2102
      2  CA         9.6330   11.6010    6.9600 C.3    35  PRO35       0.1504
      3  C         10.7970   11.9720    6.0870 C.2    35  PRO35       0.2576
      4  O         11.2170   11.1960    5.2060 O.2    35  PRO35      -0.2718
      5  CB         9.8990   10.2410    7.6260 C.3    35  PRO35       0.0282
      6  CG         8.5670    9.4800    7.4160 C.3    35  PRO35       0.0208
      7  CD         8.1450    9.9120    6.0530 C.3    35  PRO35       0.0893
      8  N         11.3020   13.1690    6.3100 N.am   36  THR36      -0.1939
      9  CA        12.5190   13.5970    5.6300 C.3    36  THR36       0.2028
     10  C         13.5570   14.1040    6.6540 C.2    36  THR36       0.2642
     11  O         13.2270   14.3890    7.8370 O.2    36  THR36      -0.2714
     12  CB        12.2590   14.7610    4.6660 C.3    36  THR36       0.1808
     13  OG1       12.1830   15.9820    5.4430 O.3    36  THR36      -0.2208
     14  CG2       10.9870   14.5390    3.8590 C.3    36  THR36       0.0379
     15  N         14.7850   14.2180    6.1540 N.am   37  MET37      -0.1962
     16  CA        15.9090   14.8560    6.8540 C.3    37  MET37       0.1736
     17  C         16.1950   16.2740    6.3330 C.2    37  MET37       0.2617
     18  O         17.2780   16.8140    6.5370 O.2    37  MET37      -0.2715
     19  CB        17.1700   13.9580    6.7990 C.3    37  MET37       0.0427
     20  CG        17.0330   12.7720    7.7430 C.3    37  MET37       0.0599
     21  SD        18.5650   11.9640    8.2550 S.3    37  MET37      -0.1393
     22  CE        18.9990   11.3210    6.6230 C.3    37  MET37       0.0692
     23  N         15.2050   16.8840    5.6860 N.am   38  GLY38      -0.1955
     24  CA        15.3930   18.1970    5.0300 C.3    38  GLY38       0.1869
     25  C         16.2750   18.1510    3.7830 C.2    38  GLY38       0.2309
     26  O         16.4520   17.0960    3.1580 O.2    38  GLY38      -0.2863
     27  N         12.1900   14.2500   -2.9360 N.3    44  HIS44      -0.1241
     28  CA        11.2550   14.4230   -1.8360 C.3    44  HIS44       0.1621
     29  C          9.8860   14.8800   -2.3090 C.2    44  HIS44       0.2264
     30  O          8.8510   14.4150   -1.7530 O.2    44  HIS44      -0.2867
     31  CB        11.8010   15.3820   -0.7770 C.3    44  HIS44       0.0745
     32  CG        13.0140   14.8640   -0.0890 C.ar   44  HIS44       0.0817
     33  ND1       14.2840   15.2470   -0.4500 N.ar   44  HIS44      -0.2268
     34  CD2       13.1570   13.9900    0.9370 C.ar   44  HIS44       0.1154
     35  CE1       15.1620   14.6270    0.3180 C.ar   44  HIS44       0.1986
     36  NE2       14.5060   13.8670    1.1780 N.ar   44  HIS44      -0.2212
     37  N         13.8290   16.2500   10.2700 N.3    64  PHE64      -0.1241
     38  CA        14.5960   15.9710   11.4720 C.3    64  PHE64       0.1605
     39  C         15.8610   15.2660   11.0720 C.2    64  PHE64       0.2264
     40  O         15.8180   14.2070   10.4490 O.2    64  PHE64      -0.2867
     41  CB        13.7670   15.1510   12.4920 C.3    64  PHE64       0.0534
     42  CG        14.4660   14.9290   13.8120 C.ar   64  PHE64      -0.0203
     43  CD1       14.8650   16.0000   14.5970 C.ar   64  PHE64      -0.0042
     44  CD2       14.7660   13.6350   14.2510 C.ar   64  PHE64      -0.0042
     45  CE1       15.5950   15.7870   15.7910 C.ar   64  PHE64      -0.0003
     46  CE2       15.4850   13.4190   15.4320 C.ar   64  PHE64      -0.0003
     47  CZ        15.8850   14.4840   16.2090 C.ar   64  PHE64      -0.0000
     48  N         18.4890   13.1970   12.3040 N.3    66  ASN66      -0.1240
     49  CA        18.3830   12.3810   13.4800 C.3    66  ASN66       0.1653
     50  C         19.7610   11.9610   13.9750 C.2    66  ASN66       0.2266
     51  O         20.3990   11.1340   13.3180 O.2    66  ASN66      -0.2867
     52  CB        17.5320   11.1720   13.0750 C.3    66  ASN66       0.1155
     53  CG        17.6060   10.0210   14.0740 C.2    66  ASN66       0.2627
     54  OD1       17.4740    8.8460   13.6960 O.2    66  ASN66      -0.2716
     55  ND2       17.8350   10.3490   15.3450 N.am   66  ASN66      -0.0877
     56  N         21.0660    7.9140   13.7370 N.3    69  GLN69      -0.1245
     57  CA        21.3790    7.0980   12.5460 C.3    69  GLN69       0.1566
     58  C         22.7740    7.3810   11.9420 C.2    69  GLN69       0.2260
     59  O         23.2860    6.6130   11.0960 O.2    69  GLN69      -0.2867
     60  CB        20.2510    7.1700   11.5100 C.3    69  GLN69       0.0367
     61  CG        20.1140    8.4710   10.7350 C.3    69  GLN69       0.0905
     62  CD        18.7270    8.5860   10.1090 C.2    69  GLN69       0.2608
     63  OE1       17.7160    8.6250   10.8170 O.2    69  GLN69      -0.2717
     64  NE2       18.6710    8.6060    8.7780 N.am   69  GLN69      -0.0878
     65  N         25.9080   16.9240    7.3340 N.3    79  TYR79      -0.1241
     66  CA        24.5940   16.8110    6.6580 C.3    79  TYR79       0.1605
     67  C         24.0690   18.1740    6.1590 C.2    79  TYR79       0.2264
     68  O         24.0780   19.1290    6.9440 O.2    79  TYR79      -0.2867
     69  CB        23.5240   16.0890    7.5220 C.3    79  TYR79       0.0534
     70  CG        22.4950   15.4800    6.5930 C.ar   79  TYR79      -0.0201
     71  CD1       22.7380   14.2410    5.9770 C.ar   79  TYR79      -0.0009
     72  CD2       21.3430   16.1850    6.2380 C.ar   79  TYR79      -0.0009
     73  CE1       21.8400   13.7070    5.0720 C.ar   79  TYR79       0.0417
     74  CE2       20.4410   15.6710    5.3250 C.ar   79  TYR79       0.0417
     75  CZ        20.6960   14.4330    4.7420 C.ar   79  TYR79       0.1957
     76  OH        19.8020   13.9080    3.8400 O.3    79  TYR79      -0.2866
     77  N         17.6600    4.8050   12.4980 N.3   136  VAL136     -0.1245
     78  CA        16.5700    5.0520   11.5250 C.3   136  VAL136      0.1561
     79  C         15.1970    4.5090   11.9700 C.2   136  VAL136      0.2260
     80  O         14.1920    5.2340   11.9460 O.2   136  VAL136     -0.2867
     81  CB        16.9450    4.4430   10.1220 C.3   136  VAL136      0.0252
     82  CG1       15.7610    4.4920    9.1430 C.3   136  VAL136      0.0019
     83  CG2       18.1830    5.1500    9.5500 C.3   136  VAL136      0.0019
     84  N         13.6580    6.3760   15.1180 N.3   139  VAL139     -0.1231
     85  CA        13.0470    7.6720   14.9170 C.3   139  VAL139      0.1692
     86  C         11.8000    7.4930   14.0370 C.2   139  VAL139      0.2591
     87  O         10.7540    8.1600   14.2730 O.2   139  VAL139     -0.2718
     88  CB        14.0620    8.7070   14.3850 C.3   139  VAL139      0.0266
     89  CG1       14.3260    8.5050   12.8860 C.3   139  VAL139      0.0020
     90  CG2       13.5910   10.1300   14.6820 C.3   139  VAL139      0.0020
     91  N         11.8630    6.5850   13.0570 N.am  140  VAL140     -0.1980
     92  CA        10.6590    6.3290   12.2580 C.3   140  VAL140      0.1595
     93  C          9.4940    5.8280   13.1480 C.2   140  VAL140      0.2287
     94  O          8.3560    6.2670   12.9770 O.2   140  VAL140     -0.2864
     95  CB        10.8870    5.3850   11.0600 C.3   140  VAL140      0.0276
     96  CG1        9.4930    4.9060   10.4550 C.3   140  VAL140      0.0022
     97  CG2       11.7110    6.0980    9.9790 C.3   140  VAL140      0.0022
     98  N          8.0510    8.7940   15.1150 N.3   143  LEU143     -0.1245
     99  CA         7.3400    9.6680   14.2040 C.3   143  LEU143      0.1561
    100  C          5.9560    9.1810   13.8570 C.2   143  LEU143      0.2260
    101  O          5.0060    9.9710   13.8170 O.2   143  LEU143     -0.2867
    102  CB         8.1450    9.8980   12.9270 C.3   143  LEU143      0.0270
    103  CG         9.4260   10.7500   13.1330 C.3   143  LEU143      0.0019
    104  CD1       10.2740   10.6480   11.8970 C.3   143  LEU143      0.0001
    105  CD2        9.1850   12.2360   13.5000 C.3   143  LEU143      0.0001
    106  N          8.0730    6.6070    1.5040 N.3   154  PHE154     -0.1241
    107  CA         9.5350    6.5160    1.3770 C.3   154  PHE154      0.1605
    108  C          9.9660    6.3130   -0.0730 C.2   154  PHE154      0.2264
    109  O          9.3090    5.5830   -0.8230 O.2   154  PHE154     -0.2867
    110  CB        10.0490    5.3500    2.2460 C.3   154  PHE154      0.0534
    111  CG         9.9670    5.6300    3.7410 C.ar  154  PHE154     -0.0203
    112  CD1       10.9510    6.3880    4.3780 C.ar  154  PHE154     -0.0042
    113  CD2        8.8880    5.1640    4.5010 C.ar  154  PHE154     -0.0042
    114  CE1       10.8870    6.6510    5.7400 C.ar  154  PHE154     -0.0003
    115  CE2        8.8150    5.4230    5.8640 C.ar  154  PHE154     -0.0003
    116  CZ         9.8240    6.1800    6.4800 C.ar  154  PHE154     -0.0000
    117  N         16.5700    4.6160   -1.2100 N.3   158  ASP158     -0.1239
    118  CA        17.0690    3.9700   -0.0170 C.3   158  ASP158      0.1674
    119  C         16.2570    2.7230    0.2170 C.2   158  ASP158      0.2266
    120  O         15.4020    2.6560    1.1070 O.2   158  ASP158     -0.2867
    121  CB        17.0100    4.9480    1.1430 C.3   158  ASP158      0.1410
    122  CG        17.9680    6.0800    0.9480 C.2   158  ASP158      0.3668
    123  OD1       19.1680    5.8730    1.2470 O.co2 158  ASP158     -0.2456
    124  OD2       17.5360    7.1300    0.4180 O.co2 158  ASP158     -0.2456
    125  N         16.5930    0.6190    3.4800 N.3   161  GLN161     -0.1245
    126  CA        15.7470    1.3480    4.4360 C.3   161  GLN161      0.1566
    127  C         14.2430    1.0550    4.2900 C.2   161  GLN161      0.2260
    128  O         13.5660    0.7460    5.2690 O.2   161  GLN161     -0.2867
    129  CB        15.9440    2.8550    4.2030 C.3   161  GLN161      0.0367
    130  CG        15.5140    3.7260    5.3510 C.3   161  GLN161      0.0905
    131  CD        15.8220    5.1720    5.0790 C.2   161  GLN161      0.2608
    132  OE1       16.8200    5.6800    5.5740 O.2   161  GLN161     -0.2717
    133  NE2       14.9990    5.8350    4.2360 N.am  161  GLN161     -0.0878
@<TRIPOS>BOND
     1    27    28    1
     2    29    28    1
     3    29    30    2
     4    28    31    1
     5   117   118    1
     6   109   108    2
     7    31    32    1
     8    33    32   ar
     9    33    35   ar
    10    32    34   ar
    11   108   107    1
    12   118   119    1
    13   118   121    1
    14   119   120    2
    15    35    36   ar
    16   124   122   ar
    17    34    36   ar
    18   122   121    1
    19   122   123   ar
    20   107   106    1
    21   107   110    1
    22   110   111    1
    23    26    25    2
    24   125   126    1
    25   111   112   ar
    26   111   113   ar
    27    25    24    1
    28    76    75    1
    29    14    12    1
    30   129   126    1
    31   129   130    1
    32   133   131   am
    33   127   126    1
    34   127   128    2
    35   112   114   ar
    36   113   115   ar
    37    12    13    1
    38    12     9    1
    39    75    73   ar
    40    75    74   ar
    41    24    23    1
    42    73    71   ar
    43   131   130    1
    44   131   132    2
    45     4     3    2
    46    74    72   ar
    47     9     8    1
    48     9    10    1
    49    23    17   am
    50   114   116   ar
    51   115   116   ar
    52    71    70   ar
    53     7     1    1
    54     7     6    1
    55     3     8   am
    56     3     2    1
    57     1     2    1
    58    15    10   am
    59    15    16    1
    60    67    66    1
    61    67    68    2
    62    72    70   ar
    63    17    18    2
    64    17    16    1
    65    70    69    1
    66    22    21    1
    67    10    11    2
    68    66    65    1
    69    66    69    1
    70    19    16    1
    71    19    20    1
    72     2     5    1
    73     6     5    1
    74    20    21    1
    75    64    62   am
    76    82    81    1
    77    83    81    1
    78    97    95    1
    79    62    61    1
    80    62    63    2
    81    81    78    1
    82    37    38    1
    83    40    39    2
    84    96    95    1
    85    61    60    1
    86    95    92    1
    87    39    38    1
    88    59    58    2
    89    38    41    1
    90    60    57    1
    91    78    79    1
    92    78    77    1
    93   104   103    1
    94    58    57    1
    95    80    79    2
    96    92    91    1
    97    92    93    1
    98    48    49    1
    99    41    42    1
   100    57    56    1
   101    89    88    1
   102   102   103    1
   103   102    99    1
   104    94    93    2
   105    91    86   am
   106    52    49    1
   107    52    53    1
   108   103   105    1
   109    51    50    2
   110    49    50    1
   111    54    53    2
   112    42    44   ar
   113    42    43   ar
   114   101   100    2
   115   100    99    1
   116    86    87    2
   117    86    85    1
   118    53    55   am
   119    99    98    1
   120    44    46   ar
   121    88    90    1
   122    88    85    1
   123    43    45   ar
   124    85    84    1
   125    46    47   ar
   126    45    47   ar
