@<TRIPOS>MOLECULE
tmp/3imkA01.pdb
 85 82 0 0 0
SMALL
GASTEIGER

@<TRIPOS>ATOM
      1  N         32.2650    9.0910    1.5460 N.3     8  THR8       -0.1203
      2  CA        33.6000    8.5370    1.6270 C.3     8  THR8        0.1994
      3  C         33.8440    7.4590    0.6090 C.2     8  THR8        0.2617
      4  O         34.9810    7.0840    0.3500 O.2     8  THR8       -0.2717
      5  CB        33.8550    7.9710    3.0280 C.3     8  THR8        0.1784
      6  OG1       32.8820    6.9190    3.2390 O.3     8  THR8       -0.2211
      7  CG2       33.7480    9.0890    4.1000 C.3     8  THR8        0.0376
      8  N         32.7770    6.9040    0.0340 N.am    9  LYS9       -0.1979
      9  CA        32.9190    5.8380   -0.9800 C.3     9  LYS9        0.1596
     10  C         31.6260    5.7120   -1.7910 C.2     9  LYS9        0.2287
     11  O         30.5250    5.7630   -1.2070 O.2     9  LYS9       -0.2864
     12  CB        33.2430    4.4890   -0.3340 C.3     9  LYS9        0.0298
     13  CG        33.6920    3.3690   -1.2990 C.3     9  LYS9        0.0038
     14  CD        34.0180    2.0670   -0.5570 C.3     9  LYS9        0.0206
     15  CE        34.5930    0.9670   -1.4820 C.3     9  LYS9        0.1093
     16  NZ        35.2310   -0.2860   -0.8470 N.3     9  LYS9       -0.1314
     17  N         29.8460    2.9860   -4.4350 N.3    11  ILE11      -0.1245
     18  CA        29.9300    1.6690   -5.0170 C.3    11  ILE11       0.1561
     19  C         28.8320    1.4120   -6.0490 C.2    11  ILE11       0.2260
     20  O         27.7900    2.0510   -6.0150 O.2    11  ILE11      -0.2867
     21  CB        29.9410    0.5400   -3.9470 C.3    11  ILE11       0.0252
     22  CG1       28.5890    0.3180   -3.2650 C.3    11  ILE11       0.0019
     23  CG2       31.0250    0.8040   -2.8690 C.3    11  ILE11       0.0019
     24  CD1       28.5510   -0.9930   -2.3900 C.3    11  ILE11       0.0001
     25  N         36.8150    7.6620   -3.2940 N.3    32  PRO32      -0.2102
     26  CA        37.0380    6.2150   -3.2720 C.3    32  PRO32       0.1504
     27  C         35.8290    5.4680   -3.8050 C.2    32  PRO32       0.2575
     28  O         34.6930    5.9030   -3.6180 O.2    32  PRO32      -0.2718
     29  CB        37.2570    5.9270   -1.7840 C.3    32  PRO32       0.0282
     30  CG        37.8450    7.2410   -1.2750 C.3    32  PRO32       0.0208
     31  CD        37.0410    8.2720   -1.9520 C.3    32  PRO32       0.0893
     32  N         36.0810    4.3340   -4.4490 N.am   33  TYR33      -0.1977
     33  CA        34.9930    3.5580   -5.0030 C.3    33  TYR33       0.1639
     34  C         35.2870    2.0750   -4.8940 C.2    33  TYR33       0.2290
     35  O         36.4140    1.6380   -4.5790 O.2    33  TYR33      -0.2864
     36  CB        34.7120    3.9620   -6.4620 C.3    33  TYR33       0.0560
     37  CG        35.7470    3.4750   -7.3960 C.ar   33  TYR33      -0.0198
     38  CD1       35.6610    2.2090   -7.9790 C.ar   33  TYR33      -0.0009
     39  CD2       36.8650    4.2350   -7.6970 C.ar   33  TYR33      -0.0009
     40  CE1       36.6750    1.7460   -8.8330 C.ar   33  TYR33       0.0417
     41  CE2       37.8580    3.7890   -8.5240 C.ar   33  TYR33       0.0417
     42  CZ        37.7770    2.5210   -9.0790 C.ar   33  TYR33       0.1957
     43  OH        38.7890    2.0270   -9.9170 O.3    33  TYR33      -0.2866
     44  N         32.8070   -2.0020   -5.3660 N.3    35  GLY35      -0.1210
     45  CA        31.5530   -2.6490   -5.7190 C.3    35  GLY35       0.1956
     46  C         31.7480   -4.1060   -6.0430 C.2    35  GLY35       0.2611
     47  O         32.8060   -4.5460   -6.5070 O.2    35  GLY35      -0.2717
     48  N         30.6940   -4.8490   -5.8510 N.am   36  TRP36      -0.1976
     49  CA        30.6490   -6.2630   -6.1790 C.3    36  TRP36       0.1640
     50  C         30.1020   -6.4550   -7.5770 C.2    36  TRP36       0.2290
     51  O         29.0840   -5.8960   -7.9470 O.2    36  TRP36      -0.2864
     52  CB        29.7360   -6.9640   -5.1940 C.3    36  TRP36       0.0576
     53  CG        30.3120   -6.9440   -3.8120 C.ar   36  TRP36       0.0006
     54  CD1       30.0020   -6.0590   -2.8010 C.ar   36  TRP36       0.0946
     55  CD2       31.3090   -7.8240   -3.2750 C.ar   36  TRP36       0.0152
     56  NE1       30.7420   -6.3530   -1.6400 N.ar   36  TRP36      -0.2442
     57  CE2       31.5330   -7.4460   -1.9140 C.ar   36  TRP36       0.0810
     58  CE3       31.9700   -8.9370   -3.7850 C.ar   36  TRP36       0.0012
     59  CZ2       32.4290   -8.1340   -1.0910 C.ar   36  TRP36       0.0191
     60  CZ3       32.8910   -9.5920   -2.9790 C.ar   36  TRP36       0.0001
     61  CH2       33.1150   -9.1860   -1.6590 C.ar   36  TRP36       0.0015
     62  N         35.2600   -6.0080   -6.9560 N.3    55  GLN55      -0.1245
     63  CA        35.4220   -7.3070   -6.2960 C.3    55  GLN55       0.1566
     64  C         34.4390   -8.3180   -6.8850 C.2    55  GLN55       0.2260
     65  O         33.2450   -8.0570   -6.9870 O.2    55  GLN55      -0.2867
     66  CB        35.1370   -7.1030   -4.8020 C.3    55  GLN55       0.0367
     67  CG        36.0950   -6.0490   -4.0770 C.3    55  GLN55       0.0905
     68  CD        35.8990   -4.5020   -4.4070 C.2    55  GLN55       0.2608
     69  OE1       34.8130   -3.9460   -4.2630 O.2    55  GLN55      -0.2717
     70  NE2       37.0050   -3.8200   -4.7700 N.am   55  GLN55      -0.0878
     71  N         26.2590   -4.1060    1.5110 N.3    71  ASP71      -0.1239
     72  CA        27.5850   -3.6540    1.8720 C.3    71  ASP71       0.1674
     73  C         27.7580   -2.1250    1.6550 C.2    71  ASP71       0.2266
     74  O         28.8420   -1.6780    1.2220 O.2    71  ASP71      -0.2867
     75  CB        28.5890   -4.4380    1.0210 C.3    71  ASP71       0.1410
     76  CG        29.9790   -4.5420    1.6250 C.2    71  ASP71       0.3668
     77  OD1       30.1740   -4.1880    2.8110 O.co2  71  ASP71      -0.2456
     78  OD2       30.9100   -4.9890    0.8900 O.co2  71  ASP71      -0.2456
     79  N         28.9570    5.5530    2.6770 N.3   129  VAL129     -0.1245
     80  CA        29.2050    4.5850    1.6240 C.3   129  VAL129      0.1561
     81  C         27.8930    4.4460    0.8640 C.2   129  VAL129      0.2260
     82  O         26.8790    3.9350    1.4280 O.2   129  VAL129     -0.2867
     83  CB        29.6620    3.2370    2.1680 C.3   129  VAL129      0.0252
     84  CG1       29.8740    2.2480    1.0100 C.3   129  VAL129      0.0019
     85  CG2       30.9800    3.3780    3.0230 C.3   129  VAL129      0.0019
@<TRIPOS>BOND
     1    43    42    1
     2    42    40   ar
     3    42    41   ar
     4    40    38   ar
     5    41    39   ar
     6    38    37   ar
     7    51    50    2
     8    39    37   ar
     9    50    49    1
    10    37    36    1
    11    65    64    2
    12    62    63    1
    13    64    63    1
    14    47    46    2
    15    36    33    1
    16    63    66    1
    17    49    48    1
    18    49    52    1
    19    19    20    2
    20    19    18    1
    21    46    48   am
    22    46    45    1
    23    45    44    1
    24    52    53    1
    25    18    17    1
    26    18    21    1
    27    33    34    1
    28    33    32    1
    29    34    35    2
    30    66    67    1
    31    70    68   am
    32    32    27   am
    33    68    69    2
    34    68    67    1
    35    21    22    1
    36    21    23    1
    37    53    55   ar
    38    53    54   ar
    39    27    28    2
    40    27    26    1
    41    58    55   ar
    42    58    60   ar
    43    25    26    1
    44    25    31    1
    45    55    57   ar
    46    26    29    1
    47    22    24    1
    48    60    61   ar
    49    54    56   ar
    50    31    30    1
    51    57    56   ar
    52    57    59   ar
    53    10    11    2
    54    10     9    1
    55    29    30    1
    56    61    59   ar
    57    15    16    1
    58    15    14    1
    59    13    14    1
    60    13    12    1
    61     9    12    1
    62     9     8    1
    63     8     3   am
    64     4     3    2
    65     3     2    1
    66    81    82    2
    67    81    80    1
    68    78    76   ar
    69    84    83    1
    70    75    76    1
    71    75    72    1
    72    74    73    2
    73    71    72    1
    74     1     2    1
    75    80    83    1
    76    80    79    1
    77    76    77   ar
    78     2     5    1
    79    73    72    1
    80    83    85    1
    81     5     6    1
    82     5     7    1
