@<TRIPOS>MOLECULE
tmp/3immC00.pdb
 101 99 0 0 0
SMALL
GASTEIGER

@<TRIPOS>ATOM
      1  N         21.6230  -15.5910   43.8280 N.3    58  ASN58      -0.1240
      2  CA        20.8670  -14.4710   44.3490 C.3    58  ASN58       0.1653
      3  C         19.4170  -14.8470   44.4110 C.2    58  ASN58       0.2266
      4  O         18.6080  -14.4700   43.5620 O.2    58  ASN58      -0.2867
      5  CB        21.0930  -13.1820   43.5510 C.3    58  ASN58       0.1155
      6  CG        20.3220  -11.9650   44.1300 C.2    58  ASN58       0.2627
      7  OD1       19.4850  -12.0930   45.0290 O.2    58  ASN58      -0.2716
      8  ND2       20.6020  -10.7840   43.5850 N.am   58  ASN58      -0.0877
      9  N          4.7830   -9.4970   43.5950 N.3    71  TRP71      -0.1227
     10  CA         5.2940   -9.7570   44.9360 C.3    71  TRP71       0.1737
     11  C          6.2890   -8.7430   45.3890 C.2    71  TRP71       0.2595
     12  O          6.4370   -8.5090   46.6060 O.2    71  TRP71      -0.2718
     13  CB         5.8810  -11.1790   45.0630 C.3    71  TRP71       0.0564
     14  CG         7.0890  -11.4550   44.2260 C.ar   71  TRP71       0.0003
     15  CD1        7.1150  -12.0200   43.0050 C.ar   71  TRP71       0.0946
     16  CD2        8.4480  -11.2130   44.5850 C.ar   71  TRP71       0.0152
     17  NE1        8.4010  -12.0970   42.5420 N.ar   71  TRP71      -0.2442
     18  CE2        9.2400  -11.6130   43.5040 C.ar   71  TRP71       0.0810
     19  CE3        9.0650  -10.6530   45.6980 C.ar   71  TRP71       0.0012
     20  CZ2       10.6120  -11.5160   43.5190 C.ar   71  TRP71       0.0191
     21  CZ3       10.4210  -10.5340   45.7040 C.ar   71  TRP71       0.0001
     22  CH2       11.1850  -10.9550   44.6220 C.ar   71  TRP71       0.0015
     23  N          6.9820   -8.1370   44.4360 N.am   72  ILE72      -0.1980
     24  CA         8.1330   -7.3040   44.7870 C.3    72  ILE72       0.1595
     25  C          7.7630   -6.1840   45.7910 C.2    72  ILE72       0.2287
     26  O          8.4010   -6.0720   46.8300 O.2    72  ILE72      -0.2864
     27  CB         8.9100   -6.7860   43.5450 C.3    72  ILE72       0.0276
     28  CG1        9.5460   -7.9600   42.8020 C.3    72  ILE72       0.0022
     29  CG2       10.0210   -5.7580   43.9770 C.3    72  ILE72       0.0022
     30  CD1       10.3590   -7.6260   41.5920 C.3    72  ILE72       0.0001
     31  N         11.5750   -9.3860   51.6560 N.3    77  GLU77      -0.1245
     32  CA        12.5270  -10.3340   51.0810 C.3    77  GLU77       0.1567
     33  C         13.7910  -10.4950   51.9370 C.2    77  GLU77       0.2260
     34  O         14.5470   -9.5350   52.1320 O.2    77  GLU77      -0.2867
     35  CB        12.9410   -9.8520   49.6880 C.3    77  GLU77       0.0388
     36  CG        14.0690  -10.6570   49.0260 C.3    77  GLU77       0.1160
     37  CD        14.3620  -10.1870   47.6320 C.2    77  GLU77       0.3649
     38  OE1       13.9850   -9.0430   47.2940 O.co2  77  GLU77      -0.2457
     39  OE2       14.9900  -10.9610   46.8720 O.co2  77  GLU77      -0.2457
     40  N         17.3060  -11.8350   51.8400 N.3    79  GLN79      -0.1245
     41  CA        18.2710  -12.2080   50.8160 C.3    79  GLN79       0.1566
     42  C         18.9260  -13.5670   51.0880 C.2    79  GLN79       0.2260
     43  O         19.2880  -13.8680   52.2230 O.2    79  GLN79      -0.2867
     44  CB        19.3730  -11.1620   50.7570 C.3    79  GLN79       0.0367
     45  CG        19.1220  -10.0100   49.8800 C.3    79  GLN79       0.0905
     46  CD        19.0920  -10.4080   48.4220 C.2    79  GLN79       0.2608
     47  OE1       18.0920  -10.9020   47.9410 O.2    79  GLN79      -0.2717
     48  NE2       20.1960  -10.2470   47.7380 N.am   79  GLN79      -0.0878
     49  N         16.2480   -7.2910   51.9800 N.3   101  TYR101     -0.1241
     50  CA        16.6230   -6.5840   50.7500 C.3   101  TYR101      0.1605
     51  C         16.0900   -5.1450   50.7100 C.2   101  TYR101      0.2264
     52  O         14.9050   -4.8770   50.9600 O.2   101  TYR101     -0.2867
     53  CB        16.2460   -7.3440   49.4550 C.3   101  TYR101      0.0534
     54  CG        16.6870   -6.5900   48.2190 C.ar  101  TYR101     -0.0201
     55  CD1       17.9230   -6.8040   47.6450 C.ar  101  TYR101     -0.0009
     56  CD2       15.8740   -5.6030   47.6680 C.ar  101  TYR101     -0.0009
     57  CE1       18.3450   -6.0620   46.5160 C.ar  101  TYR101      0.0417
     58  CE2       16.2750   -4.8500   46.5540 C.ar  101  TYR101      0.0417
     59  CZ        17.5020   -5.0850   45.9780 C.ar  101  TYR101      0.1957
     60  OH        17.8620   -4.3310   44.8920 O.3   101  TYR101     -0.2866
     61  N         11.8680    1.3910   43.4890 N.3   158  TRP158     -0.1227
     62  CA        10.7240    0.5550   43.1370 C.3   158  TRP158      0.1737
     63  C         10.0710   -0.0360   44.3880 C.2   158  TRP158      0.2595
     64  O          9.0660   -0.7390   44.2850 O.2   158  TRP158     -0.2718
     65  CB        11.1550   -0.5440   42.1700 C.3   158  TRP158      0.0564
     66  CG        12.1920   -1.4770   42.6840 C.ar  158  TRP158      0.0003
     67  CD1       11.9750   -2.6400   43.3470 C.ar  158  TRP158      0.0946
     68  CD2       13.6160   -1.3690   42.5210 C.ar  158  TRP158      0.0152
     69  NE1       13.1640   -3.2420   43.6370 N.ar  158  TRP158     -0.2442
     70  CE2       14.1880   -2.4700   43.1560 C.ar  158  TRP158      0.0810
     71  CE3       14.4580   -0.4180   41.9480 C.ar  158  TRP158      0.0012
     72  CZ2       15.5810   -2.6670   43.1980 C.ar  158  TRP158      0.0191
     73  CZ3       15.8040   -0.6160   41.9810 C.ar  158  TRP158      0.0001
     74  CH2       16.3570   -1.7310   42.5990 C.ar  158  TRP158      0.0015
     75  N         10.6320    0.2940   45.5630 N.am  159  LEU159     -0.1980
     76  CA        10.1270   -0.1320   46.8810 C.3   159  LEU159      0.1596
     77  C          9.7010    1.0320   47.7930 C.2   159  LEU159      0.2287
     78  O         10.2220    1.1730   48.9300 O.2   159  LEU159     -0.2864
     79  CB        11.2140   -0.9570   47.5810 C.3   159  LEU159      0.0297
     80  CG        11.7190   -2.2230   46.8640 C.3   159  LEU159      0.0022
     81  CD1       12.8490   -2.8460   47.6400 C.3   159  LEU159      0.0001
     82  CD2       10.5610   -3.2050   46.7600 C.3   159  LEU159      0.0001
     83  N         12.7230  -18.0500   46.0630 N.3   175  GLN175     -0.1245
     84  CA        13.0960  -17.6160   44.7270 C.3   175  GLN175      0.1566
     85  C         13.9550  -18.6640   44.0240 C.2   175  GLN175      0.2260
     86  O         14.6740  -19.4510   44.6580 O.2   175  GLN175     -0.2867
     87  CB        13.8230  -16.2410   44.7830 C.3   175  GLN175      0.0367
     88  CG        12.9180  -15.1200   45.2460 C.3   175  GLN175      0.0905
     89  CD        13.6540  -13.7710   45.4580 C.2   175  GLN175      0.2608
     90  OE1       14.2600  -13.2510   44.5490 O.2   175  GLN175     -0.2717
     91  NE2       13.5490  -13.2160   46.6360 N.am  175  GLN175     -0.0878
     92  N         18.7310  -17.3850   39.4200 N.3   178  HIS178     -0.1241
     93  CA        18.9790  -15.9920   39.0830 C.3   178  HIS178      0.1621
     94  C         20.1650  -15.9470   38.1390 C.2   178  HIS178      0.2264
     95  O         21.3030  -16.1780   38.5530 O.2   178  HIS178     -0.2867
     96  CB        19.2640  -15.2070   40.3530 C.3   178  HIS178      0.0745
     97  CG        19.4080  -13.7380   40.1320 C.ar  178  HIS178      0.0817
     98  ND1       18.4180  -12.8400   40.4730 N.ar  178  HIS178     -0.2268
     99  CD2       20.4230  -13.0100   39.6090 C.ar  178  HIS178      0.1154
    100  CE1       18.8230  -11.6200   40.1740 C.ar  178  HIS178      0.1986
    101  NE2       20.0320  -11.6970   39.6450 N.ar  178  HIS178     -0.2212
@<TRIPOS>BOND
     1    94    95    2
     2    94    93    1
     3    93    92    1
     4    93    96    1
     5    99   101   ar
     6    99    97   ar
     7   101   100   ar
     8    97    96    1
     9    97    98   ar
    10   100    98   ar
    11    30    28    1
    12    71    73   ar
    13    71    68   ar
    14    73    74   ar
    15    65    66    1
    16    65    62    1
    17    68    66   ar
    18    68    70   ar
    19    17    15   ar
    20    17    18   ar
    21    74    72   ar
    22    66    67   ar
    23    28    27    1
    24    15    14   ar
    25    62    61    1
    26    62    63    1
    27    70    72   ar
    28    70    69   ar
    29    67    69   ar
    30    18    20   ar
    31    18    16   ar
    32    20    22   ar
    33    27    29    1
    34    27    24    1
    35     5     6    1
    36     5     2    1
    37     4     3    2
    38     8     6   am
    39     9    10    1
    40     1     2    1
    41    85    86    2
    42    85    84    1
    43     6     7    2
    44    14    16   ar
    45    14    13    1
    46    64    63    2
    47     2     3    1
    48    63    75   am
    49    23    24    1
    50    23    11   am
    51    90    89    2
    52    16    19   ar
    53    22    21   ar
    54    84    87    1
    55    84    83    1
    56    87    88    1
    57    24    25    1
    58    60    59    1
    59    10    13    1
    60    10    11    1
    61    88    89    1
    62    11    12    2
    63    89    91   am
    64    75    76    1
    65    19    21   ar
    66    25    26    2
    67    59    57   ar
    68    59    58   ar
    69    57    55   ar
    70    58    56   ar
    71    82    80    1
    72    80    79    1
    73    80    81    1
    74    39    37   ar
    75    76    79    1
    76    76    77    1
    77    38    37   ar
    78    37    36    1
    79    55    54   ar
    80    56    54   ar
    81    48    46   am
    82    77    78    2
    83    47    46    2
    84    54    53    1
    85    46    45    1
    86    36    35    1
    87    53    50    1
    88    35    32    1
    89    45    44    1
    90    51    50    1
    91    51    52    2
    92    50    49    1
    93    44    41    1
    94    41    42    1
    95    41    40    1
    96    32    31    1
    97    32    33    1
    98    42    43    2
    99    33    34    2
