@<TRIPOS>MOLECULE
tmp/3imrA00.pdb
 69 63 0 0 0
SMALL
GASTEIGER

@<TRIPOS>ATOM
      1  N         -1.0730   -7.6420   -2.8830 N.3     5  LYS5       -0.1245
      2  CA        -2.0730   -6.5630   -2.8250 C.3     5  LYS5        0.1561
      3  C         -2.7620   -6.4340   -4.1840 C.2     5  LYS5        0.2260
      4  O         -2.0750   -6.4730   -5.2140 O.2     5  LYS5       -0.2867
      5  CB        -1.4380   -5.2760   -2.4030 C.3     5  LYS5        0.0271
      6  CG        -2.3810   -4.0470   -2.3180 C.3     5  LYS5        0.0035
      7  CD        -1.9390   -3.0100   -1.3230 C.3     5  LYS5        0.0206
      8  CE        -3.1080   -2.1270   -0.8480 C.3     5  LYS5        0.1093
      9  NZ        -2.4540   -1.2280    0.1780 N.3     5  LYS5       -0.1314
     10  N         -5.8060   -4.3280   -6.4390 N.3     7  LEU7       -0.1245
     11  CA        -6.6860   -3.1470   -6.5650 C.3     7  LEU7        0.1561
     12  C         -7.5830   -3.3370   -7.7990 C.2     7  LEU7        0.2260
     13  O         -7.1950   -3.9810   -8.7930 O.2     7  LEU7       -0.2867
     14  CB        -5.8320   -1.8680   -6.6980 C.3     7  LEU7        0.0270
     15  CG        -4.9960   -1.4910   -5.4910 C.3     7  LEU7        0.0019
     16  CD1       -4.2340   -0.1820   -5.7790 C.3     7  LEU7        0.0001
     17  CD2       -5.8350   -1.3760   -4.2370 C.3     7  LEU7        0.0001
     18  N          6.5310   -7.7380   -1.9430 N.3    96  THR96      -0.1218
     19  CA         5.1280   -7.3540   -2.1810 C.3    96  THR96       0.1862
     20  C          4.8220   -7.4500   -3.6320 C.2    96  THR96       0.2287
     21  O          5.5250   -6.8480   -4.4680 O.2    96  THR96      -0.2866
     22  CB         4.8220   -5.9210   -1.6780 C.3    96  THR96       0.1770
     23  OG1        5.0670   -5.8350   -0.2640 O.3    96  THR96      -0.2211
     24  CG2        3.4060   -5.5820   -1.9470 C.3    96  THR96       0.0375
     25  N          2.0100   -6.6390   -6.2160 N.3    98  ALA98      -0.1231
     26  CA         0.8340   -5.7720   -6.3380 C.3    98  ALA98       0.1694
     27  C          0.2650   -5.9160   -7.7370 C.2    98  ALA98       0.2592
     28  O          1.0220   -6.0330   -8.7330 O.2    98  ALA98      -0.2718
     29  CB         1.2230   -4.3540   -6.0590 C.3    98  ALA98       0.0304
     30  N         -1.0560   -5.9530   -7.8420 N.am   99  ALA99      -0.1966
     31  CA        -1.7130   -6.0600   -9.1400 C.3    99  ALA99       0.1728
     32  C         -2.8870   -5.0790   -9.1690 C.2    99  ALA99       0.2616
     33  O         -3.6320   -4.9240   -8.1870 O.2    99  ALA99      -0.2715
     34  CB        -2.2390   -7.4540   -9.4060 C.3    99  ALA99       0.0334
     35  N         -3.0160   -4.4300  -10.3170 N.am  100  LEU100     -0.1977
     36  CA        -4.1330   -3.5170  -10.6090 C.3   100  LEU100      0.1596
     37  C         -4.9190   -4.1010  -11.7590 C.2   100  LEU100      0.2287
     38  O         -4.3820   -4.3510  -12.8440 O.2   100  LEU100     -0.2864
     39  CB        -3.5840   -2.1660  -11.0080 C.3   100  LEU100      0.0297
     40  CG        -4.5650   -1.1020  -11.4670 C.3   100  LEU100      0.0022
     41  CD1       -5.4580   -0.7940  -10.3140 C.3   100  LEU100      0.0001
     42  CD2       -3.8020    0.1410  -11.9790 C.3   100  LEU100      0.0001
     43  N         -1.9740   -4.8140  -14.5440 N.3   107  SER107     -0.1202
     44  CA        -0.5730   -4.4720  -14.3760 C.3   107  SER107      0.2020
     45  C         -0.1080   -5.0010  -13.0590 C.2   107  SER107      0.2619
     46  O         -0.8550   -5.1320  -12.1150 O.2   107  SER107     -0.2717
     47  CB        -0.3410   -2.9690  -14.4780 C.3   107  SER107      0.2103
     48  OG        -0.6800   -2.3310  -13.2820 O.3   107  SER107     -0.2182
     49  N          1.1440   -5.3920  -13.0100 N.am  108  THR108     -0.1938
     50  CA         1.6750   -5.9010  -11.7900 C.3   108  THR108      0.2028
     51  C          3.0530   -5.3310  -11.5510 C.2   108  THR108      0.2642
     52  O          3.8030   -5.0940  -12.4970 O.2   108  THR108     -0.2714
     53  CB         1.7080   -7.4580  -11.8100 C.3   108  THR108      0.1808
     54  OG1        2.1410   -7.9740  -10.5570 O.3   108  THR108     -0.2208
     55  CG2        2.6510   -7.9700  -12.8890 C.3   108  THR108      0.0379
     56  N          3.3980   -5.1660  -10.3030 N.am  109  THR109     -0.1950
     57  CA         4.7660   -4.7570   -9.9240 C.3   109  THR109      0.1897
     58  C          5.1840   -5.4910   -8.6770 C.2   109  THR109      0.2313
     59  O          4.3870   -6.1170   -7.9790 O.2   109  THR109     -0.2863
     60  CB         4.8930   -3.2340   -9.7410 C.3   109  THR109      0.1794
     61  OG1        6.2620   -2.7930   -9.7640 O.3   109  THR109     -0.2208
     62  CG2        4.1960   -2.7240   -8.4840 C.3   109  THR109      0.0378
     63  N          7.6770   -5.0000   -5.1810 N.3   111  VAL111     -0.1245
     64  CA         8.5000   -4.2030   -4.2580 C.3   111  VAL111      0.1561
     65  C          9.2750   -5.1970   -3.4460 C.2   111  VAL111      0.2260
     66  O          8.7000   -6.0720   -2.7260 O.2   111  VAL111     -0.2867
     67  CB         7.6650   -3.3210   -3.3360 C.3   111  VAL111      0.0252
     68  CG1        8.5690   -2.5230   -2.3690 C.3   111  VAL111      0.0019
     69  CG2        6.8180   -2.3520   -4.1700 C.3   111  VAL111      0.0019
@<TRIPOS>BOND
     1    43    44    1
     2    47    44    1
     3    47    48    1
     4    44    45    1
     5    45    49   am
     6    45    46    2
     7    49    50    1
     8    55    53    1
     9    38    37    2
    10    52    51    2
    11    42    40    1
    12    53    50    1
    13    53    54    1
    14    50    51    1
    15    37    36    1
    16    51    56   am
    17    40    39    1
    18    40    41    1
    19    39    36    1
    20    36    35    1
    21    35    32   am
    22    56    57    1
    23    57    60    1
    24    57    58    1
    25    61    60    1
    26    60    62    1
    27    34    31    1
    28    32    31    1
    29    32    33    2
    30    31    30    1
    31    13    12    2
    32    28    27    2
    33    58    59    2
    34    30    27   am
    35    12    11    1
    36    27    26    1
    37    14    11    1
    38    14    15    1
    39    11    10    1
    40    26    25    1
    41    26    29    1
    42    16    15    1
    43    15    17    1
    44     4     3    2
    45    63    64    1
    46    21    20    2
    47    64    65    1
    48    64    67    1
    49     3     2    1
    50    69    67    1
    51    20    19    1
    52    65    66    2
    53    67    68    1
    54     1     2    1
    55     2     5    1
    56     5     6    1
    57     6     7    1
    58    19    18    1
    59    19    22    1
    60    24    22    1
    61    22    23    1
    62     7     8    1
    63     8     9    1
