@<TRIPOS>MOLECULE
tmp/3imtA00.pdb
 77 70 0 0 0
SMALL
GASTEIGER

@<TRIPOS>ATOM
      1  N          3.8580  -10.7670    0.6770 N.3     3  MET3       -0.1245
      2  CA         2.5510  -10.1260    0.8100 C.3     3  MET3        0.1570
      3  C          2.0310   -9.8450   -0.5820 C.2     3  MET3        0.2261
      4  O          2.7870   -9.4930   -1.4800 O.2     3  MET3       -0.2867
      5  CB         2.6630   -8.8260    1.6480 C.3     3  MET3        0.0387
      6  CG         1.3170   -8.1520    2.0420 C.3     3  MET3        0.0595
      7  SD         0.5770   -7.0180    0.8720 S.3     3  MET3       -0.1393
      8  CE         1.4050   -5.5020    1.3540 C.3     3  MET3        0.0692
      9  N         -1.0330   -7.6570   -2.6380 N.3     5  LYS5       -0.1245
     10  CA        -2.0120   -6.5920   -2.5620 C.3     5  LYS5        0.1561
     11  C         -2.6710   -6.4350   -3.9350 C.2     5  LYS5        0.2260
     12  O         -2.0010   -6.3590   -4.9590 O.2     5  LYS5       -0.2867
     13  CB        -1.3800   -5.2700   -2.1390 C.3     5  LYS5        0.0271
     14  CG        -2.4150   -4.1630   -1.9480 C.3     5  LYS5        0.0035
     15  CD        -1.8540   -3.0340   -1.0820 C.3     5  LYS5        0.0206
     16  CE        -2.9260   -1.9940   -0.7490 C.3     5  LYS5        0.1093
     17  NZ        -2.4640   -1.1200    0.3590 N.3     5  LYS5       -0.1314
     18  N         -5.7840   -4.3340   -6.1750 N.3     7  LEU7       -0.1245
     19  CA        -6.6550   -3.1480   -6.3130 C.3     7  LEU7        0.1561
     20  C         -7.5110   -3.3000   -7.5730 C.2     7  LEU7        0.2260
     21  O         -7.1240   -3.9270   -8.5330 O.2     7  LEU7       -0.2867
     22  CB        -5.7960   -1.8920   -6.4060 C.3     7  LEU7        0.0270
     23  CG        -4.9000   -1.6020   -5.2110 C.3     7  LEU7        0.0019
     24  CD1       -4.0510   -0.3630   -5.4600 C.3     7  LEU7        0.0001
     25  CD2       -5.7200   -1.4380   -3.9700 C.3     7  LEU7        0.0001
     26  N          6.5850   -7.6580   -1.7120 N.3    96  THR96      -0.1218
     27  CA         5.1960   -7.3410   -1.9470 C.3    96  THR96       0.1862
     28  C          4.9210   -7.4070   -3.4180 C.2    96  THR96       0.2287
     29  O          5.5830   -6.7430   -4.1940 O.2    96  THR96      -0.2866
     30  CB         4.8800   -5.9310   -1.4460 C.3    96  THR96       0.1770
     31  OG1        5.1030   -5.8480   -0.0510 O.3    96  THR96      -0.2211
     32  CG2        3.4110   -5.5120   -1.7080 C.3    96  THR96       0.0375
     33  N          2.0550   -6.4650   -5.9340 N.3    98  ALA98      -0.1231
     34  CA         0.8470   -5.6490   -6.0510 C.3    98  ALA98       0.1694
     35  C          0.3210   -5.8300   -7.4580 C.2    98  ALA98       0.2592
     36  O          1.0890   -5.9380   -8.4500 O.2    98  ALA98      -0.2718
     37  CB         1.1410   -4.1870   -5.7910 C.3    98  ALA98       0.0304
     38  N         -0.9940   -5.8820   -7.5820 N.am   99  ALA99      -0.1966
     39  CA        -1.6800   -6.0070   -8.8680 C.3    99  ALA99       0.1728
     40  C         -2.8610   -5.0620   -8.9210 C.2    99  ALA99       0.2616
     41  O         -3.5600   -4.8700   -7.9300 O.2    99  ALA99      -0.2715
     42  CB        -2.1780   -7.4420   -9.0360 C.3    99  ALA99       0.0334
     43  N         -3.0630   -4.4940  -10.0830 N.am  100  LEU100     -0.1977
     44  CA        -4.1590   -3.5330  -10.3580 C.3   100  LEU100      0.1596
     45  C         -4.9710   -4.1280  -11.5110 C.2   100  LEU100      0.2287
     46  O         -4.4230   -4.4160  -12.5900 O.2   100  LEU100     -0.2864
     47  CB        -3.5380   -2.1920  -10.7930 C.3   100  LEU100      0.0297
     48  CG        -4.5130   -1.0990  -11.1530 C.3   100  LEU100      0.0022
     49  CD1       -5.4730   -0.7350   -9.9900 C.3   100  LEU100      0.0001
     50  CD2       -3.7190    0.1170  -11.6330 C.3   100  LEU100      0.0001
     51  N         -2.0190   -4.9470  -14.2990 N.3   107  SER107     -0.1202
     52  CA        -0.6440   -4.4850  -14.0590 C.3   107  SER107      0.2020
     53  C         -0.1520   -5.0720  -12.7780 C.2   107  SER107      0.2619
     54  O         -0.9330   -5.2160  -11.8340 O.2   107  SER107     -0.2717
     55  CB        -0.5890   -2.9610  -13.9170 C.3   107  SER107      0.2103
     56  OG         0.7670   -2.4620  -13.7790 O.3   107  SER107     -0.2182
     57  N          1.1340   -5.3620  -12.7270 N.am  108  THR108     -0.1938
     58  CA         1.7090   -5.8630  -11.4930 C.3   108  THR108      0.2028
     59  C          3.0680   -5.2470  -11.2710 C.2   108  THR108      0.2642
     60  O          3.7840   -4.9740  -12.2430 O.2   108  THR108     -0.2714
     61  CB         1.8280   -7.3730  -11.5450 C.3   108  THR108      0.1808
     62  OG1        2.2250   -7.8940  -10.3250 O.3   108  THR108     -0.2208
     63  CG2        2.8250   -7.8430  -12.4950 C.3   108  THR108      0.0379
     64  N          3.3950   -5.0400  -10.0110 N.am  109  THR109     -0.1950
     65  CA         4.7470   -4.5910   -9.6470 C.3   109  THR109      0.1897
     66  C          5.1810   -5.3080   -8.3840 C.2   109  THR109      0.2313
     67  O          4.3640   -5.8700   -7.6500 O.2   109  THR109     -0.2863
     68  CB         4.8370   -3.0590   -9.4650 C.3   109  THR109      0.1794
     69  OG1        6.2100   -2.6810   -9.5400 O.3   109  THR109     -0.2208
     70  CG2        4.2130   -2.5750   -8.1920 C.3   109  THR109      0.0378
     71  N          7.6690   -4.9130   -4.9080 N.3   111  VAL111     -0.1245
     72  CA         8.4440   -4.0960   -3.9600 C.3   111  VAL111      0.1561
     73  C          9.2500   -5.0750   -3.1390 C.2   111  VAL111      0.2260
     74  O          8.6970   -5.9040   -2.4130 O.2   111  VAL111     -0.2867
     75  CB         7.5570   -3.2320   -3.0680 C.3   111  VAL111      0.0252
     76  CG1        8.4360   -2.3410   -2.1270 C.3   111  VAL111      0.0019
     77  CG2        6.5780   -2.3830   -3.8850 C.3   111  VAL111      0.0019
@<TRIPOS>BOND
     1    51    52    1
     2    52    55    1
     3    52    53    1
     4    55    56    1
     5    53    57   am
     6    53    54    2
     7    57    58    1
     8    46    45    2
     9    63    61    1
    10    60    59    2
    11    50    48    1
    12    61    58    1
    13    61    62    1
    14    45    44    1
    15    58    59    1
    16    59    64   am
    17    48    47    1
    18    48    49    1
    19    47    44    1
    20    44    43    1
    21    43    40   am
    22    64    65    1
    23    65    68    1
    24    65    66    1
    25    69    68    1
    26    68    70    1
    27    42    39    1
    28    40    39    1
    29    40    41    2
    30    39    38    1
    31    21    20    2
    32    36    35    2
    33    66    67    2
    34    38    35   am
    35    20    19    1
    36    35    34    1
    37    22    19    1
    38    22    23    1
    39    19    18    1
    40    34    33    1
    41    34    37    1
    42    24    23    1
    43    23    25    1
    44    12    11    2
    45    71    72    1
    46    29    28    2
    47    72    73    1
    48    72    75    1
    49    11    10    1
    50    77    75    1
    51    28    27    1
    52    73    74    2
    53    75    76    1
    54     9    10    1
    55    10    13    1
    56    13    14    1
    57    14    15    1
    58    27    26    1
    59    27    30    1
    60    32    30    1
    61     4     3    2
    62    30    31    1
    63    15    16    1
    64    16    17    1
    65     3     2    1
    66     1     2    1
    67     2     5    1
    68     7     8    1
    69     7     6    1
    70     5     6    1
