@<TRIPOS>MOLECULE
tmp/3imuB00.pdb
 86 78 0 0 0
SMALL
GASTEIGER

@<TRIPOS>ATOM
      1  N         -1.9870  -11.2940  -32.6570 N.3     3  MET3       -0.1245
      2  CA        -0.7760  -10.4610  -32.7370 C.3     3  MET3        0.1570
      3  C         -0.3280  -10.1750  -31.3210 C.2     3  MET3        0.2261
      4  O         -1.1430  -10.0990  -30.4190 O.2     3  MET3       -0.2867
      5  CB        -0.9940   -9.1000  -33.4540 C.3     3  MET3        0.0387
      6  CG         0.3430   -8.3270  -33.8330 C.3     3  MET3        0.0595
      7  SD         0.8580   -6.7950  -32.9560 S.3     3  MET3       -0.1393
      8  CE        -0.5760   -5.7190  -33.1010 C.3     3  MET3        0.0692
      9  N          2.3230   -7.4560  -29.2280 N.3     5  LYS5       -0.1245
     10  CA         3.0830   -6.1930  -29.3120 C.3     5  LYS5        0.1561
     11  C          3.6900   -5.9430  -27.9270 C.2     5  LYS5        0.2260
     12  O          2.9890   -5.9970  -26.9070 O.2     5  LYS5       -0.2867
     13  CB         2.1910   -5.0030  -29.6860 C.3     5  LYS5        0.0271
     14  CG         3.0080   -3.6740  -29.6560 C.3     5  LYS5        0.0035
     15  CD         2.6570   -2.6960  -30.7770 C.3     5  LYS5        0.0206
     16  CE         3.6670   -1.5370  -30.8480 C.3     5  LYS5        0.1093
     17  NZ         4.4200   -1.4540  -32.1430 N.3     5  LYS5       -0.1314
     18  N          6.3770   -3.4450  -25.6580 N.3     7  LEU7       -0.1245
     19  CA         7.0240   -2.1430  -25.5020 C.3     7  LEU7        0.1561
     20  C          7.8870   -2.0930  -24.2470 C.2     7  LEU7        0.2260
     21  O          7.6380   -2.8150  -23.3030 O.2     7  LEU7       -0.2867
     22  CB         5.9650   -1.0280  -25.3770 C.3     7  LEU7        0.0270
     23  CG         5.0380   -0.8500  -26.5650 C.3     7  LEU7        0.0019
     24  CD1        3.9630    0.2170  -26.2540 C.3     7  LEU7        0.0001
     25  CD2        5.8440   -0.4610  -27.7760 C.3     7  LEU7        0.0001
     26  N          6.6750   -6.1750  -32.6530 N.3    44  GLU44      -0.1245
     27  CA         5.4910   -6.9260  -33.0030 C.3    44  GLU44       0.1567
     28  C          5.8240   -8.3030  -33.5060 C.2    44  GLU44       0.2260
     29  O          6.9020   -8.5880  -34.0570 O.2    44  GLU44      -0.2867
     30  CB         4.6980   -6.1640  -34.0950 C.3    44  GLU44       0.0388
     31  CG         4.1310   -4.8070  -33.6500 C.3    44  GLU44       0.1160
     32  CD         3.3780   -4.0530  -34.7610 C.2    44  GLU44       0.3649
     33  OE1        3.8170   -4.1080  -35.9300 O.co2  44  GLU44      -0.2457
     34  OE2        2.3530   -3.4060  -34.4520 O.co2  44  GLU44      -0.2457
     35  N         -5.1620   -8.6840  -30.1750 N.3    96  THR96      -0.1218
     36  CA        -3.8320   -8.1640  -29.9550 C.3    96  THR96       0.1862
     37  C         -3.5630   -8.2400  -28.4750 C.2    96  THR96       0.2287
     38  O         -4.3400   -7.7250  -27.6560 O.2    96  THR96      -0.2866
     39  CB        -3.6790   -6.7240  -30.4250 C.3    96  THR96       0.1770
     40  OG1       -3.8720   -6.6880  -31.8310 O.3    96  THR96      -0.2211
     41  CG2       -2.3390   -6.1610  -30.0820 C.3    96  THR96       0.0375
     42  N         -0.9800   -6.9650  -25.9350 N.3    98  ALA98      -0.1231
     43  CA         0.0900   -5.9930  -25.7470 C.3    98  ALA98       0.1694
     44  C          0.6620   -6.0530  -24.3490 C.2    98  ALA98       0.2592
     45  O         -0.0450   -6.3100  -23.4030 O.2    98  ALA98      -0.2718
     46  CB        -0.4190   -4.5570  -26.0830 C.3    98  ALA98       0.0304
     47  N          1.9490   -5.8230  -24.2620 N.am   99  ALA99      -0.1966
     48  CA         2.6530   -5.7830  -22.9650 C.3    99  ALA99       0.1728
     49  C          3.6360   -4.6420  -22.9280 C.2    99  ALA99       0.2616
     50  O          4.2570   -4.3300  -23.9200 O.2    99  ALA99      -0.2715
     51  CB         3.4110   -7.0580  -22.7230 C.3    99  ALA99       0.0334
     52  N          3.7030   -3.9790  -21.7870 N.am  100  LEU100     -0.1977
     53  CA         4.5690   -2.8520  -21.5220 C.3   100  LEU100      0.1596
     54  C          5.4740   -3.2390  -20.3740 C.2   100  LEU100      0.2287
     55  O          5.0190   -3.5040  -19.2620 O.2   100  LEU100     -0.2864
     56  CB         3.7300   -1.6340  -21.1690 C.3   100  LEU100      0.0297
     57  CG         4.4930   -0.3680  -20.7900 C.3   100  LEU100      0.0022
     58  CD1        5.4090    0.1250  -21.9110 C.3   100  LEU100      0.0001
     59  CD2        3.5030    0.7690  -20.3810 C.3   100  LEU100      0.0001
     60  N          2.7060   -4.4210  -17.5460 N.3   107  SER107     -0.1202
     61  CA         1.2710   -4.3430  -17.7720 C.3   107  SER107      0.2020
     62  C          0.9460   -4.9980  -19.0890 C.2   107  SER107      0.2619
     63  O          1.7840   -5.0850  -19.9950 O.2   107  SER107     -0.2717
     64  CB         0.7600   -2.9030  -17.7240 C.3   107  SER107      0.2103
     65  OG         1.4190   -2.0840  -18.6740 O.3   107  SER107     -0.2182
     66  N         -0.2600   -5.5370  -19.1450 N.am  108  THR108     -0.1938
     67  CA        -0.7170   -6.1560  -20.3510 C.3   108  THR108      0.2028
     68  C         -2.1830   -5.8220  -20.5690 C.2   108  THR108      0.2642
     69  O         -2.9570   -5.6780  -19.6360 O.2   108  THR108     -0.2714
     70  CB        -0.4750   -7.6700  -20.2900 C.3   108  THR108      0.1808
     71  OG1       -0.7620   -8.2700  -21.5250 O.3   108  THR108     -0.2208
     72  CG2       -1.3030   -8.3700  -19.2480 C.3   108  THR108      0.0379
     73  N         -2.5580   -5.7170  -21.8240 N.am  109  THR109     -0.1950
     74  CA        -3.9590   -5.4720  -22.2030 C.3   109  THR109      0.1897
     75  C         -4.2480   -6.2640  -23.4650 C.2   109  THR109      0.2313
     76  O         -3.3460   -6.7520  -24.1450 O.2   109  THR109     -0.2863
     77  CB        -4.2740   -3.9570  -22.3990 C.3   109  THR109      0.1794
     78  OG1       -5.6750   -3.7670  -22.3560 O.3   109  THR109     -0.2208
     79  CG2       -3.7110   -3.4160  -23.6380 C.3   109  THR109      0.0378
     80  N         -6.6190   -6.0560  -26.9820 N.3   111  VAL111     -0.1245
     81  CA        -7.4030   -5.2270  -27.9190 C.3   111  VAL111      0.1561
     82  C         -8.0360   -6.2350  -28.8480 C.2   111  VAL111      0.2260
     83  O         -7.3440   -6.9320  -29.6130 O.2   111  VAL111     -0.2867
     84  CB        -6.5210   -4.1820  -28.6790 C.3   111  VAL111      0.0252
     85  CG1       -7.3610   -3.2050  -29.4920 C.3   111  VAL111      0.0019
     86  CG2       -5.5930   -3.4660  -27.7080 C.3   111  VAL111      0.0019
@<TRIPOS>BOND
     1    33    32   ar
     2    32    34   ar
     3    32    31    1
     4    30    31    1
     5    30    27    1
     6    29    28    2
     7     6     5    1
     8     6     7    1
     9    28    27    1
    10     5     2    1
    11     8     7    1
    12    27    26    1
    13     2     1    1
    14     2     3    1
    15    17    16    1
    16    40    39    1
    17     3     4    2
    18    16    15    1
    19    15    14    1
    20    39    41    1
    21    39    36    1
    22    35    36    1
    23    36    37    1
    24    13    14    1
    25    13    10    1
    26    83    82    2
    27    85    84    1
    28    10     9    1
    29    10    11    1
    30    82    81    1
    31    84    81    1
    32    84    86    1
    33    37    38    2
    34    11    12    2
    35    81    80    1
    36    25    23    1
    37    23    24    1
    38    23    22    1
    39    46    43    1
    40    42    43    1
    41    43    44    1
    42    18    19    1
    43    19    22    1
    44    19    20    1
    45    44    47   am
    46    44    45    2
    47    47    48    1
    48    20    21    2
    49    76    75    2
    50    50    49    2
    51    79    77    1
    52    75    74    1
    53    48    49    1
    54    48    51    1
    55    49    52   am
    56    77    78    1
    57    77    74    1
    58    74    73    1
    59    58    57    1
    60    73    68   am
    61    52    53    1
    62    71    70    1
    63    53    56    1
    64    53    54    1
    65    56    57    1
    66    57    59    1
    67    68    67    1
    68    68    69    2
    69    54    55    2
    70    67    70    1
    71    67    66    1
    72    70    72    1
    73    63    62    2
    74    66    62   am
    75    62    61    1
    76    65    64    1
    77    61    64    1
    78    61    60    1
