@<TRIPOS>MOLECULE
tmp/3imvB00.pdb
 78 71 0 0 0
SMALL
GASTEIGER

@<TRIPOS>ATOM
      1  N          2.3080   -7.4350  -29.2600 N.3     5  LYS5       -0.1245
      2  CA         3.0380   -6.1740  -29.3440 C.3     5  LYS5        0.1561
      3  C          3.6930   -5.9620  -27.9630 C.2     5  LYS5        0.2260
      4  O          3.0050   -6.0500  -26.9280 O.2     5  LYS5       -0.2867
      5  CB         2.1070   -4.9840  -29.6510 C.3     5  LYS5        0.0271
      6  CG         2.9430   -3.6790  -29.7140 C.3     5  LYS5        0.0035
      7  CD         2.5230   -2.6580  -30.7810 C.3     5  LYS5        0.0206
      8  CE         3.5820   -1.5620  -30.9260 C.3     5  LYS5        0.1093
      9  NZ         4.3700   -1.6190  -32.1960 N.3     5  LYS5       -0.1314
     10  N          6.3940   -3.4260  -25.6790 N.3     7  LEU7       -0.1245
     11  CA         7.0170   -2.1140  -25.5370 C.3     7  LEU7        0.1561
     12  C          7.9010   -2.0810  -24.2960 C.2     7  LEU7        0.2260
     13  O          7.6540   -2.8060  -23.3350 O.2     7  LEU7       -0.2867
     14  CB         5.9520   -1.0230  -25.3930 C.3     7  LEU7        0.0270
     15  CG         5.0120   -0.8200  -26.5550 C.3     7  LEU7        0.0019
     16  CD1        3.9950    0.2690  -26.1880 C.3     7  LEU7        0.0001
     17  CD2        5.7960   -0.4940  -27.8100 C.3     7  LEU7        0.0001
     18  N          6.6600   -6.1660  -32.6780 N.3    44  GLU44      -0.1245
     19  CA         5.4790   -6.9240  -33.0160 C.3    44  GLU44       0.1567
     20  C          5.8040   -8.3060  -33.5220 C.2    44  GLU44       0.2260
     21  O          6.8880   -8.5760  -34.0840 O.2    44  GLU44      -0.2867
     22  CB         4.6740   -6.1520  -34.0870 C.3    44  GLU44       0.0388
     23  CG         4.0000   -4.8770  -33.5740 C.3    44  GLU44       0.1160
     24  CD         3.4150   -4.0020  -34.6960 C.2    44  GLU44       0.3649
     25  OE1        3.6870   -4.2830  -35.8820 O.co2  44  GLU44      -0.2457
     26  OE2        2.7060   -3.0180  -34.3820 O.co2  44  GLU44      -0.2457
     27  N         -5.1730   -8.6690  -30.2280 N.3    96  THR96      -0.1218
     28  CA        -3.8370   -8.1490  -29.9860 C.3    96  THR96       0.1862
     29  C         -3.5840   -8.2320  -28.5010 C.2    96  THR96       0.2287
     30  O         -4.3560   -7.7060  -27.6890 O.2    96  THR96      -0.2866
     31  CB        -3.6910   -6.6810  -30.4260 C.3    96  THR96       0.1770
     32  OG1       -3.8870   -6.6420  -31.8290 O.3    96  THR96      -0.2211
     33  CG2       -2.3490   -6.1000  -30.1030 C.3    96  THR96       0.0375
     34  N         -0.9630   -6.9680  -25.9130 N.3    98  ALA98      -0.1231
     35  CA         0.0970   -6.0020  -25.7530 C.3    98  ALA98       0.1694
     36  C          0.6590   -6.0840  -24.3300 C.2    98  ALA98       0.2592
     37  O         -0.0540   -6.3190  -23.3750 O.2    98  ALA98      -0.2718
     38  CB        -0.4270   -4.5810  -26.0590 C.3    98  ALA98       0.0304
     39  N          1.9310   -5.8220  -24.2250 N.am   99  ALA99      -0.1966
     40  CA         2.6480   -5.7620  -22.9750 C.3    99  ALA99       0.1728
     41  C          3.6270   -4.6280  -22.9480 C.2    99  ALA99       0.2616
     42  O          4.2690   -4.3190  -23.9400 O.2    99  ALA99      -0.2715
     43  CB         3.3880   -7.0660  -22.6840 C.3    99  ALA99       0.0334
     44  N          3.7100   -3.9860  -21.7860 N.am  100  LEU100     -0.1977
     45  CA         4.5630   -2.8540  -21.5330 C.3   100  LEU100      0.1596
     46  C          5.4820   -3.2260  -20.3940 C.2   100  LEU100      0.2287
     47  O          5.0020   -3.4870  -19.2720 O.2   100  LEU100     -0.2864
     48  CB         3.7210   -1.6340  -21.1710 C.3   100  LEU100      0.0297
     49  CG         4.4890   -0.3570  -20.8000 C.3   100  LEU100      0.0022
     50  CD1        5.4150    0.1540  -21.9180 C.3   100  LEU100      0.0001
     51  CD2        3.5380    0.7870  -20.3540 C.3   100  LEU100      0.0001
     52  N          2.7020   -4.3860  -17.5400 N.3   107  SER107     -0.1202
     53  CA         1.2720   -4.3100  -17.7530 C.3   107  SER107      0.2020
     54  C          0.9490   -4.9750  -19.0670 C.2   107  SER107      0.2619
     55  O          1.7790   -5.0900  -19.9860 O.2   107  SER107     -0.2717
     56  CB         0.7490   -2.8740  -17.6860 C.3   107  SER107      0.2103
     57  OG         1.3540   -2.0580  -18.6740 O.3   107  SER107     -0.2182
     58  N         -0.2540   -5.5070  -19.1420 N.am  108  THR108     -0.1938
     59  CA        -0.7170   -6.1510  -20.3650 C.3   108  THR108      0.2028
     60  C         -2.1810   -5.8110  -20.5820 C.2   108  THR108      0.2642
     61  O         -2.9580   -5.6850  -19.6520 O.2   108  THR108     -0.2714
     62  CB        -0.4850   -7.6800  -20.3000 C.3   108  THR108      0.1808
     63  OG1       -0.7850   -8.2480  -21.5480 O.3   108  THR108     -0.2208
     64  CG2       -1.3290   -8.3510  -19.2120 C.3   108  THR108      0.0379
     65  N         -2.5660   -5.7110  -21.8380 N.am  109  THR109     -0.1950
     66  CA        -3.9460   -5.4680  -22.2280 C.3   109  THR109      0.1897
     67  C         -4.2480   -6.2600  -23.4860 C.2   109  THR109      0.2313
     68  O         -3.3500   -6.7580  -24.1500 O.2   109  THR109     -0.2863
     69  CB        -4.2740   -3.9520  -22.4220 C.3   109  THR109      0.1794
     70  OG1       -5.6940   -3.7780  -22.3770 O.3   109  THR109     -0.2208
     71  CG2       -3.6890   -3.3820  -23.6830 C.3   109  THR109      0.0378
     72  N         -6.6110   -6.0290  -27.0200 N.3   111  VAL111     -0.1245
     73  CA        -7.4000   -5.2230  -27.9450 C.3   111  VAL111      0.1561
     74  C         -8.0060   -6.2420  -28.8710 C.2   111  VAL111      0.2260
     75  O         -7.2830   -6.9120  -29.6370 O.2   111  VAL111     -0.2867
     76  CB        -6.5410   -4.1910  -28.7260 C.3   111  VAL111      0.0252
     77  CG1       -7.4060   -3.1810  -29.5250 C.3   111  VAL111      0.0019
     78  CG2       -5.5370   -3.5000  -27.7860 C.3   111  VAL111      0.0019
@<TRIPOS>BOND
     1    25    24   ar
     2    24    26   ar
     3    24    23    1
     4    22    23    1
     5    22    19    1
     6    21    20    2
     7    20    19    1
     8    19    18    1
     9     9     8    1
    10    32    31    1
    11     8     7    1
    12     7     6    1
    13    31    33    1
    14    31    28    1
    15    27    28    1
    16    28    29    1
    17     6     5    1
    18     5     2    1
    19    75    74    2
    20    77    76    1
    21     2     1    1
    22     2     3    1
    23    74    73    1
    24    76    73    1
    25    76    78    1
    26    29    30    2
    27     3     4    2
    28    73    72    1
    29    17    15    1
    30    15    16    1
    31    15    14    1
    32    38    35    1
    33    34    35    1
    34    35    36    1
    35    10    11    1
    36    11    14    1
    37    11    12    1
    38    36    39   am
    39    36    37    2
    40    12    13    2
    41    39    40    1
    42    68    67    2
    43    42    41    2
    44    71    69    1
    45    67    66    1
    46    40    41    1
    47    40    43    1
    48    41    44   am
    49    69    70    1
    50    69    66    1
    51    66    65    1
    52    50    49    1
    53    65    60   am
    54    44    45    1
    55    63    62    1
    56    45    48    1
    57    45    46    1
    58    48    49    1
    59    49    51    1
    60    60    59    1
    61    60    61    2
    62    46    47    2
    63    59    62    1
    64    59    58    1
    65    62    64    1
    66    55    54    2
    67    58    54   am
    68    54    53    1
    69    57    56    1
    70    53    56    1
    71    53    52    1
