@<TRIPOS>MOLECULE
tmp/3imwA00.pdb
 79 70 0 0 0
SMALL
GASTEIGER

@<TRIPOS>ATOM
      1  N          3.8200  -11.0530    0.5050 N.3     3  MET3       -0.1245
      2  CA         2.5440  -10.3270    0.6030 C.3     3  MET3        0.1570
      3  C          2.0230  -10.0450   -0.7820 C.2     3  MET3        0.2261
      4  O          2.7570   -9.8380   -1.7010 O.2     3  MET3       -0.2867
      5  CB         2.6880   -8.9750    1.3160 C.3     3  MET3        0.0387
      6  CG         1.3130   -8.3440    1.7510 C.3     3  MET3        0.0595
      7  SD         0.4990   -7.1140    0.7000 S.3     3  MET3       -0.1393
      8  CE         1.4640   -5.6690    1.1210 C.3     3  MET3        0.0692
      9  N         -0.9590   -7.6240   -2.8370 N.3     5  LYS5       -0.1245
     10  CA        -1.8690   -6.4540   -2.8130 C.3     5  LYS5        0.1561
     11  C         -2.5490   -6.3490   -4.1480 C.2     5  LYS5        0.2260
     12  O         -1.9050   -6.3340   -5.1670 O.2     5  LYS5       -0.2867
     13  CB        -1.0780   -5.1870   -2.5120 C.3     5  LYS5        0.0271
     14  CG        -1.8270   -3.8840   -2.5960 C.3     5  LYS5        0.0035
     15  CD        -2.6040   -3.6170   -1.3320 C.3     5  LYS5        0.0206
     16  CE        -3.2890   -2.2590   -1.3670 C.3     5  LYS5        0.1093
     17  NZ        -4.0150   -1.9450   -0.1610 N.3     5  LYS5       -0.1314
     18  N         -5.6530   -4.2460   -6.3330 N.3     7  LEU7       -0.1245
     19  CA        -6.5100   -3.0650   -6.5240 C.3     7  LEU7        0.1561
     20  C         -7.3880   -3.2410   -7.7470 C.2     7  LEU7        0.2260
     21  O         -7.0210   -3.9210   -8.7060 O.2     7  LEU7       -0.2867
     22  CB        -5.6260   -1.8110   -6.6670 C.3     7  LEU7        0.0270
     23  CG        -4.7440   -1.4350   -5.4770 C.3     7  LEU7        0.0019
     24  CD1       -3.8950   -0.2160   -5.8150 C.3     7  LEU7        0.0001
     25  CD2       -5.6050   -1.1270   -4.2460 C.3     7  LEU7        0.0001
     26  N         -5.4250   -7.0000    0.6340 N.3    44  GLU44      -0.1245
     27  CA        -4.1400   -7.5550    1.0490 C.3    44  GLU44       0.1567
     28  C         -4.2660   -8.9770    1.5190 C.2    44  GLU44       0.2260
     29  O         -5.2720   -9.4050    2.0780 O.2    44  GLU44      -0.2867
     30  CB        -3.5670   -6.7170    2.1930 C.3    44  GLU44       0.0388
     31  CG        -3.2290   -5.3080    1.7410 C.3    44  GLU44       0.1160
     32  CD        -2.4290   -4.4350    2.6790 C.2    44  GLU44       0.3649
     33  OE1       -1.9960   -4.8880    3.7460 O.co2  44  GLU44      -0.2457
     34  OE2       -2.2160   -3.2530    2.2920 O.co2  44  GLU44      -0.2457
     35  N          6.5840   -7.9980   -1.9050 N.3    96  THR96      -0.1218
     36  CA         5.1730   -7.6180   -2.1010 C.3    96  THR96       0.1862
     37  C          4.8860   -7.6520   -3.5690 C.2    96  THR96       0.2287
     38  O          5.5310   -6.9710   -4.3500 O.2    96  THR96      -0.2866
     39  CB         4.8230   -6.2580   -1.5030 C.3    96  THR96       0.1770
     40  OG1        5.1570   -6.2770   -0.1000 O.3    96  THR96      -0.2211
     41  CG2        3.3700   -5.9520   -1.7180 C.3    96  THR96       0.0375
     42  N          2.1020   -6.7540   -6.2130 N.3    98  ALA98      -0.1231
     43  CA         0.9190   -5.8990   -6.3750 C.3    98  ALA98       0.1694
     44  C          0.3670   -6.0790   -7.7670 C.2    98  ALA98       0.2592
     45  O          1.1180   -6.2730   -8.7210 O.2    98  ALA98      -0.2718
     46  CB         1.2340   -4.4380   -6.0780 C.3    98  ALA98       0.0304
     47  N         -0.9520   -5.9920   -7.8700 N.am   99  ALA99      -0.1966
     48  CA        -1.6440   -6.0440   -9.1460 C.3    99  ALA99       0.1728
     49  C         -2.7810   -5.0490   -9.1460 C.2    99  ALA99       0.2616
     50  O         -3.4760   -4.8680   -8.1430 O.2    99  ALA99      -0.2715
     51  CB        -2.1450   -7.4280   -9.4450 C.3    99  ALA99       0.0334
     52  N         -2.9880   -4.4370  -10.2920 N.am  100  LEU100     -0.1977
     53  CA        -4.0530   -3.4410  -10.5570 C.3   100  LEU100      0.1596
     54  C         -4.8980   -3.9530  -11.7010 C.2   100  LEU100      0.2287
     55  O         -4.3830   -4.1210  -12.8190 O.2   100  LEU100     -0.2864
     56  CB        -3.3960   -2.0970  -10.8700 C.3   100  LEU100      0.0297
     57  CG        -4.3820   -1.0070  -11.2790 C.3   100  LEU100      0.0022
     58  CD1       -5.3420   -0.6570  -10.1470 C.3   100  LEU100      0.0001
     59  CD2       -3.5620    0.2300  -11.7060 C.3   100  LEU100      0.0001
     60  N         -1.9320   -4.6460  -14.5620 N.3   107  SER107     -0.1217
     61  CA        -0.5710   -4.2610  -14.2680 C.3   107  SER107      0.1889
     62  C         -0.1040   -4.9980  -13.0280 C.2   107  SER107      0.2288
     63  O         -0.9030   -5.2440  -12.1230 O.2   107  SER107     -0.2866
     64  CB        -0.5450   -2.7550  -14.0000 C.3   107  SER107      0.2089
     65  OG         0.7230   -2.2750  -13.6050 O.3   107  SER107     -0.2183
     66  N          3.4690   -5.2410  -10.2800 N.3   109  THR109     -0.1218
     67  CA         4.8010   -4.8040   -9.8820 C.3   109  THR109      0.1862
     68  C          5.2220   -5.5690   -8.6560 C.2   109  THR109      0.2287
     69  O          4.4180   -6.2560   -8.0070 O.2   109  THR109     -0.2866
     70  CB         4.8760   -3.2650   -9.6700 C.3   109  THR109      0.1770
     71  OG1        6.2560   -2.8730   -9.6870 O.3   109  THR109     -0.2211
     72  CG2        4.1560   -2.8210   -8.4030 C.3   109  THR109      0.0375
     73  N          7.6160   -5.0730   -5.0070 N.3   111  VAL111     -0.1245
     74  CA         8.4330   -4.3300   -4.0570 C.3   111  VAL111      0.1561
     75  C          9.2120   -5.3390   -3.2560 C.2   111  VAL111      0.2260
     76  O          8.6430   -6.1970   -2.5840 O.2   111  VAL111     -0.2867
     77  CB         7.5790   -3.4610   -3.1160 C.3   111  VAL111      0.0252
     78  CG1        8.4650   -2.7410   -2.0880 C.3   111  VAL111      0.0019
     79  CG2        6.7330   -2.4680   -3.9040 C.3   111  VAL111      0.0019
@<TRIPOS>BOND
     1    60    61    1
     2    61    64    1
     3    61    62    1
     4    64    65    1
     5    62    63    2
     6    55    54    2
     7    59    57    1
     8    54    53    1
     9    57    56    1
    10    57    58    1
    11    56    53    1
    12    53    52    1
    13    52    49   am
    14    66    67    1
    15    67    70    1
    16    67    68    1
    17    71    70    1
    18    70    72    1
    19    51    48    1
    20    48    49    1
    21    48    47    1
    22    49    50    2
    23    45    44    2
    24    21    20    2
    25    68    69    2
    26    47    44   am
    27    44    43    1
    28    20    19    1
    29    22    19    1
    30    22    23    1
    31    19    18    1
    32    43    42    1
    33    43    46    1
    34    24    23    1
    35    23    25    1
    36    12    11    2
    37    73    74    1
    38    38    37    2
    39    11    10    1
    40    74    75    1
    41    74    77    1
    42    79    77    1
    43    37    36    1
    44    75    76    2
    45    77    78    1
    46     9    10    1
    47    10    13    1
    48    14    13    1
    49    14    15    1
    50    36    35    1
    51    36    39    1
    52    41    39    1
    53     4     3    2
    54    39    40    1
    55    16    15    1
    56    16    17    1
    57     3     2    1
    58     1     2    1
    59     2     5    1
    60    26    27    1
    61     7     8    1
    62     7     6    1
    63    27    28    1
    64    27    30    1
    65     5     6    1
    66    28    29    2
    67    31    30    1
    68    31    32    1
    69    34    32   ar
    70    32    33   ar
