@<TRIPOS>MOLECULE
tmp/3imxA01.pdb
 239 229 0 0 0
SMALL
GASTEIGER

@<TRIPOS>ATOM
      1  N         -6.0970   -4.7370  -10.1920 N.3    51  TYR51      -0.1227
      2  CA        -6.4820   -4.5570  -11.6000 C.3    51  TYR51       0.1736
      3  C         -5.5780   -3.5710  -12.3460 C.2    51  TYR51       0.2595
      4  O         -5.8930   -3.1120  -13.4490 O.2    51  TYR51      -0.2718
      5  CB        -7.9650   -4.1680  -11.7310 C.3    51  TYR51       0.0548
      6  CG        -8.8860   -5.3710  -11.5410 C.ar   51  TYR51      -0.0200
      7  CD1       -9.1470   -6.2500  -12.5920 C.ar   51  TYR51      -0.0009
      8  CD2       -9.4100   -5.6840  -10.2880 C.ar   51  TYR51      -0.0009
      9  CE1       -9.8920   -7.3990  -12.4060 C.ar   51  TYR51       0.0417
     10  CE2      -10.1520   -6.8420  -10.0930 C.ar   51  TYR51       0.0417
     11  CZ       -10.3850   -7.6910  -11.1600 C.ar   51  TYR51       0.1957
     12  OH       -11.0970   -8.8550  -10.9710 O.3    51  TYR51      -0.2866
     13  N         -4.4330   -3.2620  -11.7440 N.am   52  VAL52      -0.1966
     14  CA        -3.4500   -2.3870  -12.3780 C.3    52  VAL52       0.1727
     15  C         -2.4680   -3.3650  -13.0210 C.2    52  VAL52       0.2616
     16  O         -1.7920   -4.1080  -12.3270 O.2    52  VAL52      -0.2715
     17  CB        -2.7520   -1.5020  -11.3230 C.3    52  VAL52       0.0290
     18  CG1       -1.5080   -0.8620  -11.9070 C.3    52  VAL52       0.0023
     19  CG2       -3.7520   -0.4480  -10.8050 C.3    52  VAL52       0.0023
     20  N         -2.4020   -3.3680  -14.3500 N.am   53  ARG53      -0.1963
     21  CA        -1.5470   -4.3010  -15.0660 C.3    53  ARG53       0.1729
     22  C         -0.2850   -3.7070  -15.6960 C.2    53  ARG53       0.2616
     23  O         -0.1690   -2.4940  -15.9370 O.2    53  ARG53      -0.2715
     24  CB        -2.3670   -5.0060  -16.1620 C.3    53  ARG53       0.0348
     25  CG        -3.6840   -5.6060  -15.7120 C.3    53  ARG53       0.0492
     26  CD        -4.4990   -6.1120  -16.9220 C.3    53  ARG53       0.2205
     27  NE        -5.7820   -6.6980  -16.5360 N.pl3  53  ARG53      -0.0865
     28  CZ        -6.0300   -8.0110  -16.4820 C.cat  53  ARG53       0.5346
     29  NH1       -5.0840   -8.8990  -16.7940 N.pl3  53  ARG53       0.1354
     30  NH2       -7.2280   -8.4410  -16.1030 N.pl3  53  ARG53       0.1354
     31  N          0.6630   -4.5880  -15.9870 N.am   54  SER54      -0.1950
     32  CA         1.9210   -4.1710  -16.5940 C.3    54  SER54       0.1924
     33  C          1.8030   -4.0660  -18.1030 C.2    54  SER54       0.2314
     34  O          2.6880   -3.4960  -18.7490 O.2    54  SER54      -0.2863
     35  CB         3.0190   -5.1940  -16.2740 C.3    54  SER54       0.2116
     36  OG         2.6890   -6.4840  -16.8130 O.3    54  SER54      -0.2180
     37  N         -0.4060   -2.3890  -20.5040 N.3    56  PRO56      -0.2116
     38  CA        -0.6680   -1.2390  -21.3910 C.3    56  PRO56       0.1372
     39  C          0.6140   -0.7440  -22.0600 C.2    56  PRO56       0.2244
     40  O          1.6310   -0.5440  -21.3990 O.2    56  PRO56      -0.2868
     41  CB        -1.2490   -0.1930  -20.4460 C.3    56  PRO56       0.0268
     42  CG        -1.9680   -1.0550  -19.4040 C.3    56  PRO56       0.0207
     43  CD        -1.0000   -2.1930  -19.1650 C.3    56  PRO56       0.0892
     44  N          0.3800    5.7400  -23.5330 N.3    59  SER59      -0.1202
     45  CA        -0.2260    6.6750  -22.5950 C.3    59  SER59       0.2020
     46  C         -0.5490    7.9420  -23.3650 C.2    59  SER59       0.2618
     47  O         -0.6260    7.9150  -24.5970 O.2    59  SER59      -0.2717
     48  CB         0.7160    6.9760  -21.4240 C.3    59  SER59       0.2103
     49  OG         0.0200    7.6700  -20.3940 O.3    59  SER59      -0.2182
     50  N         -0.7280    9.0540  -22.6660 N.am   60  GLU60      -0.1979
     51  CA        -1.0850   10.2820  -23.3560 C.3    60  GLU60       0.1602
     52  C         -0.9020   11.5310  -22.5020 C.2    60  GLU60       0.2287
     53  O         -0.8230   11.4730  -21.2540 O.2    60  GLU60      -0.2864
     54  CB        -2.5590   10.2050  -23.7790 C.3    60  GLU60       0.0415
     55  CG        -3.5010   10.1770  -22.5670 C.3    60  GLU60       0.1163
     56  CD        -4.9780    9.9890  -22.9160 C.2    60  GLU60       0.3649
     57  OE1       -5.2970    9.5100  -24.0300 O.co2  60  GLU60      -0.2457
     58  OE2       -5.8240   10.3160  -22.0570 O.co2  60  GLU60      -0.2457
     59  N          0.3150   16.6390  -18.0100 N.3    81  VAL81      -0.1245
     60  CA         1.2500   15.8100  -18.7540 C.3    81  VAL81       0.1561
     61  C          1.3870   16.4000  -20.1500 C.2    81  VAL81       0.2260
     62  O          0.4000   16.5860  -20.8530 O.2    81  VAL81      -0.2867
     63  CB         0.7540   14.3480  -18.9020 C.3    81  VAL81       0.0252
     64  CG1        1.7510   13.5550  -19.7320 C.3    81  VAL81       0.0019
     65  CG2        0.5800   13.6960  -17.5290 C.3    81  VAL81       0.0019
     66  N          8.1690   12.8780  -21.9920 N.3    85  TRP85      -0.1241
     67  CA         7.0450   13.3570  -21.2050 C.3    85  TRP85       0.1605
     68  C          7.4730   14.4470  -20.2320 C.2    85  TRP85       0.2264
     69  O          8.5920   14.4480  -19.7290 O.2    85  TRP85      -0.2867
     70  CB         6.4190   12.2120  -20.3770 C.3    85  TRP85       0.0550
     71  CG         5.9620   10.9810  -21.1520 C.ar   85  TRP85       0.0003
     72  CD1        6.5390    9.7410  -21.1290 C.ar   85  TRP85       0.0946
     73  CD2        4.8150   10.8690  -22.0180 C.ar   85  TRP85       0.0152
     74  NE1        5.8280    8.8730  -21.9170 N.ar   85  TRP85      -0.2442
     75  CE2        4.7690    9.5370  -22.4780 C.ar   85  TRP85       0.0810
     76  CE3        3.8290   11.7660  -22.4480 C.ar   85  TRP85       0.0012
     77  CZ2        3.7700    9.0710  -23.3510 C.ar   85  TRP85       0.0191
     78  CZ3        2.8390   11.3090  -23.3140 C.ar   85  TRP85       0.0001
     79  CH2        2.8170    9.9700  -23.7580 C.ar   85  TRP85       0.0015
     80  N          5.9070   16.3620  -16.7170 N.3    87  VAL87      -0.1245
     81  CA         4.8450   16.2560  -15.7150 C.3    87  VAL87       0.1561
     82  C          4.9400   17.4140  -14.7160 C.2    87  VAL87       0.2260
     83  O          5.9540   17.5870  -14.0440 O.2    87  VAL87      -0.2867
     84  CB         4.9300   14.8960  -14.9450 C.3    87  VAL87       0.0252
     85  CG1        3.8810   14.8420  -13.8370 C.3    87  VAL87       0.0019
     86  CG2        4.7230   13.7260  -15.9190 C.3    87  VAL87       0.0019
     87  N        -12.7220   -3.9990  -10.4980 N.3   144  ASP144     -0.1225
     88  CA       -12.0580   -3.4930  -11.7040 C.3   144  ASP144      0.1805
     89  C        -11.1280   -2.3600  -11.2650 C.2   144  ASP144      0.2597
     90  O        -10.9970   -2.0920  -10.0720 O.2   144  ASP144     -0.2718
     91  CB       -13.1000   -3.0000  -12.7130 C.3   144  ASP144      0.1424
     92  CG       -12.5690   -2.9690  -14.1380 C.2   144  ASP144      0.3668
     93  OD1      -11.3220   -3.0210  -14.3120 O.co2 144  ASP144     -0.2456
     94  OD2      -13.4060   -2.8830  -15.0830 O.co2 144  ASP144     -0.2456
     95  N        -10.4700   -1.7010  -12.2050 N.am  145  ILE145     -0.1980
     96  CA        -9.5540   -0.6310  -11.8120 C.3   145  ILE145      0.1595
     97  C        -10.2860    0.6080  -11.2740 C.2   145  ILE145      0.2287
     98  O         -9.6940    1.4470  -10.5860 O.2   145  ILE145     -0.2864
     99  CB        -8.6550   -0.2330  -12.9760 C.3   145  ILE145      0.0276
    100  CG1       -7.4780    0.6000  -12.4590 C.3   145  ILE145      0.0022
    101  CG2       -9.4580    0.5440  -14.0340 C.3   145  ILE145      0.0022
    102  CD1       -6.4170    0.8590  -13.5100 C.3   145  ILE145      0.0001
    103  N        -11.7160    7.4650  -13.2390 N.3   186  VAL186     -0.1245
    104  CA       -11.1630    6.3840  -14.0680 C.3   186  VAL186      0.1561
    105  C        -10.3410    5.3110  -13.3480 C.2   186  VAL186      0.2260
    106  O         -9.9640    4.3070  -13.9460 O.2   186  VAL186     -0.2867
    107  CB       -10.2870    6.9850  -15.2120 C.3   186  VAL186      0.0252
    108  CG1      -11.1210    7.9830  -16.0320 C.3   186  VAL186      0.0019
    109  CG2       -9.0730    7.7150  -14.6230 C.3   186  VAL186      0.0019
    110  N          3.9850    3.2520   -5.6780 N.3   196  MET196     -0.1230
    111  CA         4.8060    2.4590   -6.5720 C.3   196  MET196      0.1702
    112  C          4.7450    3.0010   -8.0020 C.2   196  MET196      0.2592
    113  O          5.7410    3.0020   -8.7030 O.2   196  MET196     -0.2718
    114  CB         4.3370    1.0040   -6.5890 C.3   196  MET196      0.0401
    115  CG         4.9950    0.1990   -7.7040 C.3   196  MET196      0.0596
    116  SD         4.2490   -1.4240   -7.9050 S.3   196  MET196     -0.1393
    117  CE         2.8510   -0.9720   -8.8490 C.3   196  MET196      0.0692
    118  N          3.5770    3.4500   -8.4380 N.am  197  ILE197     -0.1980
    119  CA         3.4180    3.9750   -9.7950 C.3   197  ILE197      0.1595
    120  C          4.1380    5.3140   -9.9760 C.2   197  ILE197      0.2287
    121  O          4.7290    5.5700  -11.0280 O.2   197  ILE197     -0.2864
    122  CB         1.9050    4.1610  -10.1580 C.3   197  ILE197      0.0276
    123  CG1        1.2290    2.7850  -10.3020 C.3   197  ILE197      0.0022
    124  CG2        1.7650    4.9330  -11.4730 C.3   197  ILE197      0.0022
    125  CD1       -0.2730    2.8640  -10.3630 C.3   197  ILE197      0.0001
    126  N          7.6410    4.3450  -10.2930 N.3   200  TYR200     -0.1227
    127  CA         7.8410    3.5720  -11.5120 C.3   200  TYR200      0.1736
    128  C          8.0600    4.5380  -12.7010 C.2   200  TYR200      0.2595
    129  O          8.8610    4.2780  -13.5970 O.2   200  TYR200     -0.2718
    130  CB         6.6200    2.6670  -11.7500 C.3   200  TYR200      0.0548
    131  CG         6.6280    1.9530  -13.0810 C.ar  200  TYR200     -0.0200
    132  CD1        7.3360    0.7600  -13.2650 C.ar  200  TYR200     -0.0009
    133  CD2        5.9430    2.4820  -14.1690 C.ar  200  TYR200     -0.0009
    134  CE1        7.3570    0.1160  -14.5060 C.ar  200  TYR200      0.0417
    135  CE2        5.9650    1.8480  -15.3990 C.ar  200  TYR200      0.0417
    136  CZ         6.6690    0.6660  -15.5610 C.ar  200  TYR200      0.1957
    137  OH         6.6370    0.0390  -16.7990 O.3   200  TYR200     -0.2866
    138  N          7.3550    5.6610  -12.6830 N.am  201  TYR201     -0.1976
    139  CA         7.4720    6.6910  -13.7260 C.3   201  TYR201      0.1639
    140  C          8.9370    7.0900  -13.9000 C.2   201  TYR201      0.2290
    141  O          9.4350    7.2020  -15.0190 O.2   201  TYR201     -0.2864
    142  CB         6.6840    7.9340  -13.3090 C.3   201  TYR201      0.0560
    143  CG         6.8470    9.1260  -14.2420 C.ar  201  TYR201     -0.0198
    144  CD1        6.2410    9.1450  -15.4870 C.ar  201  TYR201     -0.0009
    145  CD2        7.6130   10.2260  -13.8700 C.ar  201  TYR201     -0.0009
    146  CE1        6.3850   10.2460  -16.3580 C.ar  201  TYR201      0.0417
    147  CE2        7.7720   11.3260  -14.7260 C.ar  201  TYR201      0.0417
    148  CZ         7.1540   11.3240  -15.9700 C.ar  201  TYR201      0.1957
    149  OH         7.3250   12.3970  -16.8360 O.3   201  TYR201     -0.2866
    150  N         11.6640    2.4230  -13.9910 N.3   204  HIS204     -0.1241
    151  CA        10.8400    1.2780  -14.3490 C.3   204  HIS204      0.1621
    152  C         11.2070   -0.0290  -13.6250 C.2   204  HIS204      0.2264
    153  O         10.5370   -1.0430  -13.7860 O.2   204  HIS204     -0.2867
    154  CB        10.8340    1.1000  -15.8810 C.3   204  HIS204      0.0745
    155  CG         9.8830    2.0200  -16.5880 C.ar  204  HIS204      0.0817
    156  ND1        9.1940    3.0190  -15.9320 N.ar  204  HIS204     -0.2268
    157  CD2        9.4510    2.0490  -17.8720 C.ar  204  HIS204      0.1154
    158  CE1        8.3730    3.6160  -16.7780 C.ar  204  HIS204      0.1986
    159  NE2        8.5050    3.0460  -17.9620 N.ar  204  HIS204     -0.2212
    160  N         10.9670   -0.1240  -10.5500 N.3   206  CYS206     -0.1221
    161  CA        10.1360   -0.0910   -9.3300 C.3   206  CYS206      0.1808
    162  C          8.8720   -0.9580   -9.4310 C.2   206  CYS206      0.2601
    163  O          7.9060   -0.6200  -10.1290 O.2   206  CYS206     -0.2717
    164  CB         9.7240    1.3420   -8.9440 C.3   206  CYS206      0.0970
    165  SG         8.7310    1.3980   -7.4010 S.3   206  CYS206     -0.0800
    166  N          8.8740   -2.0920   -8.7420 N.am  207  GLU207     -0.1979
    167  CA         7.6950   -2.9660   -8.7910 C.3   207  GLU207      0.1602
    168  C          7.1840   -3.3330   -7.4030 C.2   207  GLU207      0.2287
    169  O          6.4890   -4.3270   -7.2050 O.2   207  GLU207     -0.2864
    170  CB         8.0030   -4.2210   -9.5960 C.3   207  GLU207      0.0415
    171  CG         8.3140   -3.8890  -11.0460 C.3   207  GLU207      0.1163
    172  CD         8.4500   -5.1360  -11.8970 C.2   207  GLU207      0.3649
    173  OE1        7.4140   -5.7370  -12.2350 O.co2 207  GLU207     -0.2457
    174  OE2        9.5930   -5.5100  -12.2180 O.co2 207  GLU207     -0.2457
    175  N          4.2820   -6.1810   -7.8930 N.3   221  MET221     -0.1245
    176  CA         3.7690   -6.7360   -9.1440 C.3   221  MET221      0.1570
    177  C          3.9360   -8.2780   -9.1270 C.2   221  MET221      0.2261
    178  O          5.0580   -8.7780   -9.0840 O.2   221  MET221     -0.2867
    179  CB         4.5300   -6.1220  -10.3290 C.3   221  MET221      0.0387
    180  CG         4.3560   -4.5810  -10.4610 C.3   221  MET221      0.0595
    181  SD         2.6340   -4.0960  -10.7110 S.3   221  MET221     -0.1393
    182  CE         2.3620   -4.5730  -12.4820 C.3   221  MET221      0.0692
    183  N          1.6690   -9.1330  -15.5580 N.3   236  ARG236     -0.1245
    184  CA         1.7040   -8.9960  -14.1100 C.3   236  ARG236      0.1563
    185  C          0.6000   -8.0400  -13.6880 C.2   236  ARG236      0.2260
    186  O          0.1030   -7.2790  -14.5010 O.2   236  ARG236     -0.2867
    187  CB         3.0510   -8.4260  -13.6620 C.3   236  ARG236      0.0307
    188  CG         4.2420   -9.3600  -13.7910 C.3   236  ARG236      0.0489
    189  CD         5.5500   -8.5610  -13.6820 C.3   236  ARG236      0.2205
    190  NE         6.0730   -8.1500  -14.9890 N.pl3 236  ARG236     -0.0865
    191  CZ         6.3470   -6.8950  -15.3470 C.cat 236  ARG236      0.5346
    192  NH1        6.1470   -5.8770  -14.5100 N.pl3 236  ARG236      0.1354
    193  NH2        6.8540   -6.6570  -16.5440 N.pl3 236  ARG236      0.1354
    194  N         -1.0260    9.6670  -12.6990 N.3   437  LEU437     -0.1231
    195  CA        -0.2380    8.9600  -13.7160 C.3   437  LEU437      0.1693
    196  C         -0.9650    7.6880  -14.2220 C.2   437  LEU437      0.2591
    197  O         -0.9600    7.3940  -15.4310 O.2   437  LEU437     -0.2718
    198  CB         1.1460    8.5860  -13.1480 C.3   437  LEU437      0.0284
    199  CG         2.0620    9.7610  -12.7660 C.3   437  LEU437      0.0019
    200  CD1        3.2060    9.2840  -11.8550 C.3   437  LEU437      0.0001
    201  CD2        2.6160   10.4120  -14.0630 C.3   437  LEU437      0.0001
    202  N         -1.6000    6.9440  -13.3220 N.am  438  VAL438     -0.1980
    203  CA        -2.3100    5.7400  -13.7750 C.3   438  VAL438      0.1595
    204  C         -3.5410    6.1260  -14.6240 C.2   438  VAL438      0.2287
    205  O         -3.8890    5.4270  -15.5910 O.2   438  VAL438     -0.2864
    206  CB        -2.7350    4.8360  -12.5860 C.3   438  VAL438      0.0276
    207  CG1       -3.8740    5.4850  -11.8060 C.3   438  VAL438      0.0022
    208  CG2       -3.1390    3.4630  -13.1190 C.3   438  VAL438      0.0022
    209  N         -3.8220    8.5760  -16.7770 N.3   440  ALA440     -0.1231
    210  CA        -3.4390    8.8730  -18.1700 C.3   440  ALA440      0.1694
    211  C         -3.3530    7.5700  -18.9630 C.2   440  ALA440      0.2592
    212  O         -3.8080    7.4840  -20.1000 O.2   440  ALA440     -0.2718
    213  CB        -2.0910    9.6050  -18.2200 C.3   440  ALA440      0.0304
    214  N         -2.7450    6.5600  -18.3690 N.am  441  VAL441     -0.1966
    215  CA        -2.6450    5.2810  -19.0470 C.3   441  VAL441      0.1727
    216  C         -4.0320    4.6500  -19.1850 C.2   441  VAL441      0.2616
    217  O         -4.3530    4.0770  -20.2320 O.2   441  VAL441     -0.2715
    218  CB        -1.7410    4.3160  -18.2990 C.3   441  VAL441      0.0290
    219  CG1       -1.6370    2.9930  -19.0730 C.3   441  VAL441      0.0023
    220  CG2       -0.3680    4.9450  -18.1050 C.3   441  VAL441      0.0023
    221  N         -4.8640    4.7650  -18.1480 N.am  442  ALA442     -0.1977
    222  CA        -6.2040    4.1700  -18.2210 C.3   442  ALA442      0.1597
    223  C         -7.0820    4.8710  -19.2560 C.2   442  ALA442      0.2287
    224  O         -7.9150    4.2290  -19.9070 O.2   442  ALA442     -0.2864
    225  CB        -6.8780    4.1960  -16.8600 C.3   442  ALA442      0.0319
    226  N         -5.7740    3.7440  -22.6500 N.3   445  LYS445     -0.1231
    227  CA        -6.1780    2.3590  -22.8770 C.3   445  LYS445      0.1693
    228  C         -7.6420    2.2740  -23.2700 C.2   445  LYS445      0.2591
    229  O         -8.0310    1.4200  -24.0670 O.2   445  LYS445     -0.2718
    230  CB        -5.9310    1.5020  -21.6380 C.3   445  LYS445      0.0285
    231  CG        -6.4270    0.0780  -21.7970 C.3   445  LYS445      0.0035
    232  CD        -6.1000   -0.7880  -20.5930 C.3   445  LYS445      0.0206
    233  CE        -6.4800   -2.2470  -20.8450 C.3   445  LYS445      0.1093
    234  NZ        -7.9360   -2.4110  -21.1590 N.3   445  LYS445     -0.1314
    235  N         -8.4600    3.1530  -22.7050 N.am  446  ALA446     -0.1980
    236  CA        -9.8750    3.1720  -23.0350 C.3   446  ALA446      0.1597
    237  C        -10.0580    4.0260  -24.2960 C.2   446  ALA446      0.2287
    238  O        -11.1590    4.4760  -24.6020 O.2   446  ALA446     -0.2864
    239  CB       -10.6710    3.7500  -21.8770 C.3   446  ALA446      0.0319
@<TRIPOS>BOND
     1   238   237    2
     2    47    46    2
     3   237   236    1
     4   229   228    2
     5    57    56   ar
     6    54    51    1
     7    54    55    1
     8    79    77   ar
     9    79    78   ar
    10    44    45    1
    11    46    50   am
    12    46    45    1
    13    51    50    1
    14    51    52    1
    15    77    75   ar
    16    78    76   ar
    17   228   227    1
    18   228   235   am
    19   236   235    1
    20   236   239    1
    21    56    55    1
    22    56    58   ar
    23   227   226    1
    24   227   230    1
    25    45    48    1
    26    52    53    2
    27    75    73   ar
    28    75    74   ar
    29    76    73   ar
    30    39    40    2
    31    39    38    1
    32    73    71   ar
    33    66    67    1
    34    74    72   ar
    35   231   230    1
    36   231   232    1
    37    48    49    1
    38    38    37    1
    39    38    41    1
    40    67    70    1
    41    67    68    1
    42   234   233    1
    43    71    72   ar
    44    71    70    1
    45    62    61    2
    46   233   232    1
    47    37    43    1
    48    41    42    1
    49    68    69    2
    50   217   216    2
    51    61    60    1
    52   212   211    2
    53   224   223    2
    54    64    63    1
    55    42    43    1
    56   223   222    1
    57   216   215    1
    58   216   221   am
    59   219   218    1
    60   215   214    1
    61   215   218    1
    62   211   214   am
    63   211   210    1
    64    63    60    1
    65    63    65    1
    66    60    59    1
    67    34    33    2
    68   218   220    1
    69   222   221    1
    70   222   225    1
    71   213   210    1
    72   210   209    1
    73    33    32    1
    74   159   157   ar
    75   159   158   ar
    76   157   155   ar
    77    26    27    1
    78    26    25    1
    79   149   148    1
    80    36    35    1
    81   137   136    1
    82    29    28    1
    83   158   156   ar
    84    80    81    1
    85    32    35    1
    86    32    31    1
    87   155   156   ar
    88   155   154    1
    89   193   191    1
    90    27    28    2
    91    28    30    1
    92   146   148   ar
    93   146   144   ar
    94    24    25    1
    95    24    21    1
    96   108   107    1
    97    31    22   am
    98   148   147   ar
    99    23    22    2
   100    86    84    1
   101   154   151    1
   102    81    84    1
   103    81    82    1
   104    22    21    1
   105   205   204    2
   106   136   135   ar
   107   136   134   ar
   108   183   184    1
   109   144   143   ar
   110   197   196    2
   111   135   133   ar
   112   191   190    2
   113   191   192    1
   114   107   109    1
   115   107   104    1
   116    94    92   ar
   117    21    20    1
   118   141   140    2
   119   190   189    1
   120    84    85    1
   121   147   145   ar
   122    82    83    2
   123   204   203    1
   124   134   132   ar
   125   186   185    2
   126    20    15   am
   127   151   150    1
   128   151   152    1
   129    93    92   ar
   130   143   145   ar
   131   143   142    1
   132   196   195    1
   133   196   202   am
   134   133   131   ar
   135    92    91    1
   136   184   185    1
   137   184   187    1
   138   104   105    1
   139   104   103    1
   140   201   199    1
   141   101    99    1
   142   106   105    2
   143   140   139    1
   144   188   189    1
   145   188   187    1
   146   153   152    2
   147   203   202    1
   148   203   206    1
   149   139   142    1
   150   139   138    1
   151   195   198    1
   152   195   194    1
   153   129   128    2
   154   102   100    1
   155     4     3    2
   156   132   131   ar
   157   198   199    1
   158   208   206    1
   159   131   130    1
   160    15    14    1
   161    15    16    2
   162    99   100    1
   163    99    96    1
   164   199   200    1
   165    91    88    1
   166   128   138   am
   167   128   127    1
   168     7     9   ar
   169     7     6   ar
   170   206   207    1
   171   182   181    1
   172     9    11   ar
   173    14    13    1
   174    14    17    1
   175     3    13   am
   176     3     2    1
   177   173   172   ar
   178   174   172   ar
   179    95    96    1
   180    95    89   am
   181    18    17    1
   182   172   171    1
   183    96    97    1
   184   130   127    1
   185     5     2    1
   186     5     6    1
   187    88    89    1
   188    88    87    1
   189     2     1    1
   190     6     8   ar
   191   127   126    1
   192   124   122    1
   193    17    19    1
   194    97    98    2
   195    89    90    2
   196    11    12    1
   197    11    10   ar
   198   171   170    1
   199   121   120    2
   200   181   180    1
   201   160   161    1
   202   180   179    1
   203   125   123    1
   204   179   176    1
   205   123   122    1
   206     8    10   ar
   207   122   119    1
   208   163   162    2
   209   120   119    1
   210   119   118    1
   211   170   167    1
   212   162   161    1
   213   162   166   am
   214   161   164    1
   215   176   177    1
   216   176   175    1
   217   177   178    2
   218   164   165    1
   219   117   116    1
   220   167   166    1
   221   167   168    1
   222   113   112    2
   223   118   112   am
   224   112   111    1
   225   116   115    1
   226   115   114    1
   227   168   169    2
   228   114   111    1
   229   111   110    1
