@<TRIPOS>MOLECULE
tmp/3in1A00.pdb
 111 99 0 0 0
SMALL
GASTEIGER

@<TRIPOS>ATOM
      1  N         64.1460   68.4150    4.9420 N.3   190  ASN190     -0.1240
      2  CA        63.5800   69.3460    5.9040 C.3   190  ASN190      0.1653
      3  C         63.5030   70.6210    5.0690 C.2   190  ASN190      0.2266
      4  O         64.4480   70.9410    4.3490 O.2   190  ASN190     -0.2867
      5  CB        64.5340   69.5440    7.0780 C.3   190  ASN190      0.1155
      6  CG        64.1340   70.7060    7.9580 C.2   190  ASN190      0.2627
      7  OD1       63.1970   70.6060    8.7610 O.2   190  ASN190     -0.2716
      8  ND2       64.8350   71.8300    7.8040 N.am  190  ASN190     -0.0877
      9  N         59.2890   68.0540    4.8440 N.3   221  LYS221     -0.1245
     10  CA        58.6920   68.3270    6.1420 C.3   221  LYS221      0.1561
     11  C         58.6430   69.8300    6.3330 C.2   221  LYS221      0.2260
     12  O         59.6550   70.5130    6.2110 O.2   221  LYS221     -0.2867
     13  CB        59.5050   67.6570    7.2490 C.3   221  LYS221      0.0271
     14  CG        59.5020   66.1310    7.1210 C.3   221  LYS221      0.0035
     15  CD        60.2670   65.4420    8.2320 C.3   221  LYS221      0.0206
     16  CE        61.7560   65.7650    8.2050 C.3   221  LYS221      0.1093
     17  NZ        62.5000   65.1100    7.1000 N.3   221  LYS221     -0.1314
     18  N         57.3200   71.3160    9.1730 N.3   223  GLY223     -0.1210
     19  CA        56.9970   71.5090   10.5750 C.3   223  GLY223      0.1956
     20  C         55.5290   71.6870   10.8970 C.2   223  GLY223      0.2611
     21  O         54.7050   70.8010   10.6690 O.2   223  GLY223     -0.2717
     22  N         55.2130   72.8560   11.4350 N.am  224  LYS224     -0.1979
     23  CA        53.8600   73.2240   11.8290 C.3   224  LYS224      0.1596
     24  C         52.8270   73.0610   10.7130 C.2   224  LYS224      0.2287
     25  O         51.6420   72.8660   10.9750 O.2   224  LYS224     -0.2864
     26  CB        53.8790   74.6730   12.3070 C.3   224  LYS224      0.0298
     27  CG        52.5480   75.2330   12.7270 C.3   224  LYS224      0.0038
     28  CD        52.0530   74.6150   14.0230 C.3   224  LYS224      0.0206
     29  CE        51.5250   75.7070   14.9490 C.3   224  LYS224      0.1093
     30  NZ        50.4750   75.2090   15.8850 N.3   224  LYS224     -0.1314
     31  N         52.8140   70.6360    8.5300 N.3   226  GLY226     -0.1225
     32  CA        52.7250   69.2430    8.1180 C.3   226  GLY226      0.1811
     33  C         53.8210   68.8460    7.1450 C.2   226  GLY226      0.2280
     34  O         55.0080   68.8380    7.4890 O.2   226  GLY226     -0.2866
     35  N         49.5300   69.3510    9.3690 N.3   238  ALA238     -0.1231
     36  CA        50.0220   68.7220   10.5880 C.3   238  ALA238      0.1694
     37  C         48.8370   68.4650   11.5110 C.2   238  ALA238      0.2591
     38  O         47.7350   68.9740   11.2720 O.2   238  ALA238     -0.2718
     39  CB        51.0170   69.6400   11.2800 C.3   238  ALA238      0.0304
     40  N         49.0500   67.6690   12.5540 N.am  239  VAL239     -0.1980
     41  CA        47.9800   67.4140   13.5080 C.3   239  VAL239      0.1595
     42  C         47.6560   68.7910   14.0930 C.2   239  VAL239      0.2287
     43  O         48.5550   69.5560   14.4340 O.2   239  VAL239     -0.2864
     44  CB        48.4330   66.4370   14.6260 C.3   239  VAL239      0.0276
     45  CG1       47.3800   66.3740   15.7380 C.3   239  VAL239      0.0022
     46  CG2       48.6360   65.0500   14.0380 C.3   239  VAL239      0.0022
     47  N         48.3900   71.0640   18.4160 N.3   242  ILE242     -0.1245
     48  CA        49.6360   70.8030   19.1200 C.3   242  ILE242      0.1561
     49  C         50.6280   71.9370   19.3360 C.2   242  ILE242      0.2260
     50  O         50.9830   72.6910   18.4240 O.2   242  ILE242     -0.2867
     51  CB        50.3670   69.6250   18.4720 C.3   242  ILE242      0.0252
     52  CG1       49.5370   68.3620   18.6940 C.3   242  ILE242      0.0019
     53  CG2       51.7690   69.4770   19.0600 C.3   242  ILE242      0.0019
     54  CD1       49.9480   67.2030   17.8540 C.3   242  ILE242      0.0001
     55  N         54.3440   72.3970   20.5520 N.3   244  ALA244     -0.1245
     56  CA        55.5750   71.6350   20.6910 C.3   244  ALA244      0.1562
     57  C         56.4690   72.0410   21.8570 C.2   244  ALA244      0.2260
     58  O         56.7650   73.2220   22.0430 O.2   244  ALA244     -0.2867
     59  CB        56.3660   71.7100   19.3900 C.3   244  ALA244      0.0290
     60  N         61.1660   70.1210   19.2030 N.3   247  THR247     -0.1218
     61  CA        61.0770   69.2710   18.0270 C.3   247  THR247      0.1862
     62  C         62.3260   68.4480   17.7380 C.2   247  THR247      0.2287
     63  O         62.5390   68.0260   16.6000 O.2   247  THR247     -0.2866
     64  CB        60.7570   70.1070   16.7730 C.3   247  THR247      0.1770
     65  OG1       61.8340   71.0150   16.5190 O.3   247  THR247     -0.2211
     66  CG2       59.4720   70.8960   16.9740 C.3   247  THR247      0.0375
     67  N         61.9630   65.2560   15.7150 N.3   250  ALA250     -0.1231
     68  CA        60.6420   65.2440   15.0970 C.3   250  ALA250      0.1694
     69  C         60.7320   64.6440   13.6860 C.2   250  ALA250      0.2592
     70  O         59.8950   63.8310   13.2930 O.2   250  ALA250     -0.2718
     71  CB        60.0710   66.6650   15.0420 C.3   250  ALA250      0.0304
     72  N         61.7530   65.0420   12.9330 N.am  251  GLY251     -0.1957
     73  CA        61.9290   64.5180   11.5880 C.3   251  GLY251      0.1869
     74  C         62.1280   63.0080   11.5780 C.2   251  GLY251      0.2309
     75  O         61.6120   62.3160   10.6990 O.2   251  GLY251     -0.2863
     76  N         58.8600   61.4050   12.2000 N.3   254  PHE254     -0.1241
     77  CA        58.0690   61.5550   10.9810 C.3   254  PHE254      0.1605
     78  C         58.4230   60.4350    9.9990 C.2   254  PHE254      0.2264
     79  O         57.5580   59.6830    9.5490 O.2   254  PHE254     -0.2867
     80  CB        58.3680   62.8990   10.3070 C.3   254  PHE254      0.0534
     81  CG        57.5900   63.1170    9.0360 C.ar  254  PHE254     -0.0203
     82  CD1       56.3770   63.8080    9.0520 C.ar  254  PHE254     -0.0042
     83  CD2       58.0620   62.6130    7.8240 C.ar  254  PHE254     -0.0042
     84  CE1       55.6450   63.9990    7.8750 C.ar  254  PHE254     -0.0003
     85  CE2       57.3380   62.7960    6.6460 C.ar  254  PHE254     -0.0003
     86  CZ        56.1260   63.4920    6.6730 C.ar  254  PHE254     -0.0000
     87  N         52.7270   62.4070   10.2240 N.3   276  ASN276     -0.1240
     88  CA        52.4670   63.6600   10.9410 C.3   276  ASN276      0.1653
     89  C         52.0230   63.3640   12.3700 C.2   276  ASN276      0.2266
     90  O         52.4030   64.0650   13.3020 O.2   276  ASN276     -0.2867
     91  CB        51.3770   64.4810   10.2470 C.3   276  ASN276      0.1155
     92  CG        51.8980   65.2760    9.0760 C.2   276  ASN276      0.2627
     93  OD1       53.0030   65.8080    9.1120 O.2   276  ASN276     -0.2716
     94  ND2       51.0890   65.3870    8.0360 N.am  276  ASN276     -0.0877
     95  N         55.0780   62.0860   14.4770 N.3   279  ALA279     -0.1231
     96  CA        55.9170   63.2410   14.7480 C.3   279  ALA279      0.1694
     97  C         55.2510   64.1800   15.7590 C.2   279  ALA279      0.2591
     98  O         55.9140   64.7420   16.6260 O.2   279  ALA279     -0.2718
     99  CB        56.2050   63.9800   13.4480 C.3   279  ALA279      0.0304
    100  N         53.9390   64.3420   15.6440 N.am  280  ALA280     -0.1980
    101  CA        53.1940   65.2090   16.5520 C.3   280  ALA280      0.1597
    102  C         53.3450   64.7300   17.9930 C.2   280  ALA280      0.2287
    103  O         53.5860   65.5220   18.8920 O.2   280  ALA280     -0.2864
    104  CB        51.7290   65.2310   16.1650 C.3   280  ALA280      0.0319
    105  N         56.8370   65.6490   19.5450 N.3   283  VAL283     -0.1245
    106  CA        57.1380   67.0320   19.8930 C.3   283  VAL283      0.1561
    107  C         56.4540   67.4320   21.1970 C.2   283  VAL283      0.2260
    108  O         56.7540   68.4760   21.7670 O.2   283  VAL283     -0.2867
    109  CB        56.7080   68.0030   18.7770 C.3   283  VAL283      0.0252
    110  CG1       57.4240   67.6460   17.4820 C.3   283  VAL283      0.0019
    111  CG2       55.2060   67.9570   18.5920 C.3   283  VAL283      0.0019
@<TRIPOS>BOND
     1     4     3    2
     2     9    10    1
     3     1     2    1
     4     3     2    1
     5     2     5    1
     6    10    11    1
     7    10    13    1
     8    12    11    2
     9    85    86   ar
    10    85    83   ar
    11    86    84   ar
    12     5     6    1
    13    17    16    1
    14    14    13    1
    15    14    15    1
    16    33    34    2
    17    33    32    1
    18     8     6   am
    19    83    81   ar
    20    84    82   ar
    21     6     7    2
    22    94    92   am
    23    32    31    1
    24    16    15    1
    25    81    82   ar
    26    81    80    1
    27    92    93    2
    28    92    91    1
    29    18    19    1
    30    35    36    1
    31    79    78    2
    32    78    77    1
    33    87    88    1
    34    91    88    1
    35    80    77    1
    36    19    20    1
    37    36    39    1
    38    36    37    1
    39    21    20    2
    40    75    74    2
    41    24    25    2
    42    24    23    1
    43    20    22   am
    44    88    89    1
    45    77    76    1
    46    38    37    2
    47    22    23    1
    48    37    40   am
    49    74    73    1
    50    73    72    1
    51    23    26    1
    52    26    27    1
    53    89    90    2
    54    40    41    1
    55    27    28    1
    56    72    69   am
    57    70    69    2
    58    99    96    1
    59    41    42    1
    60    41    44    1
    61    69    68    1
    62    28    29    1
    63    46    44    1
    64    42    43    2
    65    95    96    1
    66    44    45    1
    67    96    97    1
    68    29    30    1
    69    71    68    1
    70    68    67    1
    71   100    97   am
    72   100   101    1
    73    97    98    2
    74   104   101    1
    75    65    64    1
    76   101   102    1
    77    63    62    2
    78    64    66    1
    79    64    61    1
    80   110   109    1
    81    62    61    1
    82    54    52    1
    83   102   103    2
    84    61    60    1
    85    47    48    1
    86    50    49    2
    87    51    52    1
    88    51    53    1
    89    51    48    1
    90   111   109    1
    91   109   106    1
    92    48    49    1
    93    59    56    1
    94   105   106    1
    95   106   107    1
    96    55    56    1
    97    56    57    1
    98   107   108    2
    99    57    58    2
