@<TRIPOS>MOLECULE
tmp/3in4A00.pdb
 180 173 0 0 0
SMALL
GASTEIGER

@<TRIPOS>ATOM
      1  N          5.1490    2.0780   12.8150 N.3    14  GLY14      -0.1210
      2  CA         5.6920    1.7100   14.1100 C.3    14  GLY14       0.1956
      3  C          5.8760    0.2170   14.3000 C.2    14  GLY14       0.2612
      4  O          6.4750   -0.2240   15.2820 O.2    14  GLY14      -0.2717
      5  N          5.3690   -0.5680   13.3560 N.am   15  GLN15      -0.1965
      6  CA         5.4020   -2.0210   13.4880 C.3    15  GLN15       0.1733
      7  C          6.2420   -2.7040   12.4080 C.2    15  GLN15       0.2616
      8  O          6.1270   -3.9120   12.1920 O.2    15  GLN15      -0.2715
      9  CB         3.9780   -2.5810   13.5130 C.3    15  GLN15       0.0408
     10  CG         3.1600   -2.0940   14.7030 C.3    15  GLN15       0.0908
     11  CD         1.7040   -2.5160   14.6370 C.2    15  GLN15       0.2608
     12  OE1        1.1620   -2.7640   13.5600 O.2    15  GLN15      -0.2717
     13  NE2        1.0600   -2.5910   15.7960 N.am   15  GLN15      -0.0878
     14  N          7.0790   -1.9220   11.7320 N.am   16  GLY16      -0.1955
     15  CA         8.0620   -2.4620   10.8100 C.3    16  GLY16       0.1869
     16  C          7.6070   -2.6250    9.3740 C.2    16  GLY16       0.2309
     17  O          6.4120   -2.5870    9.0770 O.2    16  GLY16      -0.2863
     18  N          9.2010   -9.5250    8.0940 N.3    33  LEU33      -0.1245
     19  CA         9.8400   -8.2540    8.4360 C.3    33  LEU33       0.1561
     20  C         11.2850   -8.1780    7.9450 C.2    33  LEU33       0.2260
     21  O         12.0950   -9.0620    8.2240 O.2    33  LEU33      -0.2867
     22  CB         9.8090   -8.0280    9.9480 C.3    33  LEU33       0.0270
     23  CG        10.5980   -6.8130   10.4420 C.3    33  LEU33       0.0019
     24  CD1        9.7190   -5.5760   10.4440 C.3    33  LEU33       0.0001
     25  CD2       11.1610   -7.0650   11.8290 C.3    33  LEU33       0.0001
     26  N         14.7760   -6.8900    8.3390 N.3    35  ASP35      -0.1239
     27  CA        15.4790   -6.4760    9.5480 C.3    35  ASP35       0.1674
     28  C         16.9940   -6.4680    9.3580 C.2    35  ASP35       0.2266
     29  O         17.6160   -7.5230    9.2550 O.2    35  ASP35      -0.2867
     30  CB        15.1120   -7.4220   10.6940 C.3    35  ASP35       0.1410
     31  CG        15.6870   -6.9860   12.0260 C.2    35  ASP35       0.3668
     32  OD1       16.0860   -5.8110   12.1550 O.co2  35  ASP35      -0.2456
     33  OD2       15.7330   -7.8250   12.9500 O.co2  35  ASP35      -0.2456
     34  N         18.9130   -5.3730   11.5990 N.3    37  GLY37      -0.1210
     35  CA        19.4240   -5.4070   12.9590 C.3    37  GLY37       0.1956
     36  C         19.5220   -6.8010   13.5530 C.2    37  GLY37       0.2612
     37  O         19.7120   -6.9520   14.7590 O.2    37  GLY37      -0.2717
     38  N         19.3810   -7.8210   12.7120 N.am   38  SER38      -0.1952
     39  CA        19.5750   -9.2020   13.1470 C.3    38  SER38       0.1924
     40  C         20.0200  -10.0610   11.9700 C.2    38  SER38       0.2314
     41  O         20.0790   -9.5870   10.8350 O.2    38  SER38      -0.2863
     42  CB        18.3070   -9.7710   13.7940 C.3    38  SER38       0.2116
     43  OG        17.3090  -10.0380   12.8280 O.3    38  SER38      -0.2180
     44  N         19.1380  -13.7270   11.8070 N.3    40  ASN40      -0.1240
     45  CA        18.3760  -14.9630   11.7110 C.3    40  ASN40       0.1653
     46  C         17.1830  -14.8260   10.7790 C.2    40  ASN40       0.2266
     47  O         16.4850  -13.8150   10.7920 O.2    40  ASN40      -0.2867
     48  CB        17.8760  -15.3990   13.0900 C.3    40  ASN40       0.1155
     49  CG        18.9270  -16.1420   13.8850 C.2    40  ASN40       0.2627
     50  OD1       19.8100  -15.5350   14.4890 O.2    40  ASN40      -0.2716
     51  ND2       18.8270  -17.4670   13.9020 N.am   40  ASN40      -0.0877
     52  N         13.8920  -16.1430   10.9080 N.3    42  ALA42      -0.1245
     53  CA        13.0600  -16.7960   11.9100 C.3    42  ALA42       0.1562
     54  C         11.5850  -16.5660   11.6180 C.2    42  ALA42       0.2260
     55  O         11.1430  -15.4290   11.4530 O.2    42  ALA42      -0.2867
     56  CB        13.4180  -16.2950   13.3040 C.3    42  ALA42       0.0290
     57  N         16.5170  -18.0640   22.1370 N.3    72  VAL72      -0.1231
     58  CA        17.0130  -16.6970   22.1980 C.3    72  VAL72       0.1678
     59  C         16.1910  -15.8380   23.1530 C.2    72  VAL72       0.2434
     60  O         15.1850  -15.2500   22.7650 O.2    72  VAL72      -0.2733
     61  CB        17.0170  -16.0500   20.8020 C.3    72  VAL72       0.0265
     62  CG1       17.7370  -14.7160   20.8390 C.3    72  VAL72       0.0020
     63  CG2       17.6700  -16.9810   19.7890 C.3    72  VAL72       0.0020
     64  N         16.6260  -15.7640   24.4140 N.am   73  PRO73      -0.2718
     65  CA        15.9930  -14.9320   25.4350 C.3    73  PRO73       0.1535
     66  C         16.5830  -13.5210   25.4850 C.2    73  PRO73       0.2598
     67  O         17.7250  -13.2950   25.0850 O.2    73  PRO73      -0.2715
     68  CB        16.3280  -15.6870   26.7110 C.3    73  PRO73       0.0310
     69  CG        17.7030  -16.1830   26.4480 C.3    73  PRO73       0.0237
     70  CD        17.7930  -16.4760   24.9610 C.3    73  PRO73       0.0939
     71  N         15.7810  -12.5820   25.9750 N.am   74  TYR74      -0.1974
     72  CA        16.2090  -11.2030   26.1710 C.3    74  TYR74       0.1639
     73  C         15.3180  -10.6010   27.2520 C.2    74  TYR74       0.2290
     74  O         14.7540  -11.3340   28.0620 O.2    74  TYR74      -0.2864
     75  CB        16.1250  -10.4130   24.8630 C.3    74  TYR74       0.0560
     76  CG        14.8140  -10.5780   24.1360 C.ar   74  TYR74      -0.0198
     77  CD1       13.8040   -9.6340   24.2640 C.ar   74  TYR74      -0.0009
     78  CD2       14.5780  -11.6820   23.3260 C.ar   74  TYR74      -0.0009
     79  CE1       12.6010   -9.7820   23.6060 C.ar   74  TYR74       0.0417
     80  CE2       13.3770  -11.8380   22.6610 C.ar   74  TYR74       0.0417
     81  CZ        12.3910  -10.8850   22.8060 C.ar   74  TYR74       0.1957
     82  OH        11.1920  -11.0360   22.1480 O.3    74  TYR74      -0.2866
     83  N         12.3950  -15.9210   22.1460 N.3    79  TRP79      -0.1241
     84  CA        11.9130  -16.7790   21.0720 C.3    79  TRP79       0.1605
     85  C         12.6500  -18.1150   21.0290 C.2    79  TRP79       0.2264
     86  O         13.8730  -18.1700   21.1450 O.2    79  TRP79      -0.2867
     87  CB        11.8810  -16.0640   19.7040 C.3    79  TRP79       0.0550
     88  CG        13.2080  -15.7290   19.0700 C.ar   79  TRP79       0.0003
     89  CD1       13.9080  -14.5600   19.1930 C.ar   79  TRP79       0.0946
     90  CD2       13.9600  -16.5480   18.1710 C.ar   79  TRP79       0.0152
     91  NE1       15.0580  -14.6150   18.4470 N.ar   79  TRP79      -0.2442
     92  CE2       15.1140  -15.8250   17.8100 C.ar   79  TRP79       0.0810
     93  CE3       13.7770  -17.8300   17.6480 C.ar   79  TRP79       0.0012
     94  CZ2       16.0730  -16.3370   16.9550 C.ar   79  TRP79       0.0191
     95  CZ3       14.7290  -18.3360   16.8010 C.ar   79  TRP79       0.0001
     96  CH2       15.8660  -17.5920   16.4610 C.ar   79  TRP79       0.0015
     97  N          7.2530  -11.3070   21.2910 N.3   111  PHE111     -0.1241
     98  CA         8.0430  -11.2520   20.0660 C.3   111  PHE111      0.1605
     99  C          7.2050  -10.7310   18.8990 C.2   111  PHE111      0.2264
    100  O          7.5720   -9.7530   18.2470 O.2   111  PHE111     -0.2867
    101  CB         8.6160  -12.6360   19.7510 C.3   111  PHE111      0.0534
    102  CG         9.4110  -12.6960   18.4760 C.ar  111  PHE111     -0.0203
    103  CD1       10.6960  -12.1840   18.4180 C.ar  111  PHE111     -0.0042
    104  CD2        8.8770  -13.2830   17.3410 C.ar  111  PHE111     -0.0042
    105  CE1       11.4280  -12.2470   17.2470 C.ar  111  PHE111     -0.0003
    106  CE2        9.6060  -13.3480   16.1660 C.ar  111  PHE111     -0.0003
    107  CZ        10.8800  -12.8320   16.1200 C.ar  111  PHE111     -0.0000
    108  N          3.7170   -9.0870   17.0620 N.3   113  ILE113     -0.1245
    109  CA         2.9490   -7.8750   17.3290 C.3   113  ILE113      0.1561
    110  C          1.5160   -7.9910   16.8160 C.2   113  ILE113      0.2260
    111  O          1.2830   -8.4520   15.6990 O.2   113  ILE113     -0.2867
    112  CB         3.6140   -6.6440   16.6810 C.3   113  ILE113      0.0252
    113  CG1        5.0350   -6.4600   17.2170 C.3   113  ILE113      0.0019
    114  CG2        2.7810   -5.3920   16.9170 C.3   113  ILE113      0.0019
    115  CD1        5.7890   -5.3410   16.5480 C.3   113  ILE113      0.0001
    116  N          2.8070   -9.2920    9.7600 N.3   118  TRP118     -0.1241
    117  CA         3.9320  -10.1480    9.3770 C.3   118  TRP118      0.1605
    118  C          4.0380  -11.3670   10.2880 C.2   118  TRP118      0.2264
    119  O          3.6130  -11.3300   11.4440 O.2   118  TRP118     -0.2867
    120  CB         5.2670   -9.3880    9.2910 C.3   118  TRP118      0.0550
    121  CG         5.6120   -8.5260   10.4730 C.ar  118  TRP118      0.0003
    122  CD1        5.3780   -7.1880   10.6040 C.ar  118  TRP118      0.0946
    123  CD2        6.2820   -8.9340   11.6720 C.ar  118  TRP118      0.0152
    124  NE1        5.8460   -6.7410   11.8150 N.ar  118  TRP118     -0.2442
    125  CE2        6.4060   -7.7920   12.4910 C.ar  118  TRP118      0.0810
    126  CE3        6.7820  -10.1550   12.1380 C.ar  118  TRP118      0.0012
    127  CZ2        7.0080   -7.8360   13.7480 C.ar  118  TRP118      0.0191
    128  CZ3        7.3800  -10.1950   13.3870 C.ar  118  TRP118      0.0001
    129  CH2        7.4870   -9.0430   14.1770 C.ar  118  TRP118      0.0015
    130  N         10.6890  -12.9880   10.5800 N.3   121  ILE121     -0.1245
    131  CA        11.7340  -11.9820   10.4680 C.3   121  ILE121      0.1561
    132  C         12.8720  -12.4390    9.5630 C.2   121  ILE121      0.2260
    133  O         13.3610  -13.5620    9.6790 O.2   121  ILE121     -0.2867
    134  CB        12.2960  -11.6220   11.8520 C.3   121  ILE121      0.0252
    135  CG1       11.2620  -10.8180   12.6450 C.3   121  ILE121      0.0019
    136  CG2       13.5940  -10.8400   11.7200 C.3   121  ILE121      0.0019
    137  CD1       11.7120  -10.4630   14.0420 C.3   121  ILE121      0.0001
    138  N         22.0940  -16.6410   15.8040 N.3   131  ARG131     -0.1245
    139  CA        21.8620  -17.5850   16.8900 C.3   131  ARG131      0.1563
    140  C         21.6570  -18.9750   16.3010 C.2   131  ARG131      0.2260
    141  O         21.0280  -19.1090   15.2530 O.2   131  ARG131     -0.2867
    142  CB        20.6390  -17.1730   17.7070 C.3   131  ARG131      0.0307
    143  CG        20.7410  -15.7910   18.3250 C.3   131  ARG131      0.0489
    144  CD        21.9980  -15.6560   19.1710 C.3   131  ARG131      0.2205
    145  NE        21.7920  -14.7440   20.2920 N.pl3 131  ARG131     -0.0865
    146  CZ        21.2430  -15.1020   21.4490 C.cat 131  ARG131      0.5346
    147  NH1       20.8470  -16.3540   21.6370 N.pl3 131  ARG131      0.1354
    148  NH2       21.0880  -14.2120   22.4200 N.pl3 131  ARG131      0.1354
    149  N         19.5470    0.1130   11.6140 N.3   225  ASP225     -0.1225
    150  CA        18.6220   -0.9830   11.8920 C.3   225  ASP225      0.1805
    151  C         17.1930   -0.7170   11.4260 C.2   225  ASP225      0.2598
    152  O         16.4570    0.0400   12.0610 O.2   225  ASP225     -0.2718
    153  CB        18.6290   -1.3010   13.3890 C.3   225  ASP225      0.1424
    154  CG        17.7160   -2.4560   13.7440 C.2   225  ASP225      0.3668
    155  OD1       17.2700   -3.1700   12.8210 O.co2 225  ASP225     -0.2456
    156  OD2       17.4490   -2.6540   14.9460 O.co2 225  ASP225     -0.2456
    157  N         16.7960   -1.3560   10.3290 N.am  226  SER226     -0.1938
    158  CA        15.4300   -1.2310    9.8290 C.3   226  SER226      0.2055
    159  C         14.4430   -1.8940   10.7870 C.2   226  SER226      0.2644
    160  O         13.2440   -1.6400   10.7280 O.2   226  SER226     -0.2714
    161  CB        15.2980   -1.8310    8.4260 C.3   226  SER226      0.2130
    162  OG        15.5180   -3.2300    8.4470 O.3   226  SER226     -0.2179
    163  N         14.9620   -2.7380   11.6740 N.am  227  GLY227     -0.1939
    164  CA        14.1380   -3.4330   12.6480 C.3   227  GLY227      0.2014
    165  C         13.9250   -2.6350   13.9220 C.2   227  GLY227      0.2640
    166  O         13.4850   -3.1690   14.9400 O.2   227  GLY227     -0.2714
    167  N         14.2530   -1.3490   13.8600 N.am  228  THR228     -0.1936
    168  CA        14.0170   -0.4340   14.9690 C.3   228  THR228      0.2028
    169  C         13.2640    0.7790   14.4430 C.2   228  THR228      0.2642
    170  O         13.6540    1.3680   13.4370 O.2   228  THR228     -0.2714
    171  CB        15.3390    0.0280   15.6180 C.3   228  THR228      0.1808
    172  OG1       15.9590   -1.0730   16.2920 O.3   228  THR228     -0.2208
    173  CG2       15.0850    1.1520   16.6200 C.3   228  THR228      0.0379
    174  N         12.1820    1.1480   15.1180 N.am  229  THR229     -0.1950
    175  CA        11.3630    2.2680   14.6690 C.3   229  THR229      0.1897
    176  C         12.0460    3.6130   14.8970 C.2   229  THR229      0.2313
    177  O         12.1420    4.4340   13.9840 O.2   229  THR229     -0.2863
    178  CB         9.9890    2.2880   15.3680 C.3   229  THR229      0.1794
    179  OG1        9.2250    1.1490   14.9590 O.3   229  THR229     -0.2208
    180  CG2        9.2290    3.5590   15.0090 C.3   229  THR229      0.0378
@<TRIPOS>BOND
     1    20    21    2
     2    20    19    1
     3    18    19    1
     4    26    27    1
     5   161   162    1
     6   161   158    1
     7    19    22    1
     8    17    16    2
     9    29    28    2
    10   120   117    1
    11   120   121    1
    12    28    27    1
    13    16    15    1
    14   117   116    1
    15   117   118    1
    16    27    30    1
    17   132   133    2
    18   132   131    1
    19   158   157    1
    20   158   159    1
    21    22    23    1
    22   118   119    2
    23   157   151   am
    24    23    24    1
    25    23    25    1
    26   131   130    1
    27   131   134    1
    28   121   122   ar
    29   121   123   ar
    30   122   124   ar
    31    30    31    1
    32   160   159    2
    33    46    47    2
    34    46    45    1
    35   159   163   am
    36    15    14    1
    37    41    40    2
    38    52    53    1
    39   151   150    1
    40   151   152    2
    41    55    54    2
    42    34    35    1
    43   149   150    1
    44    54    53    1
    45   123   126   ar
    46   123   125   ar
    47   163   164    1
    48    45    44    1
    49    45    48    1
    50   136   134    1
    51    14     7   am
    52   124   125   ar
    53   134   135    1
    54   150   153    1
    55    53    56    1
    56    40    39    1
    57    31    32   ar
    58    31    33   ar
    59   126   128   ar
    60     8     7    2
    61     7     6    1
    62   125   127   ar
    63   135   137    1
    64   164   165    1
    65    38    39    1
    66    38    36   am
    67     1     2    1
    68   155   154   ar
    69    43    42    1
    70    35    36    1
    71    48    49    1
    72    39    42    1
    73     5     6    1
    74     5     3   am
    75   128   129   ar
    76   153   154    1
    77   170   169    2
    78     6     9    1
    79     9    10    1
    80    36    37    2
    81    12    11    2
    82   154   156   ar
    83   127   129   ar
    84   167   165   am
    85   167   168    1
    86    49    51   am
    87    49    50    2
    88   165   166    2
    89   177   176    2
    90     2     3    1
    91     3     4    2
    92   169   168    1
    93   169   174   am
    94    11    10    1
    95    11    13   am
    96   175   176    1
    97   175   174    1
    98   175   178    1
    99   179   178    1
   100   168   171    1
   101   180   178    1
   102   141   140    2
   103   171   172    1
   104   171   173    1
   105   111   110    2
   106   138   139    1
   107   107   106   ar
   108   107   105   ar
   109   106   104   ar
   110   140   139    1
   111    96    95   ar
   112    96    94   ar
   113   115   113    1
   114   112   114    1
   115   112   113    1
   116   112   109    1
   117    95    93   ar
   118   110   109    1
   119   139   142    1
   120    94    92   ar
   121   108   109    1
   122   105   103   ar
   123   104   102   ar
   124    93    90   ar
   125   142   143    1
   126    92    90   ar
   127    92    91   ar
   128    90    88   ar
   129   100    99    2
   130   143   144    1
   131   103   102   ar
   132    91    89   ar
   133   102   101    1
   134    99    98    1
   135    88    89   ar
   136    88    87    1
   137   144   145    1
   138    87    84    1
   139   101    98    1
   140    63    61    1
   141    98    97    1
   142   145   146    2
   143    61    62    1
   144    61    58    1
   145    85    84    1
   146    85    86    2
   147    84    83    1
   148   146   147    1
   149   146   148    1
   150    57    58    1
   151    82    81    1
   152    58    59    1
   153    80    81   ar
   154    80    78   ar
   155    60    59    2
   156    81    79   ar
   157    59    64   am
   158    78    76   ar
   159    79    77   ar
   160    76    77   ar
   161    76    75    1
   162    64    70    1
   163    64    65    1
   164    75    72    1
   165    70    69    1
   166    67    66    2
   167    65    66    1
   168    65    68    1
   169    66    71   am
   170    71    72    1
   171    72    73    1
   172    69    68    1
   173    73    74    2
