@<TRIPOS>MOLECULE
tmp/3in6A00.pdb
 135 133 0 0 0
SMALL
GASTEIGER

@<TRIPOS>ATOM
      1  N        -19.0400  -32.7870   23.5540 N.3    29  ILE29      -0.1245
      2  CA       -19.6970  -31.5910   23.0230 C.3    29  ILE29       0.1561
      3  C        -18.6680  -30.8220   22.1970 C.2    29  ILE29       0.2260
      4  O        -18.9570  -30.3500   21.0940 O.2    29  ILE29      -0.2867
      5  CB       -20.2040  -30.6710   24.1560 C.3    29  ILE29       0.0252
      6  CG1      -21.2650  -31.3680   25.0060 C.3    29  ILE29       0.0019
      7  CG2      -20.8160  -29.3950   23.6050 C.3    29  ILE29       0.0019
      8  CD1      -21.7410  -30.5320   26.2040 C.3    29  ILE29       0.0001
      9  N        -16.2300  -23.5480    6.3780 N.3    43  ASN43      -0.1225
     10  CA       -17.1990  -23.5510    7.4590 C.3    43  ASN43       0.1785
     11  C        -16.7040  -24.4920    8.5330 C.2    43  ASN43       0.2597
     12  O        -15.8610  -25.3610    8.2760 O.2    43  ASN43      -0.2718
     13  CB       -18.5700  -24.0520    6.9790 C.3    43  ASN43       0.1169
     14  CG       -19.6870  -23.7600    7.9880 C.2    43  ASN43       0.2627
     15  OD1      -19.6980  -22.7020    8.5970 O.2    43  ASN43      -0.2716
     16  ND2      -20.6270  -24.6940    8.1550 N.am   43  ASN43      -0.0877
     17  N        -17.2330  -24.2910    9.7300 N.am   44  ILE44      -0.1966
     18  CA       -17.0200  -25.1520   10.8810 C.3    44  ILE44       0.1727
     19  C        -18.3510  -25.2430   11.6620 C.2    44  ILE44       0.2616
     20  O        -19.1060  -24.2650   11.7680 O.2    44  ILE44      -0.2715
     21  CB       -15.8950  -24.6610   11.7750 C.3    44  ILE44       0.0290
     22  CG1      -15.6450  -25.6850   12.8960 C.3    44  ILE44       0.0022
     23  CG2      -16.1950  -23.2580   12.2970 C.3    44  ILE44       0.0023
     24  CD1      -14.4450  -25.4130   13.7230 C.3    44  ILE44       0.0001
     25  N        -18.6460  -26.4310   12.1750 N.am   45  ALA45      -0.1963
     26  CA       -19.8750  -26.6630   12.9120 C.3    45  ALA45       0.1728
     27  C        -19.6230  -27.6870   14.0050 C.2    45  ALA45       0.2616
     28  O        -18.7430  -28.5600   13.8640 O.2    45  ALA45      -0.2715
     29  CB       -20.9780  -27.1620   11.9570 C.3    45  ALA45       0.0334
     30  N        -20.3790  -27.5700   15.0970 N.am   46  VAL46      -0.1963
     31  CA       -20.3100  -28.5390   16.1840 C.3    46  VAL46       0.1727
     32  C        -21.0590  -29.8120   15.7400 C.2    46  VAL46       0.2616
     33  O        -22.2180  -29.7430   15.3170 O.2    46  VAL46      -0.2715
     34  CB       -20.9140  -27.9890   17.4830 C.3    46  VAL46       0.0290
     35  CG1      -20.8790  -29.0470   18.5570 C.3    46  VAL46       0.0023
     36  CG2      -20.1610  -26.7270   17.9230 C.3    46  VAL46       0.0023
     37  N        -20.3770  -30.9540   15.8230 N.am   47  ILE47      -0.1963
     38  CA       -20.9100  -32.2480   15.3800 C.3    47  ILE47       0.1727
     39  C        -20.4210  -33.3560   16.3060 C.2    47  ILE47       0.2617
     40  O        -19.2410  -33.7400   16.2300 O.2    47  ILE47      -0.2715
     41  CB       -20.4060  -32.5820   13.9370 C.3    47  ILE47       0.0290
     42  CG1      -20.7980  -31.4780   12.9560 C.3    47  ILE47       0.0022
     43  CG2      -20.9460  -33.9270   13.4610 C.3    47  ILE47       0.0023
     44  CD1      -22.3080  -31.1500   12.8960 C.3    47  ILE47       0.0001
     45  N        -21.2960  -33.8740   17.1660 N.am   48  SER48      -0.1936
     46  CA       -20.8870  -34.9320   18.0940 C.3    48  SER48       0.2055
     47  C        -21.6100  -36.3060   17.9790 C.2    48  SER48       0.2642
     48  O        -21.2010  -37.2400   18.6810 O.2    48  SER48      -0.2714
     49  CB       -20.9730  -34.4280   19.5420 C.3    48  SER48       0.2130
     50  OG       -22.3200  -34.2600   19.9440 O.3    48  SER48      -0.2179
     51  N        -22.6660  -36.4580   17.1610 N.am   49  VAL49      -0.1977
     52  CA       -23.3020  -37.7920   17.0330 C.3    49  VAL49       0.1596
     53  C        -22.4700  -38.6100   16.0340 C.2    49  VAL49       0.2287
     54  O        -22.8280  -38.7590   14.8500 O.2    49  VAL49      -0.2864
     55  CB       -24.7750  -37.7280   16.6260 C.3    49  VAL49       0.0276
     56  CG1      -25.3730  -39.1440   16.6090 C.3    49  VAL49       0.0022
     57  CG2      -25.5450  -36.8590   17.5950 C.3    49  VAL49       0.0022
     58  N        -21.5930  -40.5200   10.8890 N.3    59  CYS59      -0.1221
     59  CA       -22.1000  -39.3450   11.5250 C.3    59  CYS59       0.1808
     60  C        -23.5730  -39.1460   11.1790 C.2    59  CYS59       0.2601
     61  O        -23.9790  -39.3360   10.0140 O.2    59  CYS59      -0.2717
     62  CB       -21.2210  -38.2380   10.9490 C.3    59  CYS59       0.0970
     63  SG       -21.7810  -36.6080   11.0190 S.3    59  CYS59      -0.0800
     64  N        -24.3650  -38.7860   12.1870 N.am   60  ALA60      -0.1965
     65  CA       -25.7800  -38.5150   11.9930 C.3    60  ALA60       0.1728
     66  C        -25.9380  -37.1030   11.4590 C.2    60  ALA60       0.2616
     67  O        -25.4010  -36.1610   12.0350 O.2    60  ALA60      -0.2715
     68  CB       -26.5310  -38.6440   13.2960 C.3    60  ALA60       0.0334
     69  N        -26.6530  -36.9460   10.3570 N.am   61  ARG61      -0.1963
     70  CA       -26.9210  -35.6160    9.8580 C.3    61  ARG61       0.1729
     71  C        -28.3990  -35.2680   10.0930 C.2    61  ARG61       0.2616
     72  O        -29.3040  -35.8270    9.4500 O.2    61  ARG61      -0.2715
     73  CB       -26.5150  -35.4870    8.3980 C.3    61  ARG61       0.0348
     74  CG       -26.5470  -34.0510    7.8900 C.3    61  ARG61       0.0492
     75  CD       -27.8510  -33.7810    7.2150 C.3    61  ARG61       0.2205
     76  NE       -28.1700  -32.3690    7.0370 N.pl3  61  ARG61      -0.0865
     77  CZ       -29.0180  -31.9260    6.1170 C.cat  61  ARG61       0.5346
     78  NH1      -29.5970  -32.7770    5.2810 N.pl3  61  ARG61       0.1354
     79  NH2      -29.2740  -30.6300    6.0130 N.pl3  61  ARG61       0.1354
     80  N        -28.6240  -34.3780   11.0620 N.am   62  PHE62      -0.1960
     81  CA       -29.9610  -33.8950   11.3990 C.3    62  PHE62       0.1771
     82  C        -30.0790  -32.3660   11.2710 C.2    62  PHE62       0.2620
     83  O        -31.1560  -31.8670   10.9560 O.2    62  PHE62      -0.2715
     84  CB       -30.4260  -34.4090   12.7690 C.3    62  PHE62       0.0574
     85  CG       -29.5120  -34.0690   13.9160 C.ar   62  PHE62      -0.0200
     86  CD1      -28.4480  -34.9070   14.2510 C.ar   62  PHE62      -0.0042
     87  CD2      -29.7500  -32.9430   14.7080 C.ar   62  PHE62      -0.0042
     88  CE1      -27.6130  -34.6060   15.3410 C.ar   62  PHE62      -0.0003
     89  CE2      -28.9190  -32.6320   15.7970 C.ar   62  PHE62      -0.0003
     90  CZ       -27.8510  -33.4640   16.1100 C.ar   62  PHE62      -0.0000
     91  N        -28.9910  -31.6310   11.5220 N.am   63  GLY63      -0.1940
     92  CA       -28.9530  -30.1820   11.3140 C.3    63  GLY63       0.2014
     93  C        -27.8650  -29.9670   10.2830 C.2    63  GLY63       0.2639
     94  O        -27.9270  -30.5280    9.1710 O.2    63  GLY63      -0.2714
     95  N        -26.8810  -29.1400   10.6310 N.am   64  ALA64      -0.1963
     96  CA       -25.6820  -28.9840    9.8240 C.3    64  ALA64       0.1728
     97  C        -25.9080  -28.8420    8.3170 C.2    64  ALA64       0.2616
     98  O        -25.2680  -29.5390    7.5390 O.2    64  ALA64      -0.2715
     99  CB       -24.7600  -30.1850   10.1120 C.3    64  ALA64       0.0334
    100  N        -26.7850  -27.9190    7.9210 N.am   65  ASP65      -0.1957
    101  CA       -27.1500  -27.6920    6.5040 C.3    65  ASP65       0.1840
    102  C        -26.0100  -27.2300    5.5960 C.2    65  ASP65       0.2622
    103  O        -25.8270  -27.7750    4.5140 O.2    65  ASP65      -0.2715
    104  CB       -28.2640  -26.6430    6.4110 C.3    65  ASP65       0.1450
    105  CG       -29.5810  -27.0950    7.0480 C.2    65  ASP65       0.3671
    106  OD1      -29.8130  -28.3130    7.1830 O.co2  65  ASP65      -0.2456
    107  OD2      -30.3940  -26.2060    7.3870 O.co2  65  ASP65      -0.2456
    108  N        -25.2650  -26.2110    6.0160 N.am   66  LYS66      -0.1963
    109  CA       -24.1390  -25.6850    5.2280 C.3    66  LYS66       0.1728
    110  C        -23.0210  -26.7350    5.1640 C.2    66  LYS66       0.2616
    111  O        -22.4690  -27.0070    4.0950 O.2    66  LYS66      -0.2715
    112  CB       -23.6550  -24.3690    5.8340 C.3    66  LYS66       0.0311
    113  CG       -22.6070  -23.5380    5.0560 C.3    66  LYS66       0.0038
    114  CD       -23.0900  -23.1250    3.6750 C.3    66  LYS66       0.0206
    115  CE       -22.8490  -21.6160    3.3670 C.3    66  LYS66       0.1093
    116  NZ       -21.4700  -21.1740    3.6180 N.3    66  LYS66      -0.1314
    117  N        -22.7060  -27.3220    6.3110 N.am   67  THR67      -0.1951
    118  CA       -21.7350  -28.4260    6.4130 C.3    67  THR67       0.1897
    119  C        -22.0520  -29.5300    5.4080 C.2    67  THR67       0.2313
    120  O        -21.1660  -30.0030    4.6740 O.2    67  THR67      -0.2863
    121  CB       -21.7490  -29.0050    7.8340 C.3    67  THR67       0.1794
    122  OG1      -21.3270  -27.9710    8.7280 O.3    67  THR67      -0.2208
    123  CG2      -20.8040  -30.2040    7.9810 C.3    67  THR67       0.0378
    124  N        -30.6230  -34.9520   21.1810 N.3   120  TYR120     -0.1241
    125  CA       -31.1160  -34.7240   19.8330 C.3   120  TYR120      0.1605
    126  C        -31.9490  -35.9030   19.3100 C.2   120  TYR120      0.2264
    127  O        -32.2400  -35.9680   18.1160 O.2   120  TYR120     -0.2867
    128  CB       -29.9310  -34.4110   18.9010 C.3   120  TYR120      0.0534
    129  CG       -29.0780  -33.2870   19.4430 C.ar  120  TYR120     -0.0201
    130  CD1      -29.5530  -31.9820   19.4530 C.ar  120  TYR120     -0.0009
    131  CD2      -27.8130  -33.5300   19.9700 C.ar  120  TYR120     -0.0009
    132  CE1      -28.7930  -30.9410   19.9630 C.ar  120  TYR120      0.0417
    133  CE2      -27.0370  -32.4920   20.4780 C.ar  120  TYR120      0.0417
    134  CZ       -27.5370  -31.1970   20.4730 C.ar  120  TYR120      0.1957
    135  OH       -26.7930  -30.1520   20.9750 O.3   120  TYR120     -0.2866
@<TRIPOS>BOND
     1   115   116    1
     2   115   114    1
     3   114   113    1
     4   111   110    2
     5   103   102    2
     6   120   119    2
     7   113   112    1
     8   110   109    1
     9   110   117   am
    10   109   112    1
    11   109   108    1
    12    78    77    1
    13   119   118    1
    14   102   108   am
    15   102   101    1
    16    79    77    1
    17    77    76    2
    18   117   118    1
    19     9    10    1
    20   104   101    1
    21   104   105    1
    22   118   121    1
    23   101   100    1
    24    13    10    1
    25    13    14    1
    26    76    75    1
    27   105   106   ar
    28   105   107   ar
    29    75    74    1
    30    10    11    1
    31    98    97    2
    32   121   123    1
    33   121   122    1
    34    74    73    1
    35   100    97   am
    36    14    16   am
    37    14    15    2
    38    12    11    2
    39    97    96    1
    40    73    70    1
    41    11    17   am
    42    94    93    2
    43    72    71    2
    44    17    18    1
    45    96    99    1
    46    96    95    1
    47    70    71    1
    48    70    69    1
    49    61    60    2
    50    71    80   am
    51    93    95   am
    52    93    92    1
    53    69    66   am
    54    18    19    1
    55    18    21    1
    56    58    59    1
    57    62    63    1
    58    62    59    1
    59    83    82    2
    60    80    81    1
    61    60    59    1
    62    60    64   am
    63    82    81    1
    64    82    91   am
    65    92    91    1
    66    81    84    1
    67    66    65    1
    68    66    67    2
    69    19    20    2
    70    19    25   am
    71    21    23    1
    72    21    22    1
    73    29    26    1
    74    65    64    1
    75    65    68    1
    76    25    26    1
    77    84    85    1
    78    44    42    1
    79    22    24    1
    80    26    27    1
    81    42    41    1
    82    43    41    1
    83    28    27    2
    84    85    86   ar
    85    85    87   ar
    86    41    38    1
    87    27    30   am
    88    86    88   ar
    89    87    89   ar
    90    54    53    2
    91    30    31    1
    92    33    32    2
    93    88    90   ar
    94    38    37    1
    95    38    39    1
    96    32    37   am
    97    32    31    1
    98    89    90   ar
    99    53    52    1
   100    31    34    1
   101    40    39    2
   102    39    45   am
   103    56    55    1
   104    55    52    1
   105    55    57    1
   106    52    51    1
   107    51    47   am
   108    45    46    1
   109    34    36    1
   110    34    35    1
   111    47    46    1
   112    47    48    2
   113    46    49    1
   114   127   126    2
   115   128   129    1
   116   128   125    1
   117   126   125    1
   118   129   130   ar
   119   129   131   ar
   120   130   132   ar
   121    49    50    1
   122   125   124    1
   123   132   134   ar
   124   131   133   ar
   125   134   133   ar
   126   134   135    1
   127     4     3    2
   128     3     2    1
   129     2     1    1
   130     2     5    1
   131     7     5    1
   132     5     6    1
   133     6     8    1
