@<TRIPOS>MOLECULE
tmp/3in7A00.pdb
 118 115 0 0 0
SMALL
GASTEIGER

@<TRIPOS>ATOM
      1  N         -9.8450   -6.5780   -1.8210 N.3    13  ARG13      -0.1245
      2  CA        -8.5820   -7.0640   -2.3860 C.3    13  ARG13       0.1563
      3  C         -8.4630   -6.6720   -3.8710 C.2    13  ARG13       0.2260
      4  O         -7.4190   -6.1800   -4.3010 O.2    13  ARG13      -0.2867
      5  CB        -8.5180   -8.5880   -2.2290 C.3    13  ARG13       0.0307
      6  CG        -7.2890   -9.2650   -2.8030 C.3    13  ARG13       0.0489
      7  CD        -7.4300  -10.7640   -2.6890 C.3    13  ARG13       0.2205
      8  NE        -6.4300  -11.4970   -3.4580 N.pl3  13  ARG13      -0.0865
      9  CZ        -5.3850  -12.1350   -2.9370 C.cat  13  ARG13       0.5346
     10  NH1       -5.1820  -12.1300   -1.6200 N.pl3  13  ARG13       0.1354
     11  NH2       -4.5440  -12.7840   -3.7390 N.pl3  13  ARG13       0.1354
     12  N         -4.4410   -2.8180    4.2970 N.3    32  ARG32      -0.1245
     13  CA        -5.8950   -2.8150    4.2990 C.3    32  ARG32       0.1563
     14  C         -6.4130   -3.7770    5.3510 C.2    32  ARG32       0.2260
     15  O         -5.6830   -4.6540    5.8130 O.2    32  ARG32      -0.2867
     16  CB        -6.4360   -3.1920    2.9160 C.3    32  ARG32       0.0307
     17  CG        -5.8600   -4.4820    2.3590 C.3    32  ARG32       0.0489
     18  CD        -6.2920   -4.7410    0.9340 C.3    32  ARG32       0.2205
     19  NE        -5.6040   -5.9170    0.4090 N.pl3  32  ARG32      -0.0865
     20  CZ        -5.9910   -7.1780    0.6000 C.cat  32  ARG32       0.5346
     21  NH1       -7.0850   -7.4580    1.3030 N.pl3  32  ARG32       0.1354
     22  NH2       -5.2530   -8.1690    0.1160 N.pl3  32  ARG32       0.1354
     23  N         -8.5170   -6.8090    6.1720 N.3    34  SER34      -0.1202
     24  CA        -8.9760   -8.0230    5.4970 C.3    34  SER34       0.2020
     25  C        -10.4650   -8.3140    5.6800 C.2    34  SER34       0.2619
     26  O        -11.0020   -8.2010    6.7850 O.2    34  SER34      -0.2717
     27  CB        -8.1390   -9.2190    5.9720 C.3    34  SER34       0.2103
     28  OG        -8.3880  -10.3920    5.2080 O.3    34  SER34      -0.2182
     29  N        -11.1240   -8.6380    4.5710 N.am   35  GLU35      -0.1965
     30  CA       -12.5490   -8.9730    4.5780 C.3    35  GLU35       0.1733
     31  C        -12.6760  -10.4840    4.7590 C.2    35  GLU35       0.2617
     32  O        -13.5730  -10.9650    5.4600 O.2    35  GLU35      -0.2715
     33  CB       -13.2170   -8.5470    3.2640 C.3    35  GLU35       0.0429
     34  CG       -13.0750   -7.0630    2.9250 C.3    35  GLU35       0.1163
     35  CD       -13.9240   -6.6440    1.7310 C.2    35  GLU35       0.3649
     36  OE1      -14.7770   -5.7470    1.9100 O.co2  35  GLU35      -0.2457
     37  OE2      -13.7410   -7.2100    0.6260 O.co2  35  GLU35      -0.2457
     38  N        -11.7250  -11.2050    4.1570 N.am   36  SER36      -0.1950
     39  CA       -11.6450  -12.6700    4.1890 C.3    36  SER36       0.1924
     40  C        -11.3140  -13.2200    5.5790 C.2    36  SER36       0.2314
     41  O        -11.6670  -14.3540    5.9130 O.2    36  SER36      -0.2863
     42  CB       -10.5990  -13.1490    3.1800 C.3    36  SER36       0.2116
     43  OG        -9.2990  -12.7170    3.5390 O.3    36  SER36      -0.2180
     44  N         -3.9510   -6.8280    5.9940 N.3    42  SER42      -0.1217
     45  CA        -3.2940   -7.3880    4.8240 C.3    42  SER42       0.1889
     46  C         -2.4310   -6.3280    4.1460 C.2    42  SER42       0.2288
     47  O         -2.7500   -5.1360    4.1570 O.2    42  SER42      -0.2866
     48  CB        -4.3220   -7.9410    3.8320 C.3    42  SER42       0.2089
     49  OG        -5.0580   -9.0310    4.3870 O.3    42  SER42      -0.2183
     50  N          1.4230   -8.2780   -5.3420 N.3    52  GLN52      -0.1231
     51  CA         1.5820   -9.3410   -4.3520 C.3    52  GLN52       0.1698
     52  C          0.8210   -9.0250   -3.0730 C.2    52  GLN52       0.2592
     53  O          0.6910   -7.8580   -2.6870 O.2    52  GLN52      -0.2718
     54  CB         3.0600   -9.5640   -4.0390 C.3    52  GLN52       0.0381
     55  CG         3.8540  -10.1880   -5.1890 C.3    52  GLN52       0.0905
     56  CD         5.3450  -10.2590   -4.9100 C.2    52  GLN52       0.2608
     57  OE1        6.1620  -10.2440   -5.8360 O.2    52  GLN52      -0.2717
     58  NE2        5.7110  -10.3310   -3.6320 N.am   52  GLN52      -0.0878
     59  N          0.2930  -10.0690   -2.4390 N.am   53  HIS53      -0.1962
     60  CA        -0.4650   -9.9180   -1.2020 C.3    53  HIS53       0.1787
     61  C          0.1750  -10.7020   -0.0700 C.2    53  HIS53       0.2620
     62  O          0.6560  -11.8200   -0.2590 O.2    53  HIS53      -0.2715
     63  CB        -1.9150  -10.3600   -1.3970 C.3    53  HIS53       0.0785
     64  CG        -2.6540   -9.5540   -2.4160 C.ar   53  HIS53       0.0821
     65  ND1       -3.1720   -8.3060   -2.1450 N.ar   53  HIS53      -0.2267
     66  CD2       -2.9300   -9.8040   -3.7170 C.ar   53  HIS53       0.1154
     67  CE1       -3.7370   -7.8240   -3.2360 C.ar   53  HIS53       0.1986
     68  NE2       -3.6050   -8.7140   -4.2030 N.ar   53  HIS53      -0.2212
     69  N          0.2360  -10.0680    1.0990 N.am   54  PHE54      -0.1960
     70  CA         0.8200  -10.6750    2.2850 C.3    54  PHE54       0.1771
     71  C         -0.1810  -10.5600    3.4130 C.2    54  PHE54       0.2619
     72  O         -0.8570   -9.5340    3.5560 O.2    54  PHE54      -0.2715
     73  CB         2.0870   -9.9220    2.7570 C.3    54  PHE54       0.0574
     74  CG         3.2570   -9.9990    1.8190 C.ar   54  PHE54      -0.0200
     75  CD1        3.3050   -9.2040    0.6520 C.ar   54  PHE54      -0.0042
     76  CD2        4.3290  -10.8610    2.0990 C.ar   54  PHE54      -0.0042
     77  CE1        4.4080   -9.2710   -0.2370 C.ar   54  PHE54      -0.0003
     78  CE2        5.4480  -10.9440    1.2220 C.ar   54  PHE54      -0.0003
     79  CZ         5.4860  -10.1470    0.0490 C.ar   54  PHE54      -0.0000
     80  N         -0.2590  -11.6020    4.2330 N.am   55  LYS55      -0.1977
     81  CA        -1.1240  -11.5620    5.4010 C.3    55  LYS55       0.1596
     82  C         -0.2620  -10.9380    6.5040 C.2    55  LYS55       0.2287
     83  O          0.9510  -11.1930    6.5680 O.2    55  LYS55      -0.2864
     84  CB        -1.5610  -12.9780    5.8310 C.3    55  LYS55       0.0298
     85  CG        -2.5690  -13.6500    4.9010 C.3    55  LYS55       0.0038
     86  CD        -3.0740  -15.0170    5.3910 C.3    55  LYS55       0.0206
     87  CE        -2.0960  -16.1420    5.1030 C.3    55  LYS55       0.1093
     88  NZ        -2.5920  -17.4750    5.6070 N.3    55  LYS55      -0.1314
     89  N          0.3570  -11.2800    9.8610 N.3    57  LEU57      -0.1245
     90  CA         0.1540  -12.3000   10.8740 C.3    57  LEU57       0.1561
     91  C          0.3210  -11.8020   12.2990 C.2    57  LEU57       0.2260
     92  O          1.1130  -10.8860   12.5690 O.2    57  LEU57      -0.2867
     93  CB         1.0970  -13.4700   10.5970 C.3    57  LEU57       0.0270
     94  CG         1.0090  -14.0930    9.1940 C.3    57  LEU57       0.0019
     95  CD1        2.2060  -14.9970    8.9530 C.3    57  LEU57       0.0001
     96  CD2       -0.2950  -14.8540    9.0360 C.3    57  LEU57       0.0001
     97  N          5.3460  -10.8090    9.1850 N.3    66  LEU66      -0.1231
     98  CA         5.1140  -11.3390    7.8490 C.3    66  LEU66       0.1693
     99  C          5.7950  -12.6950    7.7550 C.2    66  LEU66       0.2592
    100  O          5.2170  -13.6540    7.2380 O.2    66  LEU66      -0.2718
    101  CB         5.6950  -10.4020    6.7840 C.3    66  LEU66       0.0284
    102  CG         5.2190   -8.9490    6.6730 C.3    66  LEU66       0.0019
    103  CD1        5.9490   -8.2710    5.5070 C.3    66  LEU66       0.0001
    104  CD2        3.6960   -8.8750    6.4860 C.3    66  LEU66       0.0001
    105  N          7.0310  -12.7540    8.2570 N.am   67  TRP67      -0.1976
    106  CA         7.8460  -13.9670    8.2240 C.3    67  TRP67       0.1640
    107  C          8.3010  -14.4550    9.6100 C.2    67  TRP67       0.2290
    108  O          7.5700  -15.2050   10.2520 O.2    67  TRP67      -0.2864
    109  CB         9.0490  -13.7780    7.2750 C.3    67  TRP67       0.0576
    110  CG         8.6750  -13.3800    5.8480 C.ar   67  TRP67       0.0006
    111  CD1        8.8000  -12.1370    5.2870 C.ar   67  TRP67       0.0946
    112  CD2        8.0800  -14.2140    4.8410 C.ar   67  TRP67       0.0152
    113  NE1        8.3150  -12.1360    4.0020 N.ar   67  TRP67      -0.2442
    114  CE2        7.8660  -13.3920    3.6920 C.ar   67  TRP67       0.0810
    115  CE3        7.7010  -15.5750    4.7880 C.ar   67  TRP67       0.0012
    116  CZ2        7.2860  -13.8870    2.4940 C.ar   67  TRP67       0.0191
    117  CZ3        7.1180  -16.0780    3.5920 C.ar   67  TRP67       0.0001
    118  CH2        6.9200  -15.2230    2.4620 C.ar   67  TRP67       0.0015
@<TRIPOS>BOND
     1    57    56    2
     2    50    51    1
     3    55    56    1
     4    55    54    1
     5    56    58   am
     6    51    54    1
     7    51    52    1
     8     4     3    2
     9    68    66   ar
    10    68    67   ar
    11     3     2    1
    12    11     9    1
    13    66    64   ar
    14     8     9    2
    15     8     7    1
    16    67    65   ar
    17    52    53    2
    18    52    59   am
    19     9    10    1
    20     6     7    1
    21     6     5    1
    22    59    60    1
    23    64    65   ar
    24    64    63    1
    25     2     5    1
    26     2     1    1
    27    63    60    1
    28    60    61    1
    29    62    61    2
    30    77    79   ar
    31    77    75   ar
    32    61    69   am
    33    79    78   ar
    34    22    20    1
    35    19    20    2
    36    19    18    1
    37    20    21    1
    38    37    35   ar
    39    75    74   ar
    40    18    17    1
    41    69    70    1
    42    78    76   ar
    43    35    36   ar
    44    35    34    1
    45    74    76   ar
    46    74    73    1
    47    70    73    1
    48    70    71    1
    49    17    16    1
    50   118   116   ar
    51   118   117   ar
    52   116   114   ar
    53    16    13    1
    54    34    33    1
    55    42    43    1
    56    42    39    1
    57    33    30    1
    58    71    72    2
    59    71    80   am
    60   117   115   ar
    61   114   113   ar
    62   114   112   ar
    63    48    49    1
    64    48    45    1
    65   113   111   ar
    66    46    47    2
    67    46    45    1
    68    38    39    1
    69    38    31   am
    70    39    40    1
    71    80    81    1
    72    12    13    1
    73    13    14    1
    74    29    30    1
    75    29    25   am
    76    30    31    1
    77    31    32    2
    78   115   112   ar
    79    45    44    1
    80   112   110   ar
    81    85    86    1
    82    85    84    1
    83    87    86    1
    84    87    88    1
    85    28    27    1
    86   111   110   ar
    87    14    15    2
    88    81    84    1
    89    81    82    1
    90    24    25    1
    91    24    27    1
    92    24    23    1
    93   103   102    1
    94    40    41    2
    95    25    26    2
    96   110   109    1
    97   104   102    1
    98    82    83    2
    99   102   101    1
   100   101    98    1
   101   100    99    2
   102   109   106    1
   103    99    98    1
   104    99   105   am
   105    98    97    1
   106   106   105    1
   107   106   107    1
   108    95    94    1
   109    96    94    1
   110    94    93    1
   111   107   108    2
   112    89    90    1
   113    93    90    1
   114    90    91    1
   115    91    92    2
