@<TRIPOS>MOLECULE
tmp/3in9A01.pdb
 173 164 0 0 0
SMALL
GASTEIGER

@<TRIPOS>ATOM
      1  N         34.7000   13.8890   15.5920 N.3    70  TYR70      -0.1241
      2  CA        34.9490   14.3000   14.2150 C.3    70  TYR70       0.1605
      3  C         35.5980   15.6820   14.1810 C.2    70  TYR70       0.2264
      4  O         36.1420   16.0970   13.1580 O.2    70  TYR70      -0.2867
      5  CB        33.6370   14.3020   13.4190 C.3    70  TYR70       0.0534
      6  CG        33.8110   14.5110   11.9280 C.ar   70  TYR70      -0.0201
      7  CD1       33.7270   15.7890   11.3640 C.ar   70  TYR70      -0.0009
      8  CD2       34.0780   13.4320   11.0810 C.ar   70  TYR70      -0.0009
      9  CE1       33.9050   15.9850    9.9970 C.ar   70  TYR70       0.0417
     10  CE2       34.2590   13.6170    9.7130 C.ar   70  TYR70       0.0417
     11  CZ        34.1710   14.8950    9.1810 C.ar   70  TYR70       0.1957
     12  OH        34.3620   15.0860    7.8370 O.3    70  TYR70      -0.2866
     13  N         34.3950   10.6120   22.0210 N.3    76  LYS76      -0.1245
     14  CA        33.2350    9.7260   21.9800 C.3    76  LYS76       0.1561
     15  C         33.5740    8.3940   22.6450 C.2    76  LYS76       0.2260
     16  O         34.7210    7.9400   22.5990 O.2    76  LYS76      -0.2867
     17  CB        32.7840    9.4910   20.5350 C.3    76  LYS76       0.0271
     18  CG        33.8260    8.8300   19.6480 C.3    76  LYS76       0.0035
     19  CD        33.3150    8.6550   18.2260 C.3    76  LYS76       0.0206
     20  CE        34.3740    8.0160   17.3390 C.3    76  LYS76       0.1093
     21  NZ        33.9120    7.8700   15.9310 N.3    76  LYS76      -0.1314
     22  N         23.1880   11.1640   25.1500 N.3   139  SER139     -0.1217
     23  CA        23.3380   11.2090   23.6960 C.3   139  SER139      0.1889
     24  C         24.0080    9.8900   23.3360 C.2   139  SER139      0.2288
     25  O         25.2370    9.7810   23.3020 O.2   139  SER139     -0.2866
     26  CB        24.2180   12.4030   23.2990 C.3   139  SER139      0.2089
     27  OG        24.5530   12.3730   21.9220 O.3   139  SER139     -0.2183
     28  N         23.5660    5.9190   21.0340 N.3   141  ILE141     -0.1245
     29  CA        22.9360    5.0150   20.0830 C.3   141  ILE141      0.1561
     30  C         23.0200    3.6500   20.7610 C.2   141  ILE141      0.2260
     31  O         24.1140    3.2180   21.1330 O.2   141  ILE141     -0.2867
     32  CB        23.7150    5.0150   18.7460 C.3   141  ILE141      0.0252
     33  CG1       23.4300    6.3260   18.0020 C.3   141  ILE141      0.0019
     34  CG2       23.3590    3.7990   17.9220 C.3   141  ILE141      0.0019
     35  CD1       24.2910    6.5620   16.7720 C.3   141  ILE141      0.0001
     36  N         34.5370    4.8710    6.9820 N.3   219  GLY219     -0.1210
     37  CA        33.5380    5.6030    7.7450 C.3   219  GLY219      0.1956
     38  C         32.1540    5.7280    7.1320 C.2   219  GLY219      0.2612
     39  O         31.7490    4.9320    6.2800 O.2   219  GLY219     -0.2717
     40  N         31.4260    6.7450    7.5810 N.am  220  GLY220     -0.1942
     41  CA        30.0850    6.9780    7.0890 C.3   220  GLY220      0.2014
     42  C         29.0770    6.7710    8.2030 C.2   220  GLY220      0.2639
     43  O         29.3220    6.0070    9.1360 O.2   220  GLY220     -0.2714
     44  N         27.9420    7.4560    8.1100 N.am  221  TYR221     -0.1960
     45  CA        26.8950    7.3280    9.1180 C.3   221  TYR221      0.1756
     46  C         26.3070    5.9210    9.0730 C.2   221  TYR221      0.2461
     47  O         26.4130    5.2320    8.0650 O.2   221  TYR221     -0.2730
     48  CB        25.7760    8.3430    8.8530 C.3   221  TYR221      0.0574
     49  CG        26.2350    9.7830    8.8190 C.ar  221  TYR221     -0.0198
     50  CD1       26.2290   10.5130    7.6260 C.ar  221  TYR221     -0.0009
     51  CD2       26.6620   10.4250    9.9870 C.ar  221  TYR221     -0.0009
     52  CE1       26.6320   11.8470    7.5990 C.ar  221  TYR221      0.0417
     53  CE2       27.0680   11.7530    9.9670 C.ar  221  TYR221      0.0417
     54  CZ        27.0480   12.4560    8.7740 C.ar  221  TYR221      0.1957
     55  OH        27.4260   13.7740    8.7700 O.3   221  TYR221     -0.2866
     56  N         25.7100    5.4600   10.1790 N.am  222  PRO222     -0.2727
     57  CA        25.1280    4.1140   10.1430 C.3   222  PRO222      0.1402
     58  C         23.7900    4.1700    9.3840 C.2   222  PRO222      0.2269
     59  O         22.9930    5.0790    9.5950 O.2   222  PRO222     -0.2865
     60  CB        24.9440    3.7830   11.6180 C.3   222  PRO222      0.0296
     61  CG        24.6500    5.1370   12.2250 C.3   222  PRO222      0.0237
     62  CD        25.6620    6.0280   11.5380 C.3   222  PRO222      0.0939
     63  N         19.9060    3.6890   12.9400 N.3   225  ALA225     -0.1245
     64  CA        20.3060    3.8430   14.3310 C.3   225  ALA225      0.1562
     65  C         19.1230    4.1250   15.2510 C.2   225  ALA225      0.2260
     66  O         18.2160    4.8900   14.9070 O.2   225  ALA225     -0.2867
     67  CB        21.3280    4.9640   14.4540 C.3   225  ALA225      0.0290
     68  N         18.7930   11.3190   22.1170 N.3   229  SER229     -0.1217
     69  CA        19.5040   12.5620   21.8580 C.3   229  SER229      0.1889
     70  C         18.5590   13.7380   22.0420 C.2   229  SER229      0.2288
     71  O         17.4170   13.7040   21.5800 O.2   229  SER229     -0.2866
     72  CB        20.0660   12.5830   20.4320 C.3   229  SER229      0.2089
     73  OG        20.7400   13.8070   20.1740 O.3   229  SER229     -0.2183
     74  N         14.8070    8.2290   19.3020 N.3   234  TYR234     -0.1241
     75  CA        14.5980    8.3750   17.8710 C.3   234  TYR234      0.1605
     76  C         15.1100    7.1650   17.0970 C.2   234  TYR234      0.2264
     77  O         15.8460    6.3250   17.6200 O.2   234  TYR234     -0.2867
     78  CB        15.3050    9.6360   17.3500 C.3   234  TYR234      0.0534
     79  CG        16.8140    9.5290   17.4020 C.ar  234  TYR234     -0.0201
     80  CD1       17.5180    9.8500   18.5670 C.ar  234  TYR234     -0.0009
     81  CD2       17.5250    9.0160   16.3160 C.ar  234  TYR234     -0.0009
     82  CE1       18.8860    9.6560   18.6520 C.ar  234  TYR234      0.0417
     83  CE2       18.8930    8.8150   16.3850 C.ar  234  TYR234      0.0417
     84  CZ        19.5690    9.1320   17.5570 C.ar  234  TYR234      0.1957
     85  OH        20.9160    8.8940   17.6400 O.3   234  TYR234     -0.2866
     86  N         16.7320    6.7260   13.2810 N.3   236  LYS236     -0.1245
     87  CA        17.2210    7.4760   12.1340 C.3   236  LYS236      0.1561
     88  C         17.7830    6.5550   11.0660 C.2   236  LYS236      0.2260
     89  O         18.6140    5.6900   11.3620 O.2   236  LYS236     -0.2867
     90  CB        18.3250    8.4470   12.5790 C.3   236  LYS236      0.0271
     91  CG        18.9420    9.2760   11.4560 C.3   236  LYS236      0.0035
     92  CD        20.2410    9.9670   11.8940 C.3   236  LYS236      0.0206
     93  CE        20.0360   10.9440   13.0510 C.3   236  LYS236      0.1093
     94  NZ        21.3020   11.6370   13.4520 N.3   236  LYS236     -0.1314
     95  N         19.7720    6.3080    7.2790 N.3   238  ASN238     -0.1240
     96  CA        20.6530    7.0710    6.4010 C.3   238  ASN238      0.1653
     97  C         20.8540    6.3160    5.1000 C.2   238  ASN238      0.2266
     98  O         20.8520    5.0810    5.0830 O.2   238  ASN238     -0.2867
     99  CB        22.0180    7.2980    7.0500 C.3   238  ASN238      0.1155
    100  CG        21.9660    8.3130    8.1630 C.2   238  ASN238      0.2627
    101  OD1       21.6260    9.4720    7.9330 O.2   238  ASN238     -0.2716
    102  ND2       22.3020    7.8850    9.3850 N.am  238  ASN238     -0.0877
    103  N         33.0410   11.7310    3.0190 N.3   247  LYS247     -0.1245
    104  CA        32.9250   12.0160    4.4510 C.3   247  LYS247      0.1561
    105  C         32.6500   13.4820    4.7580 C.2   247  LYS247      0.2260
    106  O         32.1780   13.8120    5.8380 O.2   247  LYS247     -0.2867
    107  CB        34.2010   11.5810    5.1880 C.3   247  LYS247      0.0271
    108  CG        34.3990   10.0690    5.2730 C.3   247  LYS247      0.0035
    109  CD        35.7920    9.7170    5.7940 C.3   247  LYS247      0.0206
    110  CE        35.9990   10.1290    7.2500 C.3   247  LYS247      0.1093
    111  NZ        35.3430    9.2040    8.2180 N.3   247  LYS247     -0.1314
    112  N         28.1090   16.2060    5.2060 N.3   250  ARG250     -0.1245
    113  CA        27.5420   15.9930    6.5320 C.3   250  ARG250      0.1563
    114  C         26.0130   15.9860    6.6170 C.2   250  ARG250      0.2260
    115  O         25.4340   16.5010    7.5790 O.2   250  ARG250     -0.2867
    116  CB        28.1100   17.0450    7.4960 C.3   250  ARG250      0.0307
    117  CG        29.6220   17.2580    7.3710 C.3   250  ARG250      0.0489
    118  CD        30.3980   15.9650    7.5710 C.3   250  ARG250      0.2205
    119  NE        30.2520   15.4400    8.9250 N.pl3 250  ARG250     -0.0865
    120  CZ        30.5600   14.1970    9.2810 C.cat 250  ARG250      0.5346
    121  NH1       31.0310   13.3420    8.3830 N.pl3 250  ARG250      0.1354
    122  NH2       30.3900   13.8060   10.5360 N.pl3 250  ARG250      0.1354
    123  N         23.0280   14.9050    7.8370 N.3   252  ASN252     -0.1225
    124  CA        22.6390   14.1140    9.0000 C.3   252  ASN252      0.1785
    125  C         21.4680   14.8150    9.6920 C.2   252  ASN252      0.2597
    126  O         21.6020   15.9390   10.1630 O.2   252  ASN252     -0.2718
    127  CB        23.8440   14.0210    9.9470 C.3   252  ASN252      0.1169
    128  CG        23.6180   13.0780   11.1160 C.2   252  ASN252      0.2627
    129  OD1       24.3430   13.1320   12.1100 O.2   252  ASN252     -0.2716
    130  ND2       22.6260   12.2070   11.0020 N.am  252  ASN252     -0.0877
    131  N         20.3210   14.1510    9.7500 N.am  253  ALA253     -0.1966
    132  CA        19.1370   14.7410   10.3600 C.3   253  ALA253      0.1728
    133  C         19.2260   14.8930   11.8770 C.2   253  ALA253      0.2616
    134  O         19.7100   14.0040   12.5770 O.2   253  ALA253     -0.2715
    135  CB        17.9060   13.9190    9.9980 C.3   253  ALA253      0.0334
    136  N         18.7540   16.0340   12.3720 N.am  254  ASN254     -0.1959
    137  CA        18.7330   16.3180   13.8030 C.3   254  ASN254      0.1804
    138  C         17.3860   15.8020   14.2960 C.2   254  ASN254      0.2463
    139  O         16.3370   16.2560   13.8440 O.2   254  ASN254     -0.2730
    140  CB        18.8540   17.8280   14.0420 C.3   254  ASN254      0.1195
    141  CG        18.7810   18.1940   15.5130 C.2   254  ASN254      0.2630
    142  OD1       17.7480   18.0250   16.1550 O.2   254  ASN254     -0.2716
    143  ND2       19.8850   18.6920   16.0540 N.am  254  ASN254     -0.0877
    144  N         17.3950   14.8370   15.2270 N.am  255  PRO255     -0.2727
    145  CA        16.1430   14.2790   15.7450 C.3   255  PRO255      0.1402
    146  C         15.1040   15.3060   16.1810 C.2   255  PRO255      0.2269
    147  O         13.9180   15.1620   15.8910 O.2   255  PRO255     -0.2865
    148  CB        16.6120   13.4080   16.9060 C.3   255  PRO255      0.0296
    149  CG        17.9610   12.9560   16.4510 C.3   255  PRO255      0.0237
    150  CD        18.5540   14.2270   15.8990 C.3   255  PRO255      0.0939
    151  N         27.0830    3.7060   22.1590 N.3   352  TYR352     -0.1241
    152  CA        27.9260    4.4700   21.2450 C.3   352  TYR352      0.1605
    153  C         27.5600    5.9030   21.6210 C.2   352  TYR352      0.2264
    154  O         26.5500    6.4450   21.1580 O.2   352  TYR352     -0.2867
    155  CB        27.5670    4.2000   19.7800 C.3   352  TYR352      0.0534
    156  CG        28.5130    4.8620   18.7920 C.ar  352  TYR352     -0.0201
    157  CD1       28.1080    5.1410   17.4830 C.ar  352  TYR352     -0.0009
    158  CD2       29.8170    5.2040   19.1620 C.ar  352  TYR352     -0.0009
    159  CE1       28.9750    5.7390   16.5730 C.ar  352  TYR352      0.0417
    160  CE2       30.6890    5.8020   18.2570 C.ar  352  TYR352      0.0417
    161  CZ        30.2590    6.0650   16.9670 C.ar  352  TYR352      0.1957
    162  OH        31.1220    6.6430   16.0710 O.3   352  TYR352     -0.2866
    163  N         27.7530    9.5850   21.3700 N.3   354  VAL354     -0.1231
    164  CA        28.1130   10.5810   20.3680 C.3   354  VAL354      0.1692
    165  C         27.7450   12.0120   20.7580 C.2   354  VAL354      0.2592
    166  O         27.2100   12.2600   21.8390 O.2   354  VAL354     -0.2718
    167  CB        27.4250   10.2600   19.0270 C.3   354  VAL354      0.0266
    168  CG1       27.9180    8.9160   18.4990 C.3   354  VAL354      0.0020
    169  CG2       25.9060   10.2250   19.2210 C.3   354  VAL354      0.0020
    170  N         28.0320   12.9500   19.8580 N.am  355  GLY355     -0.1957
    171  CA        27.7170   14.3450   20.1150 C.3   355  GLY355      0.1869
    172  C         28.6150   14.9930   21.1540 C.2   355  GLY355      0.2309
    173  O         28.2150   15.9560   21.8090 O.2   355  GLY355     -0.2863
@<TRIPOS>BOND
     1   103   104    1
     2   104   105    1
     3   104   107    1
     4   105   106    2
     5    98    97    2
     6    97    96    1
     7   107   108    1
     8   112   113    1
     9   108   109    1
    10   109   110    1
    11    39    38    2
    12    96    99    1
    13    96    95    1
    14   113   114    1
    15   113   116    1
    16   114   115    2
    17    36    37    1
    18    99   100    1
    19    41    40    1
    20    41    42    1
    21    38    40   am
    22    38    37    1
    23   110   111    1
    24   117   116    1
    25   117   118    1
    26   118   119    1
    27    52    50   ar
    28    52    54   ar
    29    50    49   ar
    30   123   124    1
    31    12    11    1
    32   101   100    2
    33    47    46    2
    34    44    42   am
    35    44    45    1
    36   100   102   am
    37    42    43    2
    38   121   120    1
    39    55    54    1
    40    54    53   ar
    41    49    48    1
    42    49    51   ar
    43    48    45    1
    44   119   120    2
    45   124   125    1
    46   124   127    1
    47    46    45    1
    48    46    56   am
    49    11    10   ar
    50    11     9   ar
    51   120   122    1
    52    58    59    2
    53    58    57    1
    54   125   131   am
    55   125   126    2
    56    10     8   ar
    57   131   132    1
    58   127   128    1
    59    53    51   ar
    60     9     7   ar
    61   135   132    1
    62    57    56    1
    63    57    60    1
    64    56    62    1
    65   132   133    1
    66   130   128   am
    67    88    89    2
    68    88    87    1
    69     8     6   ar
    70   128   129    2
    71     7     6   ar
    72    91    92    1
    73    91    90    1
    74    62    61    1
    75    60    61    1
    76   133   136   am
    77   133   134    2
    78    92    93    1
    79     6     5    1
    80    87    90    1
    81    87    86    1
    82   136   137    1
    83    63    64    1
    84    93    94    1
    85     4     3    2
    86     5     2    1
    87   137   140    1
    88   137   138    1
    89   139   138    2
    90   140   141    1
    91     3     2    1
    92     2     1    1
    93   138   144   am
    94    64    67    1
    95    64    65    1
    96    66    65    2
    97   144   145    1
    98   144   150    1
    99   141   143   am
   100   141   142    2
   101   145   146    1
   102   145   148    1
   103   147   146    2
   104   150   149    1
   105    21    20    1
   106   162   161    1
   107    81    83   ar
   108    81    79   ar
   109    83    84   ar
   110   149   148    1
   111   159   161   ar
   112   159   157   ar
   113    35    33    1
   114   161   160   ar
   115    76    77    2
   116    76    75    1
   117    20    19    1
   118    78    79    1
   119    78    75    1
   120    79    80   ar
   121   157   156   ar
   122    84    85    1
   123    84    82   ar
   124    75    74    1
   125    34    32    1
   126    33    32    1
   127    19    18    1
   128   160   158   ar
   129   168   167    1
   130    80    82   ar
   131    32    29    1
   132   156   158   ar
   133   156   155    1
   134   167   169    1
   135   167   164    1
   136    18    17    1
   137   155   152    1
   138   170   171    1
   139   170   165   am
   140    29    30    1
   141    29    28    1
   142   171   172    1
   143    73    72    1
   144   164   165    1
   145   164   163    1
   146    72    69    1
   147    17    14    1
   148   165   166    2
   149    30    31    2
   150   172   173    2
   151   154   153    2
   152   152   153    1
   153   152   151    1
   154    71    70    2
   155    69    70    1
   156    69    68    1
   157    27    26    1
   158    14    13    1
   159    14    15    1
   160    16    15    2
   161    26    23    1
   162    25    24    2
   163    24    23    1
   164    23    22    1
