@<TRIPOS>MOLECULE
tmp/3in9A00.pdb
 160 150 0 0 0
SMALL
GASTEIGER

@<TRIPOS>ATOM
      1  N         37.5730   -7.2350   20.2720 N.3    14  VAL14      -0.1231
      2  CA        38.0870   -7.6360   18.9660 C.3    14  VAL14       0.1692
      3  C         37.9530   -6.5150   17.9370 C.2    14  VAL14       0.2592
      4  O         36.9370   -5.8230   17.8950 O.2    14  VAL14      -0.2718
      5  CB        37.3230   -8.8820   18.4260 C.3    14  VAL14       0.0266
      6  CG1       37.8500   -9.2720   17.0470 C.3    14  VAL14       0.0020
      7  CG2       37.4630  -10.0470   19.4050 C.3    14  VAL14       0.0020
      8  N         38.9900   -6.3280   17.1260 N.am   15  ASN15      -0.1974
      9  CA        38.9640   -5.3380   16.0490 C.3    15  ASN15       0.1688
     10  C         38.5230   -6.2160   14.8790 C.2    15  ASN15       0.2292
     11  O         39.3500   -6.8540   14.2300 O.2    15  ASN15      -0.2864
     12  CB        40.3660   -4.7920   15.7850 C.3    15  ASN15       0.1181
     13  CG        40.3920   -3.7530   14.6820 C.2    15  ASN15       0.2629
     14  OD1       39.6840   -3.8710   13.6800 O.2    15  ASN15      -0.2716
     15  ND2       41.2260   -2.7310   14.8540 N.am   15  ASN15      -0.0877
     16  N         37.6100   -5.6740   11.8790 N.3    17  GLN17      -0.1231
     17  CA        38.0890   -5.3620   10.5400 C.3    17  GLN17       0.1698
     18  C         39.5040   -5.8550   10.2970 C.2    17  GLN17       0.2592
     19  O         39.8430   -6.2420    9.1810 O.2    17  GLN17      -0.2718
     20  CB        38.0680   -3.8470   10.2800 C.3    17  GLN17       0.0381
     21  CG        36.6990   -3.2040   10.2720 C.3    17  GLN17       0.0905
     22  CD        36.2400   -2.7880   11.6550 C.2    17  GLN17       0.2608
     23  OE1       35.1170   -2.3160   11.8310 O.2    17  GLN17      -0.2717
     24  NE2       37.1090   -2.9550   12.6440 N.am   17  GLN17      -0.0878
     25  N         40.3270   -5.8470   11.3450 N.am   18  ALA18      -0.1980
     26  CA        41.7290   -6.2310   11.2120 C.3    18  ALA18       0.1597
     27  C         42.1760   -7.5420   11.8470 C.2    18  ALA18       0.2287
     28  O         43.3130   -7.9680   11.6340 O.2    18  ALA18      -0.2864
     29  CB        42.6100   -5.0920   11.7370 C.3    18  ALA18       0.0319
     30  N         33.4360   -4.7250   21.1880 N.3    34  VAL34      -0.1231
     31  CA        34.2910   -3.6860   20.6300 C.3    34  VAL34       0.1692
     32  C         34.2000   -2.4290   21.5020 C.2    34  VAL34       0.2592
     33  O         33.1310   -2.1040   22.0130 O.2    34  VAL34      -0.2718
     34  CB        33.8720   -3.3550   19.1710 C.3    34  VAL34       0.0266
     35  CG1       33.9450   -4.6150   18.3150 C.3    34  VAL34       0.0020
     36  CG2       32.4630   -2.7890   19.1440 C.3    34  VAL34       0.0020
     37  N         35.3260   -1.7430   21.6940 N.am   35  GLY35      -0.1957
     38  CA        35.3280   -0.5370   22.5150 C.3    35  GLY35       0.1869
     39  C         36.2040   -0.6180   23.7580 C.2    35  GLY35       0.2309
     40  O         37.0600   -1.4970   23.8700 O.2    35  GLY35      -0.2863
     41  N         37.6560    7.5730   22.6540 N.3    67  LEU67      -0.1231
     42  CA        37.8590    7.8360   21.2320 C.3    67  LEU67       0.1693
     43  C         37.7460    9.3240   20.9270 C.2    67  LEU67       0.2591
     44  O         37.2110   10.0910   21.7290 O.2    67  LEU67      -0.2718
     45  CB        36.8270    7.0680   20.4010 C.3    67  LEU67       0.0284
     46  CG        36.6970    5.5600   20.6360 C.3    67  LEU67       0.0019
     47  CD1       35.5720    5.0160   19.7670 C.3    67  LEU67       0.0001
     48  CD2       38.0080    4.8610   20.3180 C.3    67  LEU67       0.0001
     49  N         38.2540    9.7310   19.7670 N.am   68  GLU68      -0.1979
     50  CA        38.1920   11.1330   19.3670 C.3    68  GLU68       0.1602
     51  C         36.9960   11.3790   18.4530 C.2    68  GLU68       0.2287
     52  O         36.6120   10.5110   17.6700 O.2    68  GLU68      -0.2864
     53  CB        39.4860   11.5510   18.6580 C.3    68  GLU68       0.0415
     54  CG        39.7910   10.7880   17.3790 C.3    68  GLU68       0.1163
     55  CD        41.0670   11.2670   16.7090 C.2    68  GLU68       0.3649
     56  OE1       42.1350   11.2210   17.3560 O.co2  68  GLU68      -0.2457
     57  OE2       41.0030   11.6900   15.5340 O.co2  68  GLU68      -0.2457
     58  N         34.3950   10.6120   22.0210 N.3    76  LYS76      -0.1245
     59  CA        33.2350    9.7260   21.9800 C.3    76  LYS76       0.1561
     60  C         33.5740    8.3940   22.6450 C.2    76  LYS76       0.2260
     61  O         34.7210    7.9400   22.5990 O.2    76  LYS76      -0.2867
     62  CB        32.7840    9.4910   20.5350 C.3    76  LYS76       0.0271
     63  CG        33.8260    8.8300   19.6480 C.3    76  LYS76       0.0035
     64  CD        33.3150    8.6550   18.2260 C.3    76  LYS76       0.0206
     65  CE        34.3740    8.0160   17.3390 C.3    76  LYS76       0.1093
     66  NZ        33.9120    7.8700   15.9310 N.3    76  LYS76      -0.1314
     67  N         32.6260    4.1540   23.4070 N.3    78  ARG78      -0.1245
     68  CA        32.0320    2.9770   22.7860 C.3    78  ARG78       0.1563
     69  C         32.2270    1.7140   23.6090 C.2    78  ARG78       0.2260
     70  O         33.3000    1.4720   24.1580 O.2    78  ARG78      -0.2867
     71  CB        32.6370    2.7410   21.3940 C.3    78  ARG78       0.0307
     72  CG        31.9850    1.5930   20.6240 C.3    78  ARG78       0.0489
     73  CD        32.9380    0.9850   19.5900 C.3    78  ARG78       0.2205
     74  NE        33.4760    1.9680   18.6530 N.pl3  78  ARG78      -0.0865
     75  CZ        32.7710    2.5470   17.6850 C.cat  78  ARG78       0.5346
     76  NH1       33.3470    3.4330   16.8800 N.pl3  78  ARG78       0.1354
     77  NH2       31.4930    2.2360   17.5130 N.pl3  78  ARG78       0.1354
     78  N         41.8230   -4.4060    5.8550 N.3   106  LYS106     -0.1245
     79  CA        40.7850   -4.2210    6.8670 C.3   106  LYS106      0.1561
     80  C         39.4800   -4.8830    6.4570 C.2   106  LYS106      0.2260
     81  O         38.4000   -4.3310    6.6850 O.2   106  LYS106     -0.2867
     82  CB        40.5230   -2.7310    7.1160 C.3   106  LYS106      0.0271
     83  CG        41.7080   -1.9500    7.6530 C.3   106  LYS106      0.0035
     84  CD        41.3170   -0.4990    7.9010 C.3   106  LYS106      0.0206
     85  CE        42.5210    0.3560    8.2540 C.3   106  LYS106      0.1093
     86  NZ        42.1340    1.7660    8.5510 N.3   106  LYS106     -0.1314
     87  N         36.5180   -9.2770    8.5290 N.3   109  TYR109     -0.1241
     88  CA        35.1330   -9.6780    8.7640 C.3   109  TYR109      0.1605
     89  C         34.3330   -9.9790    7.4930 C.2   109  TYR109      0.2264
     90  O         33.1760  -10.3870    7.5640 O.2   109  TYR109     -0.2867
     91  CB        34.4010   -8.6550    9.6550 C.3   109  TYR109      0.0534
     92  CG        34.1570   -7.2620    9.0950 C.ar  109  TYR109     -0.0201
     93  CD1       34.8680   -6.7740    7.9950 C.ar  109  TYR109     -0.0009
     94  CD2       33.2330   -6.4110    9.7150 C.ar  109  TYR109     -0.0009
     95  CE1       34.6660   -5.4710    7.5290 C.ar  109  TYR109      0.0417
     96  CE2       33.0260   -5.1090    9.2610 C.ar  109  TYR109      0.0417
     97  CZ        33.7450   -4.6460    8.1730 C.ar  109  TYR109      0.1957
     98  OH        33.5570   -3.3500    7.7510 O.3   109  TYR109     -0.2866
     99  N         25.3020   -1.2210   10.8530 N.3   146  HIS146     -0.1241
    100  CA        26.4870   -0.5860   10.3070 C.3   146  HIS146      0.1621
    101  C         26.8520   -1.0370    8.8990 C.2   146  HIS146      0.2264
    102  O         26.6530   -2.1930    8.5330 O.2   146  HIS146     -0.2867
    103  CB        27.6520   -0.8620   11.2640 C.3   146  HIS146      0.0745
    104  CG        28.7990    0.0870   11.1210 C.ar  146  HIS146      0.0817
    105  ND1       29.7350   -0.0200   10.1150 N.ar  146  HIS146     -0.2268
    106  CD2       29.1530    1.1700   11.8520 C.ar  146  HIS146      0.1154
    107  CE1       30.6170    0.9570   10.2330 C.ar  146  HIS146      0.1986
    108  NE2       30.2860    1.6940   11.2780 N.ar  146  HIS146     -0.2212
    109  N         32.0750   -0.6080    4.1980 N.3   149  PRO149     -0.2116
    110  CA        32.6820    0.1280    3.0840 C.3   149  PRO149      0.1372
    111  C         33.5450   -0.6990    2.1400 C.2   149  PRO149      0.2244
    112  O         34.0740   -1.7460    2.5140 O.2   149  PRO149     -0.2868
    113  CB        33.5010    1.2110    3.7870 C.3   149  PRO149      0.0268
    114  CG        32.7650    1.4210    5.0790 C.3   149  PRO149      0.0207
    115  CD        32.4200    0.0150    5.4890 C.3   149  PRO149      0.0892
    116  N         36.6120   -1.3360    1.0000 N.3   151  ARG151     -0.1245
    117  CA        37.9780   -1.1050    1.4740 C.3   151  ARG151      0.1563
    118  C         39.0630   -0.9650    0.4190 C.2   151  ARG151      0.2260
    119  O         40.1510   -0.4760    0.7220 O.2   151  ARG151     -0.2867
    120  CB        38.3870   -2.2190    2.4380 C.3   151  ARG151      0.0307
    121  CG        37.4530   -2.4030    3.6140 C.3   151  ARG151      0.0489
    122  CD        37.5180   -1.2410    4.5750 C.3   151  ARG151      0.2205
    123  NE        36.6610   -1.4760    5.7350 N.pl3 151  ARG151     -0.0865
    124  CZ        36.5020   -0.6150    6.7320 C.cat 151  ARG151      0.5346
    125  NH1       37.1430    0.5470    6.7140 N.pl3 151  ARG151      0.1354
    126  NH2       35.7040   -0.9180    7.7470 N.pl3 151  ARG151      0.1354
    127  N         42.5010    6.7220    8.3810 N.3   180  LYS180     -0.1245
    128  CA        41.0740    6.6240    8.1200 C.3   180  LYS180      0.1561
    129  C         40.8790    6.5980    6.6070 C.2   180  LYS180      0.2260
    130  O         41.2290    5.6100    5.9660 O.2   180  LYS180     -0.2867
    131  CB        40.3070    7.7860    8.7630 C.3   180  LYS180      0.0271
    132  CG        40.1270    7.6120   10.2730 C.3   180  LYS180      0.0035
    133  CD        39.2630    8.7050   10.8890 C.3   180  LYS180      0.0206
    134  CE        39.0420    8.4520   12.3770 C.3   180  LYS180      0.1093
    135  NZ        38.1900    9.5000   13.0160 N.3   180  LYS180     -0.1314
    136  N         36.0480    4.8920    3.7360 N.3   218  GLN218     -0.1231
    137  CA        36.0890    4.5470    5.1510 C.3   218  GLN218      0.1698
    138  C         35.0340    5.3770    5.8580 C.2   218  GLN218      0.2592
    139  O         34.6660    6.4470    5.3810 O.2   218  GLN218     -0.2718
    140  CB        37.4860    4.8690    5.6980 C.3   218  GLN218      0.0381
    141  CG        37.7150    4.6140    7.1840 C.3   218  GLN218      0.0905
    142  CD        37.0720    5.6640    8.0650 C.2   218  GLN218      0.2608
    143  OE1       37.0720    6.8510    7.7350 O.2   218  GLN218     -0.2717
    144  NE2       36.5340    5.2370    9.1990 N.am  218  GLN218     -0.0878
    145  N         34.5370    4.8710    6.9820 N.am  219  GLY219     -0.1957
    146  CA        33.5380    5.6030    7.7450 C.3   219  GLY219      0.1869
    147  C         32.1540    5.7280    7.1320 C.2   219  GLY219      0.2309
    148  O         31.7490    4.9320    6.2800 O.2   219  GLY219     -0.2863
    149  N         27.0830    3.7060   22.1590 N.3   352  TYR352     -0.1241
    150  CA        27.9260    4.4700   21.2450 C.3   352  TYR352      0.1605
    151  C         27.5600    5.9030   21.6210 C.2   352  TYR352      0.2264
    152  O         26.5500    6.4450   21.1580 O.2   352  TYR352     -0.2867
    153  CB        27.5670    4.2000   19.7800 C.3   352  TYR352      0.0534
    154  CG        28.5130    4.8620   18.7920 C.ar  352  TYR352     -0.0201
    155  CD1       28.1080    5.1410   17.4830 C.ar  352  TYR352     -0.0009
    156  CD2       29.8170    5.2040   19.1620 C.ar  352  TYR352     -0.0009
    157  CE1       28.9750    5.7390   16.5730 C.ar  352  TYR352      0.0417
    158  CE2       30.6890    5.8020   18.2570 C.ar  352  TYR352      0.0417
    159  CZ        30.2590    6.0650   16.9670 C.ar  352  TYR352      0.1957
    160  OH        31.1220    6.6430   16.0710 O.3   352  TYR352     -0.2866
@<TRIPOS>BOND
     1   118   119    2
     2   118   117    1
     3   116   117    1
     4   117   120    1
     5   111   112    2
     6   111   110    1
     7   120   121    1
     8   110   113    1
     9   110   109    1
    10   121   122    1
    11   136   137    1
    12   113   114    1
    13   109   115    1
    14   122   123    1
    15   114   115    1
    16   137   140    1
    17   137   138    1
    18   139   138    2
    19   140   141    1
    20   123   124    2
    21    78    79    1
    22   138   145   am
    23   130   129    2
    24   148   147    2
    25    80    81    2
    26    80    79    1
    27   129   128    1
    28   125   124    1
    29   124   126    1
    30    79    82    1
    31   145   146    1
    32    82    83    1
    33   147   146    1
    34   141   142    1
    35    89    90    2
    36    89    88    1
    37    95    93   ar
    38    95    97   ar
    39    83    84    1
    40   143   142    2
    41    98    97    1
    42    84    85    1
    43    93    92   ar
    44   142   144   am
    45   128   127    1
    46   128   131    1
    47    97    96   ar
    48    85    86    1
    49    87    88    1
    50   102   101    2
    51   131   132    1
    52    88    91    1
    53   101   100    1
    54    92    91    1
    55    92    94   ar
    56    19    18    2
    57    96    94   ar
    58   105   107   ar
    59   105   104   ar
    60   107   108   ar
    61    21    20    1
    62    21    22    1
    63   132   133    1
    64    20    17    1
    65    18    17    1
    66    18    25   am
    67   100    99    1
    68   100   103    1
    69    17    16    1
    70   133   134    1
    71   104   103    1
    72   104   106   ar
    73    26    25    1
    74    26    29    1
    75    26    27    1
    76   108   106   ar
    77    28    27    2
    78    22    23    2
    79    22    24   am
    80   134   135    1
    81    14    13    2
    82    11    10    2
    83    13    15   am
    84    13    12    1
    85    10     9    1
    86    57    55   ar
    87    12     9    1
    88    66    65    1
    89     9     8    1
    90   160   159    1
    91   157   159   ar
    92   157   155   ar
    93    55    56   ar
    94    55    54    1
    95    76    75    1
    96   159   158   ar
    97     6     5    1
    98     8     3   am
    99    65    64    1
   100    54    53    1
   101   155   154   ar
   102    77    75    1
   103    52    51    2
   104    75    74    2
   105     4     3    2
   106     3     2    1
   107    64    63    1
   108   158   156   ar
   109    35    34    1
   110     5     2    1
   111     5     7    1
   112    51    50    1
   113    74    73    1
   114    53    50    1
   115   154   156   ar
   116   154   153    1
   117     2     1    1
   118    36    34    1
   119    34    31    1
   120    50    49    1
   121    73    72    1
   122    63    62    1
   123    49    43   am
   124    47    46    1
   125   153   150    1
   126    48    46    1
   127    45    46    1
   128    45    42    1
   129    62    59    1
   130    72    71    1
   131    31    30    1
   132    31    32    1
   133    43    42    1
   134    43    44    2
   135   152   151    2
   136    42    41    1
   137   150   151    1
   138   150   149    1
   139    71    68    1
   140    32    37   am
   141    32    33    2
   142    37    38    1
   143    59    58    1
   144    59    60    1
   145    38    39    1
   146    61    60    2
   147    68    67    1
   148    68    69    1
   149    69    70    2
   150    39    40    2
