@<TRIPOS>MOLECULE
tmp/3inaA02.pdb
 150 142 0 0 0
SMALL
GASTEIGER

@<TRIPOS>ATOM
      1  N         34.8360   12.5980   13.5450 N.3    67  TYR67      -0.1227
      2  CA        35.1980   13.1190   12.2350 C.3    67  TYR67       0.1736
      3  C         35.7750   14.5250   12.3550 C.2    67  TYR67       0.2595
      4  O         36.6880   14.8870   11.6200 O.2    67  TYR67      -0.2718
      5  CB        33.9820   13.1350   11.3100 C.3    67  TYR67       0.0548
      6  CG        34.3460   13.1030    9.8410 C.ar   67  TYR67      -0.0200
      7  CD1       34.3420   14.2670    9.0690 C.ar   67  TYR67      -0.0009
      8  CD2       34.7040   11.8990    9.2250 C.ar   67  TYR67      -0.0009
      9  CE1       34.6820   14.2340    7.7220 C.ar   67  TYR67       0.0417
     10  CE2       35.0480   11.8520    7.8830 C.ar   67  TYR67       0.0417
     11  CZ        35.0350   13.0230    7.1360 C.ar   67  TYR67       0.1957
     12  OH        35.3730   12.9770    5.8070 O.3    67  TYR67      -0.2866
     13  N         35.2390   15.3080   13.2860 N.am   68  ALA68      -0.1980
     14  CA        35.7090   16.6740   13.5080 C.3    68  ALA68       0.1597
     15  C         36.9010   16.6840   14.4630 C.2    68  ALA68       0.2287
     16  O         36.9130   15.9620   15.4600 O.2    68  ALA68      -0.2864
     17  CB        34.5770   17.5290   14.0740 C.3    68  ALA68       0.0319
     18  N         37.0930   16.2030   18.5070 N.3    71  GLU71      -0.1245
     19  CA        35.9790   15.3730   18.9610 C.3    71  GLU71       0.1567
     20  C         36.4240   13.9560   19.2980 C.2    71  GLU71       0.2260
     21  O         37.3480   13.4180   18.6870 O.2    71  GLU71      -0.2867
     22  CB        34.8750   15.3150   17.9020 C.3    71  GLU71       0.0388
     23  CG        34.0710   16.5930   17.7600 C.3    71  GLU71       0.1160
     24  CD        32.8980   16.4360   16.8050 C.2    71  GLU71       0.3649
     25  OE1       32.1800   17.4350   16.5730 O.co2  71  GLU71      -0.2457
     26  OE2       32.6930   15.3130   16.2880 O.co2  71  GLU71      -0.2457
     27  N         34.9640    9.8630   20.9480 N.3    73  LYS73      -0.1245
     28  CA        33.8260    8.9710   21.0890 C.3    73  LYS73       0.1561
     29  C         34.2680    7.7120   21.8230 C.2    73  LYS73       0.2260
     30  O         35.4630    7.4640   21.9760 O.2    73  LYS73      -0.2867
     31  CB        33.2390    8.6340   19.7080 C.3    73  LYS73       0.0271
     32  CG        34.2150    7.9940   18.7410 C.3    73  LYS73       0.0035
     33  CD        33.6270    7.9290   17.3290 C.3    73  LYS73       0.0206
     34  CE        34.5890    7.2420   16.3670 C.3    73  LYS73       0.1093
     35  NZ        34.0120    7.0480   15.0030 N.3    73  LYS73      -0.1314
     36  N         24.3650   10.4280   25.0760 N.3   136  SER136     -0.1217
     37  CA        24.4120   10.4720   23.6230 C.3   136  SER136      0.1889
     38  C         25.0320    9.1350   23.2510 C.2   136  SER136      0.2288
     39  O         26.2490    9.0160   23.1080 O.2   136  SER136     -0.2866
     40  CB        25.2890   11.6370   23.1640 C.3   136  SER136      0.2089
     41  OG        25.3260   11.7130   21.7500 O.3   136  SER136     -0.2183
     42  N         24.3880    5.0950   21.1310 N.3   138  ILE138     -0.1245
     43  CA        23.6910    4.2010   20.2220 C.3   138  ILE138      0.1561
     44  C         23.8010    2.8410   20.9080 C.2   138  ILE138      0.2260
     45  O         24.9100    2.4130   21.2400 O.2   138  ILE138     -0.2867
     46  CB        24.3980    4.1770   18.8470 C.3   138  ILE138      0.0252
     47  CG1       24.1780    5.5220   18.1430 C.3   138  ILE138      0.0019
     48  CG2       23.9020    3.0130   18.0100 C.3   138  ILE138      0.0019
     49  CD1       24.9160    5.6630   16.8230 C.3   138  ILE138      0.0001
     50  N         28.3010    5.9170    7.9200 N.3   218  TYR218     -0.1241
     51  CA        27.1990    5.8020    8.8770 C.3   218  TYR218      0.1605
     52  C         26.5690    4.4090    8.8290 C.2   218  TYR218      0.2264
     53  O         26.5420    3.7660    7.7760 O.2   218  TYR218     -0.2867
     54  CB        26.0910    6.8200    8.5530 C.3   218  TYR218      0.0534
     55  CG        26.5140    8.2800    8.5740 C.ar  218  TYR218     -0.0201
     56  CD1       26.1830    9.1400    7.5190 C.ar  218  TYR218     -0.0009
     57  CD2       27.2180    8.8060    9.6600 C.ar  218  TYR218     -0.0009
     58  CE1       26.5430   10.4900    7.5470 C.ar  218  TYR218      0.0417
     59  CE2       27.5820   10.1530    9.6990 C.ar  218  TYR218      0.0417
     60  CZ        27.2430   10.9840    8.6440 C.ar  218  TYR218      0.1957
     61  OH        27.6040   12.3040    8.6930 O.3   218  TYR218     -0.2866
     62  N         19.6370   10.5680   22.2850 N.3   226  SER226     -0.1217
     63  CA        20.3170   11.8020   21.9360 C.3   226  SER226      0.1889
     64  C         19.3810   12.9780   22.1730 C.2   226  SER226      0.2288
     65  O         18.1910   12.9140   21.8460 O.2   226  SER226     -0.2866
     66  CB        20.7390   11.7850   20.4620 C.3   226  SER226      0.2089
     67  OG        21.4320   12.9730   20.1100 O.3   226  SER226     -0.2183
     68  N         15.4570    7.3980   19.7920 N.3   231  TYR231     -0.1241
     69  CA        15.1700    7.5260   18.3750 C.3   231  TYR231      0.1605
     70  C         15.6900    6.3110   17.6160 C.2   231  TYR231      0.2264
     71  O         16.4990    5.5330   18.1230 O.2   231  TYR231     -0.2867
     72  CB        15.8440    8.7800   17.8090 C.3   231  TYR231      0.0534
     73  CG        17.3510    8.6440   17.7660 C.ar  231  TYR231     -0.0201
     74  CD1       18.1290    8.9590   18.8850 C.ar  231  TYR231     -0.0009
     75  CD2       17.9880    8.0900   16.6480 C.ar  231  TYR231     -0.0009
     76  CE1       19.4860    8.7200   18.9010 C.ar  231  TYR231      0.0417
     77  CE2       19.3480    7.8450   16.6510 C.ar  231  TYR231      0.0417
     78  CZ        20.0900    8.1580   17.7820 C.ar  231  TYR231      0.1957
     79  OH        21.4270    7.8750   17.8150 O.3   231  TYR231     -0.2866
     80  N         17.1790    5.7210   13.7510 N.3   233  LYS233     -0.1245
     81  CA        17.6470    6.4200   12.5620 C.3   233  LYS233      0.1561
     82  C         18.1000    5.4730   11.4500 C.2   233  LYS233      0.2260
     83  O         18.8930    4.5580   11.6870 O.2   233  LYS233     -0.2867
     84  CB        18.8120    7.3370   12.9440 C.3   233  LYS233      0.0271
     85  CG        19.3750    8.1710   11.8040 C.3   233  LYS233      0.0035
     86  CD        20.6900    8.8470   12.2060 C.3   233  LYS233      0.0206
     87  CE        20.5070    9.8260   13.3610 C.3   233  LYS233      0.1093
     88  NZ        21.8280   10.3790   13.7880 N.3   233  LYS233     -0.1314
     89  N         28.2510   14.8420    5.1370 N.3   247  ARG247     -0.1245
     90  CA        27.7360   14.5860    6.4780 C.3   247  ARG247      0.1563
     91  C         26.2150   14.6300    6.5970 C.2   247  ARG247      0.2260
     92  O         25.6690   15.1170    7.5870 O.2   247  ARG247     -0.2867
     93  CB        28.3480   15.5890    7.4640 C.3   247  ARG247      0.0307
     94  CG        29.8580   15.7820    7.2940 C.3   247  ARG247      0.0489
     95  CD        30.6000   14.4510    7.3870 C.3   247  ARG247      0.2205
     96  NE        30.5060   13.8500    8.7140 N.pl3 247  ARG247     -0.0865
     97  CZ        30.8660   12.6010    8.9940 C.cat 247  ARG247      0.5346
     98  NH1       31.3430   11.8070    8.0390 N.pl3 247  ARG247      0.1354
     99  NH2       30.7620   12.1460   10.2340 N.pl3 247  ARG247      0.1354
    100  N         23.2190   13.7720    7.8560 N.3   249  ASN249     -0.1225
    101  CA        22.8090   12.9790    9.0050 C.3   249  ASN249      0.1785
    102  C         21.7040   13.6830    9.7730 C.2   249  ASN249      0.2597
    103  O         21.8870   14.7920   10.2750 O.2   249  ASN249     -0.2718
    104  CB        24.0220   12.7200    9.9050 C.3   249  ASN249      0.1169
    105  CG        23.7780   11.6110   10.9040 C.2   249  ASN249      0.2627
    106  OD1       23.2240   11.8350   11.9740 O.2   249  ASN249     -0.2716
    107  ND2       24.1800   10.3980   10.5480 N.am  249  ASN249     -0.0877
    108  N         20.5520   13.0270    9.8620 N.am  250  ALA250     -0.1966
    109  CA        19.3940   13.5960   10.5360 C.3   250  ALA250      0.1728
    110  C         19.5530   13.7990   12.0400 C.2   250  ALA250      0.2616
    111  O         20.1060   12.9550   12.7440 O.2   250  ALA250     -0.2715
    112  CB        18.1790   12.7370   10.2660 C.3   250  ALA250      0.0334
    113  N         19.0420   14.9290   12.5170 N.am  251  ASN251     -0.1959
    114  CA        19.0880   15.2780   13.9330 C.3   251  ASN251      0.1804
    115  C         17.7880   14.7960   14.5700 C.2   251  ASN251      0.2463
    116  O         16.7000   15.2430   14.1950 O.2   251  ASN251     -0.2730
    117  CB        19.2150   16.7930   14.0870 C.3   251  ASN251      0.1195
    118  CG        19.4320   17.2090   15.5190 C.2   251  ASN251      0.2630
    119  OD1       18.6300   16.8960   16.3930 O.2   251  ASN251     -0.2716
    120  ND2       20.5250   17.9180   15.7680 N.am  251  ASN251     -0.0877
    121  N         17.8790   13.8730   15.5390 N.am  252  PRO252     -0.2727
    122  CA        16.6840   13.3440   16.2030 C.3   252  PRO252      0.1402
    123  C         15.7120   14.4130   16.6830 C.2   252  PRO252      0.2269
    124  O         14.5010   14.2780   16.5320 O.2   252  PRO252     -0.2865
    125  CB        17.2660   12.5300   17.3550 C.3   252  PRO252      0.0296
    126  CG        18.5590   12.0290   16.7760 C.3   252  PRO252      0.0237
    127  CD        19.1010   13.2670   16.0980 C.3   252  PRO252      0.0939
    128  N         27.9290    2.8950   22.0660 N.3   349  TYR349     -0.1241
    129  CA        28.7120    3.6390   21.0890 C.3   349  TYR349      0.1605
    130  C         28.3750    5.0800   21.4620 C.2   349  TYR349      0.2264
    131  O         27.3590    5.6230   21.0220 O.2   349  TYR349     -0.2867
    132  CB        28.2540    3.3380   19.6530 C.3   349  TYR349      0.0534
    133  CG        29.0730    4.0260   18.5670 C.ar  349  TYR349     -0.0201
    134  CD1       28.4700    4.4410   17.3780 C.ar  349  TYR349     -0.0009
    135  CD2       30.4480    4.2620   18.7270 C.ar  349  TYR349     -0.0009
    136  CE1       29.2000    5.0750   16.3770 C.ar  349  TYR349      0.0417
    137  CE2       31.1980    4.8980   17.7260 C.ar  349  TYR349      0.0417
    138  CZ        30.5620    5.3010   16.5560 C.ar  349  TYR349      0.1957
    139  OH        31.2690    5.9290   15.5620 O.3   349  TYR349     -0.2866
    140  N         28.6590    8.8180   21.2080 N.3   351  VAL351     -0.1231
    141  CA        28.9820    9.7850   20.1710 C.3   351  VAL351      0.1692
    142  C         28.6500   11.2230   20.5600 C.2   351  VAL351      0.2592
    143  O         28.3150   11.5090   21.7090 O.2   351  VAL351     -0.2718
    144  CB        28.1990    9.4500   18.8970 C.3   351  VAL351      0.0266
    145  CG1       28.6220    8.0910   18.3700 C.3   351  VAL351      0.0020
    146  CG2       26.7070    9.4440   19.2120 C.3   351  VAL351      0.0020
    147  N         28.7430   12.1210   19.5830 N.am  352  GLY352     -0.1957
    148  CA        28.4480   13.5230   19.8260 C.3   352  GLY352      0.1869
    149  C         29.4360   14.1790   20.7710 C.2   352  GLY352      0.2309
    150  O         29.1110   15.1640   21.4350 O.2   352  GLY352     -0.2863
@<TRIPOS>BOND
     1    89    90    1
     2    12    11    1
     3    90    91    1
     4    90    93    1
     5    91    92    2
     6    11     9   ar
     7    11    10   ar
     8    94    95    1
     9    94    93    1
    10    95    96    1
    11    56    58   ar
    12    56    55   ar
    13    58    60   ar
    14     9     7   ar
    15    53    52    2
    16   100   101    1
    17    10     8   ar
    18    50    51    1
    19    98    97    1
    20    54    55    1
    21    54    51    1
    22    55    57   ar
    23    60    61    1
    24    60    59   ar
    25    96    97    2
    26    52    51    1
    27    97    99    1
    28   101   102    1
    29   101   104    1
    30     7     6   ar
    31     8     6   ar
    32    57    59   ar
    33   102   108   am
    34   102   103    2
    35     6     5    1
    36   108   109    1
    37   104   105    1
    38   112   109    1
    39   109   110    1
    40   107   105   am
    41   105   106    2
    42     5     2    1
    43    82    83    2
    44    82    81    1
    45     4     3    2
    46    85    86    1
    47    85    84    1
    48   110   113   am
    49   110   111    2
    50    86    87    1
    51     2     3    1
    52     2     1    1
    53     3    13   am
    54   113   114    1
    55    81    84    1
    56    81    80    1
    57    13    14    1
    58    87    88    1
    59    14    17    1
    60    14    15    1
    61   114   117    1
    62   114   115    1
    63   117   118    1
    64   116   115    2
    65    15    16    2
    66   115   121   am
    67    35    34    1
    68   118   120   am
    69   118   119    2
    70   121   127    1
    71   121   122    1
    72   139   138    1
    73   127   126    1
    74   122   123    1
    75   122   125    1
    76    26    24   ar
    77    34    33    1
    78   136   138   ar
    79   136   134   ar
    80   124   123    2
    81   138   137   ar
    82    25    24   ar
    83    75    77   ar
    84    75    73   ar
    85    77    78   ar
    86   126   125    1
    87    24    23    1
    88    49    47    1
    89    33    32    1
    90   134   133   ar
    91    70    71    2
    92    70    69    1
    93   137   135   ar
    94    23    22    1
    95    73    72    1
    96    73    74   ar
    97    78    79    1
    98    78    76   ar
    99    72    69    1
   100    22    19    1
   101    48    46    1
   102    47    46    1
   103   145   144    1
   104    69    68    1
   105    18    19    1
   106   133   135   ar
   107   133   132    1
   108    21    20    2
   109    32    31    1
   110    46    43    1
   111    74    76   ar
   112   144   146    1
   113   144   141    1
   114    19    20    1
   115   147   148    1
   116   147   142   am
   117   132   129    1
   118    31    28    1
   119   148   149    1
   120    67    66    1
   121   141   142    1
   122   141   140    1
   123    43    44    1
   124    43    42    1
   125    66    63    1
   126   142   143    2
   127   149   150    2
   128    44    45    2
   129    27    28    1
   130   131   130    2
   131   129   130    1
   132   129   128    1
   133    28    29    1
   134    41    40    1
   135    29    30    2
   136    65    64    2
   137    63    64    1
   138    63    62    1
   139    39    38    2
   140    40    37    1
   141    38    37    1
   142    37    36    1
