@<TRIPOS>MOLECULE
tmp/3inaA01.pdb
 183 172 0 0 0
SMALL
GASTEIGER

@<TRIPOS>ATOM
      1  N         38.4850    8.9210   18.0250 N.3    65  GLU65      -0.1231
      2  CA        38.3770   10.2710   17.4850 C.3    65  GLU65       0.1699
      3  C         37.1710   10.3720   16.5530 C.2    65  GLU65       0.2593
      4  O         36.8890    9.4460   15.7900 O.2    65  GLU65      -0.2718
      5  CB        39.6370   10.6340   16.6980 C.3    65  GLU65       0.0402
      6  CG        40.9200   10.6400   17.5120 C.3    65  GLU65       0.1161
      7  CD        42.1470   10.8860   16.6500 C.2    65  GLU65       0.3649
      8  OE1       43.2700   10.9020   17.2000 O.co2  65  GLU65      -0.2457
      9  OE2       41.9880   11.0610   15.4190 O.co2  65  GLU65      -0.2457
     10  N         36.4680   11.4980   16.6190 N.am   66  GLY66      -0.1942
     11  CA        35.3150   11.7100   15.7610 C.3    66  GLY66       0.2014
     12  C         35.7740   12.2530   14.4210 C.2    66  GLY66       0.2638
     13  O         36.9770   12.3640   14.1810 O.2    66  GLY66      -0.2714
     14  N         34.8360   12.5980   13.5450 N.am   67  TYR67      -0.1973
     15  CA        35.1980   13.1190   12.2350 C.3    67  TYR67       0.1639
     16  C         35.7750   14.5250   12.3550 C.2    67  TYR67       0.2290
     17  O         36.6880   14.8870   11.6200 O.2    67  TYR67      -0.2864
     18  CB        33.9820   13.1350   11.3100 C.3    67  TYR67       0.0560
     19  CG        34.3460   13.1030    9.8410 C.ar   67  TYR67      -0.0198
     20  CD1       34.3420   14.2670    9.0690 C.ar   67  TYR67      -0.0009
     21  CD2       34.7040   11.8990    9.2250 C.ar   67  TYR67      -0.0009
     22  CE1       34.6820   14.2340    7.7220 C.ar   67  TYR67       0.0417
     23  CE2       35.0480   11.8520    7.8830 C.ar   67  TYR67       0.0417
     24  CZ        35.0350   13.0230    7.1360 C.ar   67  TYR67       0.1957
     25  OH        35.3730   12.9770    5.8070 O.3    67  TYR67      -0.2866
     26  N         37.0930   16.2030   18.5070 N.3    71  GLU71      -0.1245
     27  CA        35.9790   15.3730   18.9610 C.3    71  GLU71       0.1567
     28  C         36.4240   13.9560   19.2980 C.2    71  GLU71       0.2260
     29  O         37.3480   13.4180   18.6870 O.2    71  GLU71      -0.2867
     30  CB        34.8750   15.3150   17.9020 C.3    71  GLU71       0.0388
     31  CG        34.0710   16.5930   17.7600 C.3    71  GLU71       0.1160
     32  CD        32.8980   16.4360   16.8050 C.2    71  GLU71       0.3649
     33  OE1       32.1800   17.4350   16.5730 O.co2  71  GLU71      -0.2457
     34  OE2       32.6930   15.3130   16.2880 O.co2  71  GLU71      -0.2457
     35  N         34.9640    9.8630   20.9480 N.3    73  LYS73      -0.1245
     36  CA        33.8260    8.9710   21.0890 C.3    73  LYS73       0.1561
     37  C         34.2680    7.7120   21.8230 C.2    73  LYS73       0.2260
     38  O         35.4630    7.4640   21.9760 O.2    73  LYS73      -0.2867
     39  CB        33.2390    8.6340   19.7080 C.3    73  LYS73       0.0271
     40  CG        34.2150    7.9940   18.7410 C.3    73  LYS73       0.0035
     41  CD        33.6270    7.9290   17.3290 C.3    73  LYS73       0.0206
     42  CE        34.5890    7.2420   16.3670 C.3    73  LYS73       0.1093
     43  NZ        34.0120    7.0480   15.0030 N.3    73  LYS73      -0.1314
     44  N         33.5470    3.3260   22.6640 N.3    75  ARG75      -0.1245
     45  CA        32.9650    2.0900   22.1670 C.3    75  ARG75       0.1563
     46  C         33.1960    0.8760   23.0620 C.2    75  ARG75       0.2260
     47  O         34.3080    0.6280   23.5360 O.2    75  ARG75      -0.2867
     48  CB        33.5110    1.7760   20.7680 C.3    75  ARG75       0.0307
     49  CG        32.7910    0.6260   20.0600 C.3    75  ARG75       0.0489
     50  CD        33.5830    0.0790   18.8640 C.3    75  ARG75       0.2205
     51  NE        33.9330    1.1040   17.8770 N.pl3  75  ARG75      -0.0865
     52  CZ        33.0620    1.7340   17.0940 C.cat  75  ARG75       0.5346
     53  NH1       31.7680    1.4550   17.1670 N.pl3  75  ARG75       0.1354
     54  NH2       33.4870    2.6510   16.2270 N.pl3  75  ARG75       0.1354
     55  N         24.3880    5.0950   21.1310 N.3   138  ILE138     -0.1245
     56  CA        23.6910    4.2010   20.2220 C.3   138  ILE138      0.1561
     57  C         23.8010    2.8410   20.9080 C.2   138  ILE138      0.2260
     58  O         24.9100    2.4130   21.2400 O.2   138  ILE138     -0.2867
     59  CB        24.3980    4.1770   18.8470 C.3   138  ILE138      0.0252
     60  CG1       24.1780    5.5220   18.1430 C.3   138  ILE138      0.0019
     61  CG2       23.9020    3.0130   18.0100 C.3   138  ILE138      0.0019
     62  CD1       24.9160    5.6630   16.8230 C.3   138  ILE138      0.0001
     63  N         42.2910    5.6420    8.6090 N.3   177  LYS177     -0.1245
     64  CA        40.8680    5.4980    8.3230 C.3   177  LYS177      0.1561
     65  C         40.7120    5.3020    6.8110 C.2   177  LYS177      0.2260
     66  O         41.1130    4.2670    6.2900 O.2   177  LYS177     -0.2867
     67  CB        40.0740    6.7160    8.8220 C.3   177  LYS177      0.0271
     68  CG        39.8240    6.6790   10.3360 C.3   177  LYS177      0.0035
     69  CD        39.0850    7.9150   10.8500 C.3   177  LYS177      0.0206
     70  CE        38.8490    7.8200   12.3580 C.3   177  LYS177      0.1093
     71  NZ        38.1790    9.0350   12.9090 N.3   177  LYS177     -0.1314
     72  N         34.6800    2.9900    6.6600 N.3   216  GLY216     -0.1210
     73  CA        33.7520    3.6840    7.5310 C.3   216  GLY216      0.1956
     74  C         32.3810    3.9230    6.9310 C.2   216  GLY216      0.2612
     75  O         31.9060    3.1460    6.0920 O.2   216  GLY216     -0.2717
     76  N         31.7550    5.0120    7.3660 N.am  217  GLY217     -0.1942
     77  CA        30.4290    5.3610    6.8960 C.3   217  GLY217      0.2014
     78  C         29.3720    5.1240    7.9630 C.2   217  GLY217      0.2639
     79  O         29.5240    4.2320    8.8050 O.2   217  GLY217     -0.2714
     80  N         28.3010    5.9170    7.9200 N.am  218  TYR218     -0.1960
     81  CA        27.1990    5.8020    8.8770 C.3   218  TYR218      0.1756
     82  C         26.5690    4.4090    8.8290 C.2   218  TYR218      0.2461
     83  O         26.5420    3.7660    7.7760 O.2   218  TYR218     -0.2730
     84  CB        26.0910    6.8200    8.5530 C.3   218  TYR218      0.0574
     85  CG        26.5140    8.2800    8.5740 C.ar  218  TYR218     -0.0198
     86  CD1       26.1830    9.1400    7.5190 C.ar  218  TYR218     -0.0009
     87  CD2       27.2180    8.8060    9.6600 C.ar  218  TYR218     -0.0009
     88  CE1       26.5430   10.4900    7.5470 C.ar  218  TYR218      0.0417
     89  CE2       27.5820   10.1530    9.6990 C.ar  218  TYR218      0.0417
     90  CZ        27.2430   10.9840    8.6440 C.ar  218  TYR218      0.1957
     91  OH        27.6040   12.3040    8.6930 O.3   218  TYR218     -0.2866
     92  N         26.0860    3.9150    9.9770 N.am  219  PRO219     -0.2727
     93  CA        25.4500    2.5970    9.9870 C.3   219  PRO219      0.1402
     94  C         24.0700    2.7820    9.3480 C.2   219  PRO219      0.2269
     95  O         23.4070    3.7810    9.6010 O.2   219  PRO219     -0.2865
     96  CB        25.3400    2.2790   11.4750 C.3   219  PRO219      0.0296
     97  CG        25.1240    3.6520   12.0770 C.3   219  PRO219      0.0237
     98  CD        26.1430    4.4870   11.3360 C.3   219  PRO219      0.0939
     99  N         20.2600    2.5610   13.2870 N.3   222  ALA222     -0.1245
    100  CA        20.7470    2.7650   14.6420 C.3   222  ALA222      0.1562
    101  C         19.6180    3.0990   15.6040 C.2   222  ALA222      0.2260
    102  O         18.7040    3.8560   15.2690 O.2   222  ALA222     -0.2867
    103  CB        21.7850    3.8930   14.6470 C.3   222  ALA222      0.0290
    104  N         15.4570    7.3980   19.7920 N.3   231  TYR231     -0.1241
    105  CA        15.1700    7.5260   18.3750 C.3   231  TYR231      0.1605
    106  C         15.6900    6.3110   17.6160 C.2   231  TYR231      0.2264
    107  O         16.4990    5.5330   18.1230 O.2   231  TYR231     -0.2867
    108  CB        15.8440    8.7800   17.8090 C.3   231  TYR231      0.0534
    109  CG        17.3510    8.6440   17.7660 C.ar  231  TYR231     -0.0201
    110  CD1       18.1290    8.9590   18.8850 C.ar  231  TYR231     -0.0009
    111  CD2       17.9880    8.0900   16.6480 C.ar  231  TYR231     -0.0009
    112  CE1       19.4860    8.7200   18.9010 C.ar  231  TYR231      0.0417
    113  CE2       19.3480    7.8450   16.6510 C.ar  231  TYR231      0.0417
    114  CZ        20.0900    8.1580   17.7820 C.ar  231  TYR231      0.1957
    115  OH        21.4270    7.8750   17.8150 O.3   231  TYR231     -0.2866
    116  N         17.1790    5.7210   13.7510 N.3   233  LYS233     -0.1245
    117  CA        17.6470    6.4200   12.5620 C.3   233  LYS233      0.1561
    118  C         18.1000    5.4730   11.4500 C.2   233  LYS233      0.2260
    119  O         18.8930    4.5580   11.6870 O.2   233  LYS233     -0.2867
    120  CB        18.8120    7.3370   12.9440 C.3   233  LYS233      0.0271
    121  CG        19.3750    8.1710   11.8040 C.3   233  LYS233      0.0035
    122  CD        20.6900    8.8470   12.2060 C.3   233  LYS233      0.0206
    123  CE        20.5070    9.8260   13.3610 C.3   233  LYS233      0.1093
    124  NZ        21.8280   10.3790   13.7880 N.3   233  LYS233     -0.1314
    125  N         19.8530    5.1550    7.5360 N.3   235  ASN235     -0.1240
    126  CA        20.7190    5.8740    6.6070 C.3   235  ASN235      0.1653
    127  C         20.8510    5.1050    5.3010 C.2   235  ASN235      0.2266
    128  O         20.8850    3.8730    5.2900 O.2   235  ASN235     -0.2867
    129  CB        22.1250    6.0720    7.1940 C.3   235  ASN235      0.1155
    130  CG        22.1300    6.9740    8.4140 C.2   235  ASN235      0.2627
    131  OD1       22.5400    6.5630    9.5080 O.2   235  ASN235     -0.2716
    132  ND2       21.6800    8.2070    8.2330 N.am  235  ASN235     -0.0877
    133  N         32.9740   10.3450    2.5430 N.3   244  LYS244     -0.1245
    134  CA        32.8480   10.5920    3.9790 C.3   244  LYS244      0.1561
    135  C         32.6380   12.0650    4.3280 C.2   244  LYS244      0.2260
    136  O         32.1930   12.3860    5.4250 O.2   244  LYS244     -0.2867
    137  CB        34.0710   10.0360    4.7240 C.3   244  LYS244      0.0271
    138  CG        34.2940    8.5430    4.5130 C.3   244  LYS244      0.0035
    139  CD        35.3290    7.9800    5.4980 C.3   244  LYS244      0.0206
    140  CE        34.7180    7.7420    6.8800 C.3   244  LYS244      0.1093
    141  NZ        35.7410    7.3300    7.8930 N.3   244  LYS244     -0.1314
    142  N         28.2510   14.8420    5.1370 N.3   247  ARG247     -0.1245
    143  CA        27.7360   14.5860    6.4780 C.3   247  ARG247      0.1563
    144  C         26.2150   14.6300    6.5970 C.2   247  ARG247      0.2260
    145  O         25.6690   15.1170    7.5870 O.2   247  ARG247     -0.2867
    146  CB        28.3480   15.5890    7.4640 C.3   247  ARG247      0.0307
    147  CG        29.8580   15.7820    7.2940 C.3   247  ARG247      0.0489
    148  CD        30.6000   14.4510    7.3870 C.3   247  ARG247      0.2205
    149  NE        30.5060   13.8500    8.7140 N.pl3 247  ARG247     -0.0865
    150  CZ        30.8660   12.6010    8.9940 C.cat 247  ARG247      0.5346
    151  NH1       31.3430   11.8070    8.0390 N.pl3 247  ARG247      0.1354
    152  NH2       30.7620   12.1460   10.2340 N.pl3 247  ARG247      0.1354
    153  N         23.2190   13.7720    7.8560 N.3   249  ASN249     -0.1240
    154  CA        22.8090   12.9790    9.0050 C.3   249  ASN249      0.1653
    155  C         21.7040   13.6830    9.7730 C.2   249  ASN249      0.2266
    156  O         21.8870   14.7920   10.2750 O.2   249  ASN249     -0.2867
    157  CB        24.0220   12.7200    9.9050 C.3   249  ASN249      0.1155
    158  CG        23.7780   11.6110   10.9040 C.2   249  ASN249      0.2627
    159  OD1       23.2240   11.8350   11.9740 O.2   249  ASN249     -0.2716
    160  ND2       24.1800   10.3980   10.5480 N.am  249  ASN249     -0.0877
    161  N         27.9290    2.8950   22.0660 N.3   349  TYR349     -0.1241
    162  CA        28.7120    3.6390   21.0890 C.3   349  TYR349      0.1605
    163  C         28.3750    5.0800   21.4620 C.2   349  TYR349      0.2264
    164  O         27.3590    5.6230   21.0220 O.2   349  TYR349     -0.2867
    165  CB        28.2540    3.3380   19.6530 C.3   349  TYR349      0.0534
    166  CG        29.0730    4.0260   18.5670 C.ar  349  TYR349     -0.0201
    167  CD1       28.4700    4.4410   17.3780 C.ar  349  TYR349     -0.0009
    168  CD2       30.4480    4.2620   18.7270 C.ar  349  TYR349     -0.0009
    169  CE1       29.2000    5.0750   16.3770 C.ar  349  TYR349      0.0417
    170  CE2       31.1980    4.8980   17.7260 C.ar  349  TYR349      0.0417
    171  CZ        30.5620    5.3010   16.5560 C.ar  349  TYR349      0.1957
    172  OH        31.2690    5.9290   15.5620 O.3   349  TYR349     -0.2866
    173  N         28.6590    8.8180   21.2080 N.3   351  VAL351     -0.1231
    174  CA        28.9820    9.7850   20.1710 C.3   351  VAL351      0.1692
    175  C         28.6500   11.2230   20.5600 C.2   351  VAL351      0.2592
    176  O         28.3150   11.5090   21.7090 O.2   351  VAL351     -0.2718
    177  CB        28.1990    9.4500   18.8970 C.3   351  VAL351      0.0266
    178  CG1       28.6220    8.0910   18.3700 C.3   351  VAL351      0.0020
    179  CG2       26.7070    9.4440   19.2120 C.3   351  VAL351      0.0020
    180  N         28.7430   12.1210   19.5830 N.am  352  GLY352     -0.1957
    181  CA        28.4480   13.5230   19.8260 C.3   352  GLY352      0.1869
    182  C         29.4360   14.1790   20.7710 C.2   352  GLY352      0.2309
    183  O         29.1110   15.1640   21.4350 O.2   352  GLY352     -0.2863
@<TRIPOS>BOND
     1   133   134    1
     2   134   135    1
     3   134   137    1
     4   135   136    2
     5   138   137    1
     6   138   139    1
     7   142   143    1
     8   128   127    2
     9   127   126    1
    10   139   140    1
    11    25    24    1
    12    75    74    2
    13    66    65    2
    14   143   144    1
    15   143   146    1
    16   144   145    2
    17   126   129    1
    18   126   125    1
    19    72    73    1
    20    65    64    1
    21   140   141    1
    22    77    76    1
    23    77    78    1
    24    74    76   am
    25    74    73    1
    26    24    22   ar
    27    24    23   ar
    28   129   130    1
    29   147   148    1
    30   147   146    1
    31   148   149    1
    32    86    88   ar
    33    86    85   ar
    34    88    90   ar
    35    22    20   ar
    36    83    82    2
    37   153   154    1
    38    23    21   ar
    39    80    78   am
    40    80    81    1
    41    78    79    2
    42   151   150    1
    43   132   130   am
    44    64    63    1
    45    64    67    1
    46   130   131    2
    47    84    85    1
    48    84    81    1
    49    85    87   ar
    50    90    91    1
    51    90    89   ar
    52   149   150    2
    53    67    68    1
    54    82    81    1
    55    82    92   am
    56   150   152    1
    57   154   155    1
    58   154   157    1
    59    20    19   ar
    60    21    19   ar
    61    94    95    2
    62    94    93    1
    63    87    89   ar
    64   155   156    2
    65    19    18    1
    66   157   158    1
    67    92    93    1
    68    92    98    1
    69    93    96    1
    70    68    69    1
    71   160   158   am
    72    69    70    1
    73   158   159    2
    74    18    15    1
    75    98    97    1
    76   118   119    2
    77   118   117    1
    78    96    97    1
    79    17    16    2
    80   121   122    1
    81   121   120    1
    82   122   123    1
    83    15    16    1
    84    15    14    1
    85    70    71    1
    86   117   120    1
    87   117   116    1
    88    99   100    1
    89   123   124    1
    90    14    12   am
    91    13    12    2
    92    12    11    1
    93   100   103    1
    94   100   101    1
    95    43    42    1
    96   102   101    2
    97     9     7   ar
    98   172   171    1
    99    11    10    1
   100     4     3    2
   101    54    52    1
   102    34    32   ar
   103    42    41    1
   104   169   171   ar
   105   169   167   ar
   106     3    10   am
   107     3     2    1
   108   171   170   ar
   109    33    32   ar
   110   111   113   ar
   111   111   109   ar
   112     7     8   ar
   113     7     6    1
   114   113   114   ar
   115     5     2    1
   116     5     6    1
   117    32    31    1
   118    62    60    1
   119    52    53    1
   120    52    51    2
   121    41    40    1
   122   167   166   ar
   123     2     1    1
   124   106   107    2
   125   106   105    1
   126   170   168   ar
   127    31    30    1
   128   109   108    1
   129   109   110   ar
   130   114   115    1
   131   114   112   ar
   132   108   105    1
   133    51    50    1
   134    30    27    1
   135    61    59    1
   136    60    59    1
   137   178   177    1
   138   105   104    1
   139    26    27    1
   140   166   168   ar
   141   166   165    1
   142    29    28    2
   143    40    39    1
   144    59    56    1
   145    50    49    1
   146   110   112   ar
   147   177   179    1
   148   177   174    1
   149    27    28    1
   150   180   181    1
   151   180   175   am
   152   165   162    1
   153    39    36    1
   154   181   182    1
   155    49    48    1
   156   174   175    1
   157   174   173    1
   158    56    57    1
   159    56    55    1
   160   175   176    2
   161    48    45    1
   162   182   183    2
   163    57    58    2
   164    35    36    1
   165   164   163    2
   166   162   163    1
   167   162   161    1
   168    36    37    1
   169    37    38    2
   170    45    44    1
   171    45    46    1
   172    46    47    2
