@<TRIPOS>MOLECULE
tmp/3indA00.pdb
 176 165 0 0 0
SMALL
GASTEIGER

@<TRIPOS>ATOM
      1  N          5.2560   -0.7270   13.0940 N.3    15  GLN15      -0.1231
      2  CA         5.2390   -2.1830   13.1980 C.3    15  GLN15       0.1698
      3  C          6.1700   -2.8470   12.1900 C.2    15  GLN15       0.2592
      4  O          6.1250   -4.0600   11.9970 O.2    15  GLN15      -0.2718
      5  CB         3.8130   -2.7210   13.0660 C.3    15  GLN15       0.0381
      6  CG         2.9320   -2.4050   14.2680 C.3    15  GLN15       0.0905
      7  CD         1.5050   -2.8900   14.0970 C.2    15  GLN15       0.2608
      8  OE1        1.0920   -3.2640   13.0000 O.2    15  GLN15      -0.2717
      9  NE2        0.7430   -2.8820   15.1840 N.am   15  GLN15      -0.0878
     10  N          7.0140   -2.0400   11.5540 N.am   16  GLY16      -0.1957
     11  CA         8.0470   -2.5480   10.6710 C.3    16  GLY16       0.1869
     12  C          7.6020   -2.7220    9.2330 C.2    16  GLY16       0.2309
     13  O          6.4190   -2.5960    8.9160 O.2    16  GLY16      -0.2863
     14  N          9.1880   -9.6290    7.9650 N.3    33  LEU33      -0.1245
     15  CA         9.8060   -8.3520    8.3110 C.3    33  LEU33       0.1561
     16  C         11.2660   -8.2720    7.8630 C.2    33  LEU33       0.2260
     17  O         12.0580   -9.1850    8.1070 O.2    33  LEU33      -0.2867
     18  CB         9.7300   -8.1160    9.8210 C.3    33  LEU33       0.0270
     19  CG        10.3730   -6.8230   10.3250 C.3    33  LEU33       0.0019
     20  CD1        9.3790   -5.6820   10.2650 C.3    33  LEU33       0.0001
     21  CD2       10.8820   -7.0030   11.7400 C.3    33  LEU33       0.0001
     22  N         14.7820   -7.0230    8.4020 N.3    35  ASP35      -0.1239
     23  CA        15.4920   -6.6400    9.6170 C.3    35  ASP35       0.1674
     24  C         17.0080   -6.6080    9.4230 C.2    35  ASP35       0.2266
     25  O         17.6610   -7.6480    9.4570 O.2    35  ASP35      -0.2867
     26  CB        15.1370   -7.6140   10.7450 C.3    35  ASP35       0.1410
     27  CG        15.5900   -7.1250   12.1020 C.2    35  ASP35       0.3668
     28  OD1       15.9650   -5.9370   12.2150 O.co2  35  ASP35      -0.2456
     29  OD2       15.5650   -7.9260   13.0600 O.co2  35  ASP35      -0.2456
     30  N         18.9270   -5.5220   11.5010 N.3    37  GLY37      -0.1210
     31  CA        19.4450   -5.4910   12.8580 C.3    37  GLY37       0.1956
     32  C         19.5720   -6.8610   13.4980 C.2    37  GLY37       0.2612
     33  O         19.8140   -6.9790   14.7010 O.2    37  GLY37      -0.2717
     34  N         19.3970   -7.8990   12.6910 N.am   38  SER38      -0.1952
     35  CA        19.5430   -9.2750   13.1470 C.3    38  SER38       0.1924
     36  C         19.9750  -10.1250   11.9610 C.2    38  SER38       0.2314
     37  O         20.0480   -9.6260   10.8340 O.2    38  SER38      -0.2863
     38  CB        18.2380   -9.7980   13.7500 C.3    38  SER38       0.2116
     39  OG        17.1970   -9.8220   12.7870 O.3    38  SER38      -0.2180
     40  N         19.0800  -13.8190   11.6410 N.3    40  ASN40      -0.1240
     41  CA        18.3630  -15.0800   11.4910 C.3    40  ASN40       0.1653
     42  C         17.0980  -14.9700   10.6390 C.2    40  ASN40       0.2266
     43  O         16.2980  -14.0510   10.8050 O.2    40  ASN40      -0.2867
     44  CB        17.9990  -15.6660   12.8580 C.3    40  ASN40       0.1155
     45  CG        19.1750  -16.3230   13.5440 C.2    40  ASN40       0.2627
     46  OD1       19.9490  -15.6650   14.2380 O.2    40  ASN40      -0.2716
     47  ND2       19.3070  -17.6320   13.3660 N.am   40  ASN40      -0.0877
     48  N         16.5520  -17.8520   21.4560 N.3    72  VAL72      -0.1245
     49  CA        16.9550  -16.4690   21.2520 C.3    72  VAL72       0.1561
     50  C         16.2600  -15.5140   22.2140 C.2    72  VAL72       0.2260
     51  O         15.2300  -14.9330   21.8830 O.2    72  VAL72      -0.2867
     52  CB        16.7050  -16.0170   19.8030 C.3    72  VAL72       0.0252
     53  CG1       17.3570  -14.6650   19.5570 C.3    72  VAL72       0.0019
     54  CG2       17.2420  -17.0520   18.8330 C.3    72  VAL72       0.0019
     55  N         16.0910  -11.9710   24.2740 N.3    74  TYR74      -0.1241
     56  CA        16.5560  -10.6040   24.0980 C.3    74  TYR74       0.1605
     57  C         15.8520   -9.6830   25.0880 C.2    74  TYR74       0.2264
     58  O         14.9630  -10.1100   25.8210 O.2    74  TYR74      -0.2867
     59  CB        16.3570  -10.1370   22.6560 C.3    74  TYR74       0.0534
     60  CG        14.9220  -10.1130   22.1910 C.ar   74  TYR74      -0.0201
     61  CD1       14.1790   -8.9420   22.2370 C.ar   74  TYR74      -0.0009
     62  CD2       14.3130  -11.2570   21.6970 C.ar   74  TYR74      -0.0009
     63  CE1       12.8740   -8.9110   21.8110 C.ar   74  TYR74       0.0417
     64  CE2       13.0040  -11.2340   21.2670 C.ar   74  TYR74       0.0417
     65  CZ        12.2910  -10.0580   21.3280 C.ar   74  TYR74       0.1957
     66  OH        10.9870  -10.0220   20.9040 O.3    74  TYR74      -0.2866
     67  N         13.5470   -7.1870   25.1380 N.3    76  GLN76      -0.1245
     68  CA        12.0970   -7.0110   25.1700 C.3    76  GLN76       0.1566
     69  C         11.3100   -8.3190   25.2640 C.2    76  GLN76       0.2260
     70  O         10.1640   -8.3230   25.7160 O.2    76  GLN76      -0.2867
     71  CB        11.6300   -6.2210   23.9470 C.3    76  GLN76       0.0367
     72  CG        12.1190   -4.7840   23.9060 C.3    76  GLN76       0.0905
     73  CD        11.5890   -4.0280   22.7020 C.2    76  GLN76       0.2608
     74  OE1       11.4150   -4.5980   21.6210 O.2    76  GLN76      -0.2717
     75  NE2       11.3280   -2.7370   22.8830 N.am   76  GLN76      -0.0878
     76  N         12.2520  -15.6880   21.5080 N.3    79  TRP79      -0.1241
     77  CA        11.6280  -16.7180   20.6970 C.3    79  TRP79       0.1605
     78  C         12.4960  -17.9690   20.6890 C.2    79  TRP79       0.2264
     79  O         13.7230  -17.8890   20.7290 O.2    79  TRP79      -0.2867
     80  CB        11.3560  -16.2240   19.2700 C.3    79  TRP79       0.0550
     81  CG        12.5860  -15.8860   18.4720 C.ar   79  TRP79       0.0003
     82  CD1       13.1740  -14.6580   18.3490 C.ar   79  TRP79       0.0946
     83  CD2       13.3670  -16.7840   17.6720 C.ar   79  TRP79       0.0152
     84  NE1       14.2730  -14.7380   17.5280 N.ar   79  TRP79      -0.2442
     85  CE2       14.4150  -16.0330   17.1000 C.ar   79  TRP79       0.0810
     86  CE3       13.2870  -18.1520   17.3870 C.ar   79  TRP79       0.0012
     87  CZ2       15.3710  -16.6010   16.2610 C.ar   79  TRP79       0.0191
     88  CZ3       14.2390  -18.7150   16.5590 C.ar   79  TRP79       0.0001
     89  CH2       15.2650  -17.9420   16.0050 C.ar   79  TRP79       0.0015
     90  N          6.2730  -11.8800   23.4460 N.3   110  LYS110     -0.1231
     91  CA         6.3380  -10.4830   23.0160 C.3   110  LYS110      0.1693
     92  C          7.1910  -10.2880   21.7630 C.2   110  LYS110      0.2592
     93  O          7.8450   -9.2600   21.6030 O.2   110  LYS110     -0.2718
     94  CB         6.8370   -9.5880   24.1570 C.3   110  LYS110      0.0285
     95  CG         5.7550   -9.2240   25.1660 C.3   110  LYS110      0.0035
     96  CD         6.3280   -8.5240   26.3860 C.3   110  LYS110      0.0206
     97  CE         7.0320   -9.5100   27.3080 C.3   110  LYS110      0.1093
     98  NZ         7.5170   -8.8600   28.5610 N.3   110  LYS110     -0.1314
     99  N          7.1720  -11.2780   20.8760 N.am  111  PHE111     -0.1976
    100  CA         7.9260  -11.2100   19.6290 C.3   111  PHE111      0.1639
    101  C          7.0210  -10.7690   18.4810 C.2   111  PHE111      0.2290
    102  O          7.2380   -9.7200   17.8720 O.2   111  PHE111     -0.2864
    103  CB         8.5670  -12.5660   19.3190 C.3   111  PHE111      0.0560
    104  CG         9.3600  -12.5900   18.0400 C.ar  111  PHE111     -0.0200
    105  CD1       10.6110  -12.0020   17.9710 C.ar  111  PHE111     -0.0042
    106  CD2        8.8570  -13.2150   16.9080 C.ar  111  PHE111     -0.0042
    107  CE1       11.3410  -12.0290   16.7960 C.ar  111  PHE111     -0.0003
    108  CE2        9.5850  -13.2420   15.7300 C.ar  111  PHE111     -0.0003
    109  CZ        10.8270  -12.6500   15.6780 C.ar  111  PHE111     -0.0000
    110  N          3.7370   -9.2580   16.6300 N.3   113  ILE113     -0.1245
    111  CA         2.9910   -8.0430   16.9210 C.3   113  ILE113      0.1561
    112  C          1.5540   -8.1510   16.4270 C.2   113  ILE113      0.2260
    113  O          1.3050   -8.5200   15.2760 O.2   113  ILE113     -0.2867
    114  CB         3.6760   -6.8120   16.3020 C.3   113  ILE113      0.0252
    115  CG1        5.0860   -6.6610   16.8800 C.3   113  ILE113      0.0019
    116  CG2        2.8400   -5.5550   16.5370 C.3   113  ILE113      0.0019
    117  CD1        5.9470   -5.6370   16.1640 C.3   113  ILE113      0.0001
    118  N          2.7790   -9.4520    9.5370 N.3   118  TRP118     -0.1241
    119  CA         3.9280  -10.2840    9.1760 C.3   118  TRP118      0.1605
    120  C          4.0210  -11.5060   10.0810 C.2   118  TRP118      0.2264
    121  O          3.5840  -11.4680   11.2320 O.2   118  TRP118     -0.2867
    122  CB         5.2510   -9.5000    9.1330 C.3   118  TRP118      0.0550
    123  CG         5.5940   -8.7180   10.3730 C.ar  118  TRP118      0.0003
    124  CD1        5.3870   -7.3880   10.5790 C.ar  118  TRP118      0.0946
    125  CD2        6.2280   -9.2130   11.5610 C.ar  118  TRP118      0.0152
    126  NE1        5.8410   -7.0240   11.8220 N.ar  118  TRP118     -0.2442
    127  CE2        6.3610   -8.1270   12.4460 C.ar  118  TRP118      0.0810
    128  CE3        6.6910  -10.4690   11.9640 C.ar  118  TRP118      0.0012
    129  CZ2        6.9390   -8.2570   13.7070 C.ar  118  TRP118      0.0191
    130  CZ3        7.2680  -10.5970   13.2200 C.ar  118  TRP118      0.0001
    131  CH2        7.3870   -9.4980   14.0740 C.ar  118  TRP118      0.0015
    132  N         10.6340  -13.0140   10.4480 N.3   121  ILE121     -0.1245
    133  CA        11.6080  -11.9550   10.1960 C.3   121  ILE121      0.1561
    134  C         12.7870  -12.4370    9.3640 C.2   121  ILE121      0.2260
    135  O         13.1700  -13.6100    9.4110 O.2   121  ILE121     -0.2867
    136  CB        12.1390  -11.3080   11.4940 C.3   121  ILE121      0.0252
    137  CG1       13.1400  -12.2280   12.1860 C.3   121  ILE121      0.0019
    138  CG2       10.9910  -10.9340   12.4280 C.3   121  ILE121      0.0019
    139  CD1       13.9580  -11.5250   13.2430 C.3   121  ILE121      0.0001
    140  N         19.4330    0.0090   11.3610 N.3   225  ASP225     -0.1239
    141  CA        18.5400   -1.0930   11.6970 C.3   225  ASP225      0.1674
    142  C         17.1060   -0.8330   11.2580 C.2   225  ASP225      0.2266
    143  O         16.3800   -0.0750   11.8980 O.2   225  ASP225     -0.2867
    144  CB        18.5890   -1.3630   13.2020 C.3   225  ASP225      0.1410
    145  CG        17.7580   -2.5580   13.6090 C.2   225  ASP225      0.3668
    146  OD1       17.2590   -3.2770   12.7160 O.co2 225  ASP225     -0.2456
    147  OD2       17.6060   -2.7780   14.8260 O.co2 225  ASP225     -0.2456
    148  N         14.7700   -2.7940   11.4910 N.3   227  GLY227     -0.1210
    149  CA        13.8840   -3.4440   12.4420 C.3   227  GLY227      0.1956
    150  C         13.5990   -2.5910   13.6660 C.2   227  GLY227      0.2612
    151  O         12.8660   -3.0010   14.5670 O.2   227  GLY227     -0.2717
    152  N         14.1920   -1.4020   13.7010 N.am  228  THR228     -0.1952
    153  CA        13.9240   -0.4340   14.7570 C.3   228  THR228      0.1897
    154  C         13.1810    0.7550   14.1620 C.2   228  THR228      0.2313
    155  O         13.5760    1.2840   13.1300 O.2   228  THR228     -0.2863
    156  CB        15.2290    0.0530   15.4290 C.3   228  THR228      0.1794
    157  OG1       15.8150   -1.0220   16.1730 O.3   228  THR228     -0.2208
    158  CG2       14.9540    1.2220   16.3700 C.3   228  THR228      0.0378
    159  N         17.4380    5.9670   17.7990 N.3   232  ARG232     -0.1245
    160  CA        17.8140    5.7400   19.1900 C.3   232  ARG232      0.1563
    161  C         19.2280    6.2500   19.4620 C.2   232  ARG232      0.2260
    162  O         20.1550    5.9660   18.7100 O.2   232  ARG232     -0.2867
    163  CB        17.6750    4.2580   19.5440 C.3   232  ARG232      0.0307
    164  CG        16.3160    3.6830   19.1730 C.3   232  ARG232      0.0489
    165  CD        16.0800    2.2910   19.7550 C.3   232  ARG232      0.2205
    166  NE        16.0560    2.3050   21.2140 N.pl3 232  ARG232     -0.0865
    167  CZ        16.8000    1.5150   21.9820 C.cat 232  ARG232      0.5346
    168  NH1       17.6150    0.6250   21.4310 N.pl3 232  ARG232      0.1354
    169  NH2       16.7170    1.6040   23.3020 N.pl3 232  ARG232      0.1354
    170  N         21.0250    3.8120   17.3210 N.3   319  VAL319     -0.1245
    171  CA        20.2860    3.0130   16.3530 C.3   319  VAL319      0.1561
    172  C         19.5970    3.9240   15.3470 C.2   319  VAL319      0.2260
    173  O         18.6570    4.6500   15.6860 O.2   319  VAL319     -0.2867
    174  CB        19.2260    2.1120   17.0150 C.3   319  VAL319      0.0252
    175  CG1       18.4960    1.3060   15.9540 C.3   319  VAL319      0.0019
    176  CG2       19.8680    1.1880   18.0430 C.3   319  VAL319      0.0019
@<TRIPOS>BOND
     1    16    17    2
     2    16    15    1
     3    14    15    1
     4    15    18    1
     5    22    23    1
     6    13    12    2
     7   122   119    1
     8   122   123    1
     9   119   118    1
    10   119   120    1
    11    12    11    1
    12   134   135    2
    13   134   133    1
    14    24    25    2
    15    24    23    1
    16    23    26    1
    17    18    19    1
    18   120   121    2
    19   133   132    1
    20   133   136    1
    21    20    19    1
    22    19    21    1
    23   123   124   ar
    24   123   125   ar
    25   124   126   ar
    26    42    43    2
    27    42    41    1
    28    11    10    1
    29    26    27    1
    30    37    36    2
    31   142   141    1
    32   142   143    2
    33   140   141    1
    34    41    40    1
    35    41    44    1
    36   148   149    1
    37   136   137    1
    38   136   138    1
    39    30    31    1
    40    10     3   am
    41   125   128   ar
    42   125   127   ar
    43   141   144    1
    44   126   127   ar
    45    36    35    1
    46   128   130   ar
    47     4     3    2
    48    27    28   ar
    49    27    29   ar
    50   137   139    1
    51     3     2    1
    52   149   150    1
    53   127   129   ar
    54    34    35    1
    55    34    32   am
    56   146   145   ar
    57    39    38    1
    58    44    45    1
    59    31    32    1
    60     8     7    2
    61     5     2    1
    62     5     6    1
    63     1     2    1
    64   155   154    2
    65    35    38    1
    66   144   145    1
    67   130   131   ar
    68    47    45   am
    69    32    33    2
    70    45    46    2
    71   145   147   ar
    72   150   152   am
    73   150   151    2
    74   152   153    1
    75   129   131   ar
    76     7     6    1
    77     7     9   am
    78   154   153    1
    79   153   156    1
    80   113   112    2
    81   172   173    2
    82   172   171    1
    83   156   157    1
    84   156   158    1
    85   109   108   ar
    86   109   107   ar
    87   108   106   ar
    88   175   174    1
    89    89    87   ar
    90    89    88   ar
    91   117   115    1
    92    87    85   ar
    93   114   116    1
    94   114   115    1
    95   114   111    1
    96   171   174    1
    97   171   170    1
    98   112   111    1
    99    88    86   ar
   100   110   111    1
   101   107   105   ar
   102   106   104   ar
   103   174   176    1
   104    85    84   ar
   105    85    83   ar
   106    86    83   ar
   107    84    82   ar
   108    83    81   ar
   109   159   160    1
   110   102   101    2
   111   105   104   ar
   112   104   103    1
   113    82    81   ar
   114    81    80    1
   115   101   100    1
   116   162   161    2
   117    54    52    1
   118   164   163    1
   119   164   165    1
   120   160   161    1
   121   160   163    1
   122    80    77    1
   123   103   100    1
   124    53    52    1
   125   100    99    1
   126   165   166    1
   127    52    49    1
   128    78    77    1
   129    78    79    2
   130    77    76    1
   131    99    92   am
   132    66    65    1
   133   166   167    2
   134    49    48    1
   135    49    50    1
   136    64    65   ar
   137    64    62   ar
   138    65    63   ar
   139   168   167    1
   140    93    92    2
   141    74    73    2
   142    62    60   ar
   143    92    91    1
   144    63    61   ar
   145    51    50    2
   146   167   169    1
   147    60    61   ar
   148    60    59    1
   149    59    56    1
   150    73    75   am
   151    73    72    1
   152    91    90    1
   153    91    94    1
   154    72    71    1
   155    71    68    1
   156    56    55    1
   157    56    57    1
   158    94    95    1
   159    57    58    2
   160    67    68    1
   161    95    96    1
   162    68    69    1
   163    69    70    2
   164    96    97    1
   165    97    98    1
