@<TRIPOS>MOLECULE
tmp/3ineA00.pdb
 186 175 0 0 0
SMALL
GASTEIGER

@<TRIPOS>ATOM
      1  N          5.3160   -0.6600   13.1020 N.3    15  GLN15      -0.1245
      2  CA         5.3470   -2.1120   13.2370 C.3    15  GLN15       0.1566
      3  C          6.2410   -2.8050   12.2020 C.2    15  GLN15       0.2260
      4  O          6.1880   -4.0230   12.0450 O.2    15  GLN15      -0.2867
      5  CB         3.9240   -2.6800   13.2060 C.3    15  GLN15       0.0367
      6  CG         3.0300   -2.1510   14.3310 C.3    15  GLN15       0.0905
      7  CD         1.5960   -2.6410   14.2210 C.2    15  GLN15       0.2608
      8  OE1        1.0850   -2.8580   13.1220 O.2    15  GLN15      -0.2717
      9  NE2        0.9410   -2.8150   15.3630 N.am   15  GLN15      -0.0878
     10  N          9.2180   -9.5150    8.0600 N.3    33  LEU33      -0.1245
     11  CA         9.8490   -8.2450    8.3970 C.3    33  LEU33       0.1561
     12  C         11.2680   -8.1670    7.8450 C.2    33  LEU33       0.2260
     13  O         12.0610   -9.1050    7.9990 O.2    33  LEU33      -0.2867
     14  CB         9.8760   -8.0670    9.9120 C.3    33  LEU33       0.0270
     15  CG        10.4440   -6.7470   10.4280 C.3    33  LEU33       0.0019
     16  CD1        9.4220   -5.6510   10.2600 C.3    33  LEU33       0.0001
     17  CD2       10.8460   -6.8880   11.8850 C.3    33  LEU33       0.0001
     18  N         14.7180   -6.9340    8.3610 N.3    35  ASP35      -0.1239
     19  CA        15.4290   -6.5560    9.5810 C.3    35  ASP35       0.1674
     20  C         16.9420   -6.5670    9.4080 C.2    35  ASP35       0.2266
     21  O         17.5830   -7.6140    9.5230 O.2    35  ASP35      -0.2867
     22  CB        15.0250   -7.4910   10.7270 C.3    35  ASP35       0.1410
     23  CG        15.5260   -7.0120   12.0810 C.2    35  ASP35       0.3668
     24  OD1       16.0130   -5.8600   12.1740 O.co2  35  ASP35      -0.2456
     25  OD2       15.4210   -7.7900   13.0530 O.co2  35  ASP35      -0.2456
     26  N         18.8070   -5.4090   11.4650 N.3    37  GLY37      -0.1210
     27  CA        19.3210   -5.3890   12.8240 C.3    37  GLY37       0.1956
     28  C         19.5400   -6.7520   13.4580 C.2    37  GLY37       0.2613
     29  O         19.8830   -6.8510   14.6410 O.2    37  GLY37      -0.2717
     30  N         19.3290   -7.8090   12.6800 N.am   38  SER38      -0.1938
     31  CA        19.5010   -9.1710   13.1760 C.3    38  SER38       0.2055
     32  C         19.8960  -10.0600   12.0160 C.2    38  SER38       0.2644
     33  O         19.9520   -9.6070   10.8710 O.2    38  SER38      -0.2714
     34  CB        18.2140   -9.6910   13.8150 C.3    38  SER38       0.2130
     35  OG        17.1910   -9.8520   12.8400 O.3    38  SER38      -0.2179
     36  N         20.1750  -11.3260   12.3060 N.am   39  SER39      -0.1935
     37  CA        20.8050  -12.1780   11.3090 C.3    39  SER39       0.2055
     38  C         20.1480  -13.5480   11.1290 C.2    39  SER39       0.2643
     39  O         20.6720  -14.3940   10.4030 O.2    39  SER39      -0.2714
     40  CB        22.3010  -12.3050   11.6130 C.3    39  SER39       0.2130
     41  OG        22.8940  -11.0130   11.6370 O.3    39  SER39      -0.2179
     42  N         18.9880  -13.7440   11.7590 N.am   40  ASN40      -0.1971
     43  CA        18.2330  -14.9940   11.6280 C.3    40  ASN40       0.1688
     44  C         16.9940  -14.8960   10.7340 C.2    40  ASN40       0.2292
     45  O         16.2010  -13.9660   10.8630 O.2    40  ASN40      -0.2864
     46  CB        17.7740  -15.4860   13.0020 C.3    40  ASN40       0.1181
     47  CG        18.8890  -16.1280   13.7990 C.2    40  ASN40       0.2629
     48  OD1       19.6930  -15.4390   14.4210 O.2    40  ASN40      -0.2716
     49  ND2       18.9290  -17.4580   13.7980 N.am   40  ASN40      -0.0877
     50  N         13.7800  -16.2240   10.8070 N.3    42  ALA42      -0.1245
     51  CA        13.0130  -16.8230   11.8830 C.3    42  ALA42       0.1562
     52  C         11.5450  -16.5790   11.6140 C.2    42  ALA42       0.2260
     53  O         11.1150  -15.4370   11.4610 O.2    42  ALA42      -0.2867
     54  CB        13.4130  -16.2240   13.2180 C.3    42  ALA42       0.0290
     55  N         16.2460  -18.0090   22.3350 N.3    72  VAL72      -0.1245
     56  CA        16.6950  -16.6250   22.2960 C.3    72  VAL72       0.1561
     57  C         15.9060  -15.7080   23.2230 C.2    72  VAL72       0.2260
     58  O         14.9390  -15.0710   22.7980 O.2    72  VAL72      -0.2867
     59  CB        16.6490  -16.0620   20.8640 C.3    72  VAL72       0.0252
     60  CG1       17.3150  -14.6910   20.8210 C.3    72  VAL72       0.0019
     61  CG2       17.3320  -17.0240   19.9020 C.3    72  VAL72       0.0019
     62  N         15.5280  -12.3090   25.6990 N.3    74  TYR74      -0.1241
     63  CA        15.9510  -10.9130   25.6440 C.3    74  TYR74       0.1605
     64  C         14.9960  -10.0670   26.4860 C.2    74  TYR74       0.2264
     65  O         14.2030  -10.6120   27.2510 O.2    74  TYR74      -0.2867
     66  CB        15.9860  -10.4130   24.1980 C.3    74  TYR74       0.0534
     67  CG        14.6430  -10.4360   23.5030 C.ar   74  TYR74      -0.0201
     68  CD1       13.7980   -9.3350   23.5510 C.ar   74  TYR74      -0.0009
     69  CD2       14.2190  -11.5580   22.8000 C.ar   74  TYR74      -0.0009
     70  CE1       12.5730   -9.3480   22.9210 C.ar   74  TYR74       0.0417
     71  CE2       12.9880  -11.5790   22.1630 C.ar   74  TYR74       0.0417
     72  CZ        12.1730  -10.4710   22.2280 C.ar   74  TYR74       0.1957
     73  OH        10.9470  -10.4800   21.6010 O.3    74  TYR74      -0.2866
     74  N         12.0460  -15.7700   22.1290 N.3    77  TRP77      -0.1241
     75  CA        11.5720  -16.7620   21.1760 C.3    77  TRP77       0.1605
     76  C         12.4930  -17.9690   21.1370 C.2    77  TRP77       0.2264
     77  O         13.7090  -17.8360   21.2300 O.2    77  TRP77      -0.2867
     78  CB        11.4100  -16.1610   19.7730 C.3    77  TRP77       0.0550
     79  CG        12.7010  -15.8530   19.0560 C.ar   77  TRP77       0.0003
     80  CD1       13.3900  -14.6720   19.0750 C.ar   77  TRP77       0.0946
     81  CD2       13.4400  -16.7300   18.1960 C.ar   77  TRP77       0.0152
     82  NE1       14.5150  -14.7650   18.2900 N.ar   77  TRP77      -0.2442
     83  CE2       14.5680  -16.0170   17.7390 C.ar   77  TRP77       0.0810
     84  CE3       13.2630  -18.0520   17.7750 C.ar   77  TRP77       0.0012
     85  CZ2       15.5120  -16.5820   16.8820 C.ar   77  TRP77       0.0191
     86  CZ3       14.1980  -18.6070   16.9250 C.ar   77  TRP77       0.0001
     87  CH2       15.3060  -17.8740   16.4870 C.ar   77  TRP77       0.0015
     88  N          6.0490  -11.9780   23.7330 N.3   108  LYS108     -0.1231
     89  CA         6.2040  -10.5820   23.3250 C.3   108  LYS108      0.1693
     90  C          7.1610  -10.4130   22.1440 C.2   108  LYS108      0.2592
     91  O          7.9230   -9.4480   22.0870 O.2   108  LYS108     -0.2718
     92  CB         6.6670   -9.7180   24.5050 C.3   108  LYS108      0.0285
     93  CG         5.5400   -9.2710   25.4230 C.3   108  LYS108      0.0035
     94  CD         6.0690   -8.5430   26.6500 C.3   108  LYS108      0.0206
     95  CE         6.7490   -9.5040   27.6140 C.3   108  LYS108      0.1093
     96  NZ         7.2940   -8.8050   28.8150 N.3   108  LYS108     -0.1314
     97  N          7.1170  -11.3490   21.2010 N.am  109  PHE109     -0.1976
     98  CA         7.9660  -11.2700   20.0170 C.3   109  PHE109      0.1639
     99  C          7.1550  -10.7850   18.8200 C.2   109  PHE109      0.2290
    100  O          7.4870   -9.7750   18.1890 O.2   109  PHE109     -0.2864
    101  CB         8.6100  -12.6310   19.7280 C.3   109  PHE109      0.0560
    102  CG         9.5190  -12.6330   18.5300 C.ar  109  PHE109     -0.0200
    103  CD1       10.8020  -12.1090   18.6110 C.ar  109  PHE109     -0.0042
    104  CD2        9.0930  -13.1660   17.3230 C.ar  109  PHE109     -0.0042
    105  CE1       11.6360  -12.1120   17.5080 C.ar  109  PHE109     -0.0003
    106  CE2        9.9240  -13.1740   16.2190 C.ar  109  PHE109     -0.0003
    107  CZ        11.1960  -12.6450   16.3100 C.ar  109  PHE109     -0.0000
    108  N          3.9440   -9.1030   16.9030 N.3   111  ILE111     -0.1245
    109  CA         3.1920   -7.8860   17.1670 C.3   111  ILE111      0.1561
    110  C          1.7570   -8.0280   16.6810 C.2   111  ILE111      0.2260
    111  O          1.5100   -8.4120   15.5330 O.2   111  ILE111     -0.2867
    112  CB         3.8430   -6.6740   16.4820 C.3   111  ILE111      0.0252
    113  CG1        5.2900   -6.5190   16.9530 C.3   111  ILE111      0.0019
    114  CG2        3.0450   -5.4070   16.7590 C.3   111  ILE111      0.0019
    115  CD1        6.0560   -5.4420   16.2180 C.3   111  ILE111      0.0001
    116  N          2.7400   -9.4040    9.7210 N.3   116  TRP116     -0.1241
    117  CA         3.8620  -10.2690    9.3490 C.3   116  TRP116      0.1605
    118  C          3.9890  -11.4620   10.2740 C.2   116  TRP116      0.2264
    119  O          3.5370  -11.4150   11.4170 O.2   116  TRP116     -0.2867
    120  CB         5.1900   -9.5030    9.2130 C.3   116  TRP116      0.0550
    121  CG         5.6060   -8.6910   10.3970 C.ar  116  TRP116      0.0003
    122  CD1        5.4710   -7.3420   10.5490 C.ar  116  TRP116      0.0946
    123  CD2        6.2680   -9.1620   11.5790 C.ar  116  TRP116      0.0152
    124  NE1        5.9890   -6.9450   11.7600 N.ar  116  TRP116     -0.2442
    125  CE2        6.4830   -8.0440   12.4120 C.ar  116  TRP116      0.0810
    126  CE3        6.6920  -10.4190   12.0180 C.ar  116  TRP116      0.0012
    127  CZ2        7.1020   -8.1470   13.6580 C.ar  116  TRP116      0.0191
    128  CZ3        7.3060  -10.5200   13.2580 C.ar  116  TRP116      0.0001
    129  CH2        7.5070   -9.3910   14.0610 C.ar  116  TRP116      0.0015
    130  N         10.7140  -13.0410   10.4380 N.3   119  ILE119     -0.1245
    131  CA        11.7630  -12.0250   10.4010 C.3   119  ILE119      0.1561
    132  C         12.8630  -12.4380    9.4390 C.2   119  ILE119      0.2260
    133  O         13.3310  -13.5770    9.4720 O.2   119  ILE119     -0.2867
    134  CB        12.4390  -11.8990   11.7780 C.3   119  ILE119      0.0252
    135  CG1       11.4150  -11.5410   12.8520 C.3   119  ILE119      0.0019
    136  CG2       13.5770  -10.8830   11.7270 C.3   119  ILE119      0.0019
    137  CD1       10.6370  -10.3030   12.5400 C.3   119  ILE119      0.0001
    138  N         26.3150  -12.2870   14.5900 N.3   127  ILE127     -0.1245
    139  CA        25.2670  -12.0840   15.5800 C.3   127  ILE127      0.1561
    140  C         24.0830  -13.0430   15.4030 C.2   127  ILE127      0.2260
    141  O         23.0290  -12.8680   16.0220 O.2   127  ILE127     -0.2867
    142  CB        24.8030  -10.6170   15.6190 C.3   127  ILE127      0.0252
    143  CG1       24.3120  -10.1640   14.2490 C.3   127  ILE127      0.0019
    144  CG2       25.9530   -9.7130   16.0850 C.3   127  ILE127      0.0019
    145  CD1       23.7070   -8.7720   14.2540 C.3   127  ILE127      0.0001
    146  N         21.8970  -16.5070   15.8130 N.3   129  ARG129     -0.1245
    147  CA        21.6630  -17.4770   16.8770 C.3   129  ARG129      0.1563
    148  C         21.4600  -18.8530   16.2590 C.2   129  ARG129      0.2260
    149  O         20.8600  -18.9670   15.1930 O.2   129  ARG129     -0.2867
    150  CB        20.4300  -17.0930   17.6950 C.3   129  ARG129      0.0307
    151  CG        20.4550  -15.6780   18.2250 C.3   129  ARG129      0.0489
    152  CD        21.6410  -15.4450   19.1430 C.3   129  ARG129      0.2205
    153  NE        21.3860  -14.3410   20.0610 N.pl3 129  ARG129     -0.0865
    154  CZ        21.3970  -13.0590   19.7040 C.cat 129  ARG129      0.5346
    155  NH1       21.6640  -12.7160   18.4470 N.pl3 129  ARG129      0.1354
    156  NH2       21.1420  -12.1180   20.6030 N.pl3 129  ARG129      0.1354
    157  N         19.4220    0.0200   11.4300 N.3   222  ASP222     -0.1239
    158  CA        18.5120   -1.0720   11.7900 C.3   222  ASP222      0.1674
    159  C         17.0710   -0.8110   11.3420 C.2   222  ASP222      0.2266
    160  O         16.3120   -0.1040   12.0120 O.2   222  ASP222     -0.2867
    161  CB        18.5590   -1.3110   13.3040 C.3   222  ASP222      0.1410
    162  CG        17.7230   -2.5060   13.7350 C.2   222  ASP222      0.3668
    163  OD1       17.1540   -3.1770   12.8540 O.co2 222  ASP222     -0.2456
    164  OD2       17.6350   -2.7750   14.9520 O.co2 222  ASP222     -0.2456
    165  N         14.7440   -2.8000   11.5100 N.3   224  GLY224     -0.1210
    166  CA        13.8650   -3.4570   12.4670 C.3   224  GLY224      0.1956
    167  C         13.6530   -2.6680   13.7510 C.2   224  GLY224      0.2612
    168  O         13.0340   -3.1500   14.7050 O.2   224  GLY224     -0.2717
    169  N         14.1860   -1.4510   13.7760 N.am  225  THR225     -0.1952
    170  CA        13.9240   -0.5050   14.8520 C.3   225  THR225      0.1897
    171  C         13.1910    0.6830   14.2450 C.2   225  THR225      0.2313
    172  O         13.5910    1.1890   13.2000 O.2   225  THR225     -0.2863
    173  CB        15.2400   -0.0200   15.5210 C.3   225  THR225      0.1794
    174  OG1       15.8320   -1.0980   16.2600 O.3   225  THR225     -0.2208
    175  CG2       14.9730    1.1490   16.4680 C.3   225  THR225      0.0378
    176  N         17.3740    6.0310   17.9120 N.3   229  ARG229     -0.1245
    177  CA        17.7340    5.7880   19.3090 C.3   229  ARG229      0.1563
    178  C         19.1450    6.3050   19.5840 C.2   229  ARG229      0.2260
    179  O         20.0700    6.0560   18.8110 O.2   229  ARG229     -0.2867
    180  CB        17.6010    4.3020   19.6590 C.3   229  ARG229      0.0307
    181  CG        16.1990    3.7470   19.3740 C.3   229  ARG229      0.0489
    182  CD        15.9990    2.3070   19.8830 C.3   229  ARG229      0.2205
    183  NE        16.0720    2.2220   21.3410 N.pl3 229  ARG229     -0.0865
    184  CZ        16.9280    1.4420   21.9980 C.cat 229  ARG229      0.5346
    185  NH1       17.7710    0.6640   21.3250 N.pl3 229  ARG229      0.1354
    186  NH2       16.9400    1.4270   23.3270 N.pl3 229  ARG229      0.1354
@<TRIPOS>BOND
     1    12    13    2
     2    12    11    1
     3    10    11    1
     4    18    19    1
     5    11    14    1
     6   120   117    1
     7   120   121    1
     8   117   116    1
     9   117   118    1
    10    20    21    2
    11    20    19    1
    12   132   133    2
    13   132   131    1
    14    19    22    1
    15    14    15    1
    16    16    15    1
    17   118   119    2
    18   121   122   ar
    19   121   123   ar
    20   131   130    1
    21   131   134    1
    22    39    38    2
    23    15    17    1
    24   122   124   ar
    25    22    23    1
    26    44    45    2
    27    44    43    1
    28    50    51    1
    29    33    32    2
    30    38    37    1
    31    38    42   am
    32    37    40    1
    33    37    36    1
    34   159   158    1
    35   159   160    2
    36   157   158    1
    37    53    52    2
    38    26    27    1
    39   165   166    1
    40   123   126   ar
    41   123   125   ar
    42    40    41    1
    43    52    51    1
    44    43    42    1
    45    43    46    1
    46   136   134    1
    47   124   125   ar
    48   134   135    1
    49   158   161    1
    50    51    54    1
    51    32    36   am
    52    32    31    1
    53   126   128   ar
    54     4     3    2
    55    23    24   ar
    56    23    25   ar
    57     3     2    1
    58   125   127   ar
    59   166   167    1
    60   137   135    1
    61    30    31    1
    62    30    28   am
    63    27    28    1
    64    35    34    1
    65   163   162   ar
    66    46    47    1
    67     1     2    1
    68     8     7    2
    69    31    34    1
    70   172   171    2
    71     5     2    1
    72     5     6    1
    73   128   129   ar
    74   161   162    1
    75    28    29    2
    76   127   129   ar
    77   162   164   ar
    78   167   169   am
    79   167   168    2
    80   169   170    1
    81    49    47   am
    82    47    48    2
    83     7     6    1
    84     7     9   am
    85   171   170    1
    86   143   145    1
    87   143   142    1
    88   138   139    1
    89   170   173    1
    90   149   148    2
    91   140   139    1
    92   140   141    2
    93   173   174    1
    94   173   175    1
    95   111   110    2
    96   139   142    1
    97   142   144    1
    98   146   147    1
    99   115   113    1
   100   106   107   ar
   101   106   104   ar
   102   148   147    1
   103   107   105   ar
   104   112   114    1
   105   112   113    1
   106   112   109    1
   107    87    85   ar
   108    87    86   ar
   109   110   109    1
   110   147   150    1
   111    85    83   ar
   112   108   109    1
   113    86    84   ar
   114   104   102   ar
   115   105   103   ar
   116   150   151    1
   117    83    81   ar
   118    83    82   ar
   119    84    81   ar
   120   176   177    1
   121   100    99    2
   122    81    79   ar
   123   151   152    1
   124    82    80   ar
   125   155   154    1
   126   102   103   ar
   127   102   101    1
   128   179   178    2
   129    99    98    1
   130    79    80   ar
   131    79    78    1
   132   152   153    1
   133   177   178    1
   134   177   180    1
   135   181   180    1
   136   181   182    1
   137   154   153    2
   138   154   156    1
   139   101    98    1
   140    78    75    1
   141   182   183    1
   142    61    59    1
   143    98    97    1
   144    60    59    1
   145    59    56    1
   146    76    75    1
   147    76    77    2
   148    75    74    1
   149    97    90   am
   150   185   184    1
   151   183   184    2
   152    73    72    1
   153   184   186    1
   154    91    90    2
   155    90    89    1
   156    71    72   ar
   157    71    69   ar
   158    72    70   ar
   159    56    55    1
   160    56    57    1
   161    58    57    2
   162    69    67   ar
   163    70    68   ar
   164    89    88    1
   165    89    92    1
   166    67    68   ar
   167    67    66    1
   168    66    63    1
   169    92    93    1
   170    93    94    1
   171    63    62    1
   172    63    64    1
   173    64    65    2
   174    94    95    1
   175    95    96    1
