@<TRIPOS>MOLECULE
tmp/3infA00.pdb
 198 188 0 0 0
SMALL
GASTEIGER

@<TRIPOS>ATOM
      1  N          5.1840    1.9510   12.5010 N.3    14  GLY14      -0.1210
      2  CA         5.6740    1.4900   13.7840 C.3    14  GLY14       0.1956
      3  C          5.7800   -0.0220   13.9230 C.2    14  GLY14       0.2612
      4  O          6.2930   -0.5160   14.9250 O.2    14  GLY14      -0.2717
      5  N          5.3110   -0.7660   12.9260 N.am   15  GLN15      -0.1965
      6  CA         5.2890   -2.2250   13.0390 C.3    15  GLN15       0.1733
      7  C          6.1960   -2.9190   12.0360 C.2    15  GLN15       0.2616
      8  O          6.1470   -4.1370   11.8790 O.2    15  GLN15      -0.2715
      9  CB         3.8550   -2.7540   12.9600 C.3    15  GLN15       0.0408
     10  CG         3.0260   -2.3250   14.1560 C.3    15  GLN15       0.0908
     11  CD         1.6110   -2.8690   14.1220 C.2    15  GLN15       0.2608
     12  OE1        1.0880   -3.2100   13.0620 O.2    15  GLN15      -0.2717
     13  NE2        0.9890   -2.9610   15.2910 N.am   15  GLN15      -0.0878
     14  N          7.0400   -2.1340   11.3800 N.am   16  GLY16      -0.1955
     15  CA         8.0840   -2.6830   10.5440 C.3    16  GLY16       0.1869
     16  C          7.6280   -2.8230    9.1090 C.2    16  GLY16       0.2309
     17  O          6.4350   -2.7890    8.8080 O.2    16  GLY16      -0.2863
     18  N          9.3690   -9.6680    7.9920 N.3    33  LEU33      -0.1245
     19  CA         9.9710   -8.3890    8.3260 C.3    33  LEU33       0.1561
     20  C         11.3800   -8.2450    7.7550 C.2    33  LEU33       0.2260
     21  O         12.2340   -9.1180    7.9290 O.2    33  LEU33      -0.2867
     22  CB        10.0210   -8.2270    9.8340 C.3    33  LEU33       0.0270
     23  CG        10.7360   -6.9730   10.3090 C.3    33  LEU33       0.0019
     24  CD1        9.7630   -5.8080   10.2750 C.3    33  LEU33       0.0001
     25  CD2       11.2420   -7.2220   11.7050 C.3    33  LEU33       0.0001
     26  N         14.7850   -6.8970    8.1040 N.3    35  ASP35      -0.1239
     27  CA        15.4760   -6.5020    9.3250 C.3    35  ASP35       0.1674
     28  C         16.9940   -6.4770    9.1820 C.2    35  ASP35       0.2266
     29  O         17.6400   -7.5260    9.2250 O.2    35  ASP35      -0.2867
     30  CB        15.0970   -7.4770   10.4380 C.3    35  ASP35       0.1410
     31  CG        15.6330   -7.0640   11.7840 C.2    35  ASP35       0.3668
     32  OD1       16.1930   -5.9480   11.9030 O.co2  35  ASP35      -0.2456
     33  OD2       15.4910   -7.8610   12.7360 O.co2  35  ASP35      -0.2456
     34  N         18.9490   -5.4330   11.3350 N.3    37  GLY37      -0.1210
     35  CA        19.4890   -5.4340   12.6850 C.3    37  GLY37       0.1956
     36  C         19.5950   -6.8180   13.3050 C.2    37  GLY37       0.2613
     37  O         19.8050   -6.9640   14.5140 O.2    37  GLY37      -0.2717
     38  N         19.4600   -7.8420   12.4760 N.am   38  SER38      -0.1938
     39  CA        19.6170   -9.2150   12.9480 C.3    38  SER38       0.2055
     40  C         19.9980  -10.0990   11.7820 C.2    38  SER38       0.2644
     41  O         20.0250   -9.6450   10.6410 O.2    38  SER38      -0.2714
     42  CB        18.3380   -9.7300   13.6000 C.3    38  SER38       0.2130
     43  OG        17.3240   -9.9190   12.6300 O.3    38  SER38      -0.2179
     44  N         20.2890  -11.3680   12.0630 N.am   39  SER39      -0.1935
     45  CA        20.9070  -12.2100   11.0530 C.3    39  SER39       0.2055
     46  C         20.3020  -13.6030   10.9110 C.2    39  SER39       0.2643
     47  O         20.8950  -14.4630   10.2710 O.2    39  SER39      -0.2714
     48  CB        22.4160  -12.2970   11.3100 C.3    39  SER39       0.2130
     49  OG        22.9420  -10.9900   11.4250 O.3    39  SER39      -0.2179
     50  N         19.1230  -13.8190   11.4910 N.am   40  ASN40      -0.1971
     51  CA        18.4050  -15.0790   11.3100 C.3    40  ASN40       0.1688
     52  C         17.1890  -14.9480   10.4000 C.2    40  ASN40       0.2292
     53  O         16.4590  -13.9610   10.4720 O.2    40  ASN40      -0.2864
     54  CB        17.9160  -15.6170   12.6540 C.3    40  ASN40       0.1181
     55  CG        19.0200  -16.2260   13.4760 C.2    40  ASN40       0.2629
     56  OD1       19.7870  -15.5130   14.1150 O.2    40  ASN40      -0.2716
     57  ND2       19.0920  -17.5540   13.4870 N.am   40  ASN40      -0.0877
     58  N         13.9720  -16.2130   10.6290 N.3    42  ALA42      -0.1245
     59  CA        13.1880  -16.8220   11.6900 C.3    42  ALA42       0.1562
     60  C         11.7120  -16.6310   11.3950 C.2    42  ALA42       0.2260
     61  O         11.2320  -15.5070   11.2620 O.2    42  ALA42      -0.2867
     62  CB        13.5460  -16.2080   13.0230 C.3    42  ALA42       0.0290
     63  N         16.4540  -18.0430   21.7550 N.3    72  VAL72      -0.1245
     64  CA        16.8480  -16.6430   21.7450 C.3    72  VAL72       0.1561
     65  C         16.0610  -15.8040   22.7380 C.2    72  VAL72       0.2260
     66  O         15.0320  -15.2280   22.3970 O.2    72  VAL72      -0.2867
     67  CB        16.7230  -16.0270   20.3370 C.3    72  VAL72       0.0252
     68  CG1       17.2090  -14.5870   20.3500 C.3    72  VAL72       0.0019
     69  CG2       17.5230  -16.8430   19.3390 C.3    72  VAL72       0.0019
     70  N         15.8270  -12.4250   25.2500 N.3    74  TYR74      -0.1241
     71  CA        16.2860  -11.0470   25.1120 C.3    74  TYR74       0.1605
     72  C         15.4770  -10.0980   25.9900 C.2    74  TYR74       0.2264
     73  O         14.6150  -10.5350   26.7520 O.2    74  TYR74      -0.2867
     74  CB        16.2080  -10.6060   23.6510 C.3    74  TYR74       0.0534
     75  CG        14.8200  -10.6830   23.0620 C.ar   74  TYR74      -0.0201
     76  CD1       13.9220   -9.6330   23.2110 C.ar   74  TYR74      -0.0009
     77  CD2       14.4060  -11.8060   22.3560 C.ar   74  TYR74      -0.0009
     78  CE1       12.6520   -9.6990   22.6700 C.ar   74  TYR74       0.0417
     79  CE2       13.1400  -11.8800   21.8100 C.ar   74  TYR74       0.0417
     80  CZ        12.2670  -10.8240   21.9690 C.ar   74  TYR74       0.1957
     81  OH        11.0010  -10.8890   21.4340 O.3    74  TYR74      -0.2866
     82  N         12.1990  -15.9320   21.7110 N.3    76  TRP76      -0.1241
     83  CA        11.7050  -16.9160   20.7710 C.3    76  TRP76       0.1605
     84  C         12.6130  -18.1340   20.7410 C.2    76  TRP76       0.2264
     85  O         13.7980  -18.0650   21.0720 O.2    76  TRP76      -0.2867
     86  CB        11.5240  -16.3120   19.3790 C.3    76  TRP76       0.0550
     87  CG        12.7960  -15.9540   18.6740 C.ar   76  TRP76       0.0003
     88  CD1       13.4420  -14.7470   18.7000 C.ar   76  TRP76       0.0946
     89  CD2       13.5620  -16.7980   17.8150 C.ar   76  TRP76       0.0152
     90  NE1       14.5680  -14.7960   17.9230 N.ar   76  TRP76      -0.2442
     91  CE2       14.6590  -16.0420   17.3560 C.ar   76  TRP76       0.0810
     92  CE3       13.4270  -18.1220   17.3850 C.ar   76  TRP76       0.0012
     93  CZ2       15.6160  -16.5680   16.4970 C.ar   76  TRP76       0.0191
     94  CZ3       14.3710  -18.6380   16.5240 C.ar   76  TRP76       0.0001
     95  CH2       15.4550  -17.8660   16.0940 C.ar   76  TRP76       0.0015
     96  N          7.2600  -11.4620   20.8200 N.3   108  PHE108     -0.1241
     97  CA         8.1020  -11.3980   19.6380 C.3   108  PHE108      0.1605
     98  C          7.2510  -10.8920   18.4780 C.2   108  PHE108      0.2264
     99  O          7.5280   -9.8380   17.9000 O.2   108  PHE108     -0.2867
    100  CB         8.6930  -12.7810   19.3450 C.3   108  PHE108      0.0534
    101  CG         9.5910  -12.8210   18.1430 C.ar  108  PHE108     -0.0203
    102  CD1       10.8290  -12.1940   18.1560 C.ar  108  PHE108     -0.0042
    103  CD2        9.2030  -13.5010   17.0040 C.ar  108  PHE108     -0.0042
    104  CE1       11.6450  -12.2380   17.0480 C.ar  108  PHE108     -0.0003
    105  CE2       10.0160  -13.5480   15.8970 C.ar  108  PHE108     -0.0003
    106  CZ        11.2400  -12.9220   15.9190 C.ar  108  PHE108     -0.0000
    107  N          4.0060   -9.2250   16.6100 N.3   110  ILE110     -0.1245
    108  CA         3.2610   -8.0030   16.8750 C.3   110  ILE110      0.1561
    109  C          1.8230   -8.1300   16.3910 C.2   110  ILE110      0.2260
    110  O          1.5760   -8.4500   15.2270 O.2   110  ILE110     -0.2867
    111  CB         3.9090   -6.8040   16.1640 C.3   110  ILE110      0.0252
    112  CG1        5.3190   -6.5690   16.7020 C.3   110  ILE110      0.0019
    113  CG2        3.0400   -5.5560   16.3090 C.3   110  ILE110      0.0019
    114  CD1        5.8590   -5.2090   16.3870 C.3   110  ILE110      0.0001
    115  N          2.8520   -9.4530    9.5980 N.3   115  TRP115     -0.1241
    116  CA         3.9860  -10.3120    9.2260 C.3   115  TRP115      0.1605
    117  C          4.1530  -11.5180   10.1390 C.2   115  TRP115      0.2264
    118  O          3.7290  -11.4930   11.2930 O.2   115  TRP115     -0.2867
    119  CB         5.3050   -9.5380    9.0430 C.3   115  TRP115      0.0550
    120  CG         5.7620   -8.6670   10.1820 C.ar  115  TRP115      0.0003
    121  CD1        5.6330   -7.3020   10.2740 C.ar  115  TRP115      0.0946
    122  CD2        6.4750   -9.0800   11.3580 C.ar  115  TRP115      0.0152
    123  NE1        6.2030   -6.8530   11.4410 N.ar  115  TRP115     -0.2442
    124  CE2        6.7210   -7.9230   12.1270 C.ar  115  TRP115      0.0810
    125  CE3        6.9080  -10.3170   11.8480 C.ar  115  TRP115      0.0012
    126  CZ2        7.3910   -7.9650   13.3530 C.ar  115  TRP115      0.0191
    127  CZ3        7.5770  -10.3600   13.0730 C.ar  115  TRP115      0.0001
    128  CH2        7.8100   -9.1900   13.8090 C.ar  115  TRP115      0.0015
    129  N         10.8350  -13.0570   10.3420 N.3   118  ILE118     -0.1245
    130  CA        11.8430  -12.0190   10.1850 C.3   118  ILE118      0.1561
    131  C         12.9600  -12.4690    9.2690 C.2   118  ILE118      0.2260
    132  O         13.4650  -13.5920    9.3620 O.2   118  ILE118     -0.2867
    133  CB        12.4730  -11.6290   11.5250 C.3   118  ILE118      0.0252
    134  CG1       11.4090  -11.0670   12.4660 C.3   118  ILE118      0.0019
    135  CG2       13.5770  -10.6000   11.3100 C.3   118  ILE118      0.0019
    136  CD1       11.9920  -10.5580   13.7770 C.3   118  ILE118      0.0001
    137  N         26.4600  -12.3240   14.3740 N.3   126  ILE126     -0.1245
    138  CA        25.3530  -12.1830   15.3150 C.3   126  ILE126      0.1561
    139  C         24.1810  -13.1380   15.0500 C.2   126  ILE126      0.2260
    140  O         23.1100  -12.9750   15.6230 O.2   126  ILE126     -0.2867
    141  CB        24.8420  -10.7250   15.4130 C.3   126  ILE126      0.0252
    142  CG1       24.2740  -10.2510   14.0750 C.3   126  ILE126      0.0019
    143  CG2       25.9610   -9.7880   15.8880 C.3   126  ILE126      0.0019
    144  CD1       23.5240   -8.9240   14.1570 C.3   126  ILE126      0.0001
    145  N         22.0140  -16.5170   15.4540 N.3   128  ARG128     -0.1245
    146  CA        21.7490  -17.4350   16.5530 C.3   128  ARG128      0.1563
    147  C         21.5470  -18.8280   15.9850 C.2   128  ARG128      0.2260
    148  O         20.9060  -18.9850   14.9510 O.2   128  ARG128     -0.2867
    149  CB        20.4960  -17.0170   17.3120 C.3   128  ARG128      0.0307
    150  CG        20.5510  -15.6100   17.8420 C.3   128  ARG128      0.0489
    151  CD        21.7930  -15.3920   18.6820 C.3   128  ARG128      0.2205
    152  NE        21.6860  -14.1460   19.4320 N.pl3 128  ARG128     -0.0865
    153  CZ        21.1700  -14.0550   20.6540 C.cat 128  ARG128      0.5346
    154  NH1       20.7270  -15.1430   21.2700 N.pl3 128  ARG128      0.1354
    155  NH2       21.1040  -12.8780   21.2630 N.pl3 128  ARG128      0.1354
    156  N         19.4640    0.0590   11.2560 N.3   223  ASP223     -0.1225
    157  CA        18.5730   -1.0420   11.6030 C.3   223  ASP223      0.1805
    158  C         17.1340   -0.7920   11.1560 C.2   223  ASP223      0.2598
    159  O         16.3860   -0.0790   11.8100 O.2   223  ASP223     -0.2718
    160  CB        18.6300   -1.2820   13.1160 C.3   223  ASP223      0.1424
    161  CG        17.8330   -2.4970   13.5530 C.2   223  ASP223      0.3668
    162  OD1       17.3140   -3.2210   12.6790 O.co2 223  ASP223     -0.2456
    163  OD2       17.7290   -2.7180   14.7770 O.co2 223  ASP223     -0.2456
    164  N         16.7490   -1.3990   10.0410 N.am  224  SER224     -0.1938
    165  CA        15.3890   -1.2700    9.5420 C.3   224  SER224      0.2055
    166  C         14.4020   -1.9390   10.4900 C.2   224  SER224      0.2644
    167  O         13.1980   -1.7010   10.4150 O.2   224  SER224     -0.2714
    168  CB        15.2750   -1.9060    8.1650 C.3   224  SER224      0.2130
    169  OG        15.5470   -3.2930    8.2460 O.3   224  SER224     -0.2179
    170  N         14.9190   -2.7910   11.3700 N.am  225  GLY225     -0.1939
    171  CA        14.0940   -3.5100   12.3240 C.3   225  GLY225      0.2014
    172  C         13.8920   -2.7420   13.6120 C.2   225  GLY225      0.2640
    173  O         13.4020   -3.2860   14.5990 O.2   225  GLY225     -0.2714
    174  N         14.2740   -1.4690   13.5980 N.am  226  THR226     -0.1936
    175  CA        13.9940   -0.5650   14.7050 C.3   226  THR226      0.2028
    176  C         13.2190    0.6290   14.1640 C.2   226  THR226      0.2642
    177  O         13.6150    1.2190   13.1680 O.2   226  THR226     -0.2714
    178  CB        15.3000   -0.0560   15.3640 C.3   226  THR226      0.1808
    179  OG1       15.9490   -1.1410   16.0320 O.3   226  THR226     -0.2208
    180  CG2       14.9920    1.0380   16.3840 C.3   226  THR226      0.0379
    181  N         12.1200    0.9940   14.8130 N.am  227  THR227     -0.1950
    182  CA        11.3210    2.1170   14.3360 C.3   227  THR227      0.1897
    183  C         12.0110    3.4720   14.5150 C.2   227  THR227      0.2313
    184  O         12.0980    4.2590   13.5800 O.2   227  THR227     -0.2863
    185  CB         9.9490    2.1840   15.0300 C.3   227  THR227      0.1794
    186  OG1        9.1980    1.0040   14.7190 O.3   227  THR227     -0.2208
    187  CG2        9.1870    3.4100   14.5590 C.3   227  THR227      0.0378
    188  N         17.3880    5.8320   17.8000 N.3   230  ARG230     -0.1245
    189  CA        17.7660    5.5960   19.1840 C.3   230  ARG230      0.1563
    190  C         19.1730    6.1260   19.4220 C.2   230  ARG230      0.2260
    191  O         20.0780    5.8980   18.6180 O.2   230  ARG230     -0.2867
    192  CB        17.6490    4.1100   19.5250 C.3   230  ARG230      0.0307
    193  CG        16.2950    3.5380   19.1120 C.3   230  ARG230      0.0489
    194  CD        16.0460    2.1370   19.6390 C.3   230  ARG230      0.2205
    195  NE        16.0830    2.0850   21.0960 N.pl3 230  ARG230     -0.0865
    196  CZ        16.8200    1.2260   21.7920 C.cat 230  ARG230      0.5346
    197  NH1       17.5690    0.3250   21.1650 N.pl3 230  ARG230      0.1354
    198  NH2       16.7950    1.2550   23.1170 N.pl3 230  ARG230      0.1354
@<TRIPOS>BOND
     1    20    21    2
     2    20    19    1
     3    18    19    1
     4    26    27    1
     5   168   169    1
     6   168   165    1
     7    19    22    1
     8    17    16    2
     9   119   116    1
    10   119   120    1
    11    16    15    1
    12    28    29    2
    13    28    27    1
    14   116   115    1
    15   116   117    1
    16   131   132    2
    17   131   130    1
    18    27    30    1
    19   165   164    1
    20   165   166    1
    21    22    23    1
    22   164   158   am
    23   117   118    2
    24   120   121   ar
    25   120   122   ar
    26   130   129    1
    27   130   133    1
    28    47    46    2
    29   121   123   ar
    30    24    23    1
    31    23    25    1
    32    52    53    2
    33    52    51    1
    34   167   166    2
    35    30    31    1
    36   166   170   am
    37    15    14    1
    38    58    59    1
    39    41    40    2
    40    46    45    1
    41    46    50   am
    42    45    48    1
    43    45    44    1
    44   158   157    1
    45   158   159    2
    46   156   157    1
    47    61    60    2
    48    48    49    1
    49   135   133    1
    50    51    50    1
    51    51    54    1
    52    34    35    1
    53   122   125   ar
    54   122   124   ar
    55   170   171    1
    56    14     7   am
    57    60    59    1
    58   123   124   ar
    59   133   134    1
    60   157   160    1
    61    59    62    1
    62    40    44   am
    63    40    39    1
    64    31    32   ar
    65    31    33   ar
    66   125   127   ar
    67     8     7    2
    68     7     6    1
    69   124   126   ar
    70   171   172    1
    71   134   136    1
    72    38    39    1
    73    38    36   am
    74     1     2    1
    75    43    42    1
    76    54    55    1
    77   162   161   ar
    78    35    36    1
    79     5     6    1
    80     5     3   am
    81    39    42    1
    82     9     6    1
    83     9    10    1
    84    12    11    2
    85   127   128   ar
    86   160   161    1
    87   177   176    2
    88    36    37    2
    89   126   128   ar
    90    55    57   am
    91    55    56    2
    92   161   163   ar
    93   184   183    2
    94   174   172   am
    95   174   175    1
    96   172   173    2
    97     2     3    1
    98     3     4    2
    99   142   144    1
   100   142   141    1
   101    11    10    1
   102    11    13   am
   103   176   175    1
   104   176   181   am
   105   182   183    1
   106   182   181    1
   107   182   185    1
   108   137   138    1
   109   187   185    1
   110   175   178    1
   111   186   185    1
   112   148   147    2
   113   139   138    1
   114   139   140    2
   115   110   109    2
   116   138   141    1
   117   178   179    1
   118   178   180    1
   119   141   143    1
   120   145   146    1
   121   105   106   ar
   122   105   103   ar
   123   106   104   ar
   124   147   146    1
   125    95    93   ar
   126    95    94   ar
   127   111   113    1
   128   111   112    1
   129   111   108    1
   130   114   112    1
   131   109   108    1
   132    93    91   ar
   133    94    92   ar
   134   146   149    1
   135   107   108    1
   136   103   101   ar
   137   104   102   ar
   138   149   150    1
   139    91    89   ar
   140    91    90   ar
   141    92    89   ar
   142   188   189    1
   143    89    87   ar
   144   150   151    1
   145    99    98    2
   146    90    88   ar
   147   101   102   ar
   148   101   100    1
   149    98    97    1
   150   191   190    2
   151    87    88   ar
   152    87    86    1
   153   151   152    1
   154   193   192    1
   155   193   194    1
   156   189   190    1
   157   189   192    1
   158    69    67    1
   159   100    97    1
   160    86    83    1
   161   152   153    2
   162    97    96    1
   163   194   195    1
   164    67    68    1
   165    67    64    1
   166   153   155    1
   167   153   154    1
   168    84    83    1
   169    84    85    2
   170    83    82    1
   171   195   196    2
   172   197   196    1
   173    81    80    1
   174    64    63    1
   175    64    65    1
   176   196   198    1
   177    79    80   ar
   178    79    77   ar
   179    80    78   ar
   180    77    75   ar
   181    66    65    2
   182    78    76   ar
   183    75    76   ar
   184    75    74    1
   185    74    71    1
   186    71    70    1
   187    71    72    1
   188    72    73    2
