@<TRIPOS>MOLECULE
tmp/3inhA00.pdb
 196 187 0 0 0
SMALL
GASTEIGER

@<TRIPOS>ATOM
      1  N          5.1940    2.0260   12.8270 N.3    14  GLY14      -0.1210
      2  CA         5.7110    1.6160   14.1180 C.3    14  GLY14       0.1956
      3  C          5.8140    0.1130   14.2990 C.2    14  GLY14       0.2612
      4  O          6.2750   -0.3630   15.3370 O.2    14  GLY14      -0.2717
      5  N          5.3950   -0.6390   13.2890 N.am   15  GLN15      -0.1965
      6  CA         5.3670   -2.0930   13.3980 C.3    15  GLN15       0.1733
      7  C          6.2670   -2.7890   12.3790 C.2    15  GLN15       0.2616
      8  O          6.2550   -4.0130   12.2690 O.2    15  GLN15      -0.2715
      9  CB         3.9300   -2.6090   13.3000 C.3    15  GLN15       0.0408
     10  CG         3.0320   -2.1000   14.4180 C.3    15  GLN15       0.0908
     11  CD         1.6520   -2.7240   14.3940 C.2    15  GLN15       0.2608
     12  OE1        1.1610   -3.1370   13.3430 O.2    15  GLN15      -0.2717
     13  NE2        1.0150   -2.7920   15.5570 N.am   15  GLN15      -0.0878
     14  N          7.0470   -2.0040   11.6410 N.am   16  GLY16      -0.1955
     15  CA         8.0390   -2.5520   10.7330 C.3    16  GLY16       0.1869
     16  C          7.5670   -2.7680    9.3070 C.2    16  GLY16       0.2309
     17  O          6.3680   -2.8230    9.0370 O.2    16  GLY16      -0.2863
     18  N          9.2230   -9.6370    8.1130 N.3    33  LEU33      -0.1245
     19  CA         9.8540   -8.3740    8.4770 C.3    33  LEU33       0.1561
     20  C         11.2610   -8.2640    7.8990 C.2    33  LEU33       0.2260
     21  O         12.0820   -9.1670    8.0670 O.2    33  LEU33      -0.2867
     22  CB         9.9200   -8.2410    9.9980 C.3    33  LEU33       0.0270
     23  CG        10.6360   -6.9970   10.5240 C.3    33  LEU33       0.0019
     24  CD1        9.7160   -5.7890   10.4470 C.3    33  LEU33       0.0001
     25  CD2       11.1210   -7.2170   11.9510 C.3    33  LEU33       0.0001
     26  N         14.6730   -6.9370    8.3080 N.3    35  ASP35      -0.1239
     27  CA        15.3660   -6.5470    9.5290 C.3    35  ASP35       0.1674
     28  C         16.8870   -6.5440    9.3710 C.2    35  ASP35       0.2266
     29  O         17.5220   -7.5950    9.4050 O.2    35  ASP35      -0.2867
     30  CB        14.9570   -7.4990   10.6560 C.3    35  ASP35       0.1410
     31  CG        15.5020   -7.0870   12.0050 C.2    35  ASP35       0.3668
     32  OD1       16.0440   -5.9680   12.1260 O.co2  35  ASP35      -0.2456
     33  OD2       15.3810   -7.8910   12.9520 O.co2  35  ASP35      -0.2456
     34  N         18.8330   -5.4800   11.5000 N.3    37  GLY37      -0.1210
     35  CA        19.3570   -5.4930   12.8560 C.3    37  GLY37       0.1956
     36  C         19.4670   -6.8760   13.4740 C.2    37  GLY37       0.2613
     37  O         19.7150   -7.0140   14.6740 O.2    37  GLY37      -0.2717
     38  N         19.2750   -7.9040   12.6550 N.am   38  SER38      -0.1938
     39  CA        19.4140   -9.2850   13.1090 C.3    38  SER38       0.2055
     40  C         19.8040  -10.1580   11.9250 C.2    38  SER38       0.2644
     41  O         19.8450   -9.6840   10.7910 O.2    38  SER38      -0.2714
     42  CB        18.1220   -9.7910   13.7530 C.3    38  SER38       0.2130
     43  OG        17.0990   -9.9820   12.7860 O.3    38  SER38      -0.2179
     44  N         20.0850  -11.4300   12.1800 N.am   39  SER39      -0.1935
     45  CA        20.7030  -12.2600   11.1550 C.3    39  SER39       0.2055
     46  C         20.0780  -13.6430   11.0130 C.2    39  SER39       0.2643
     47  O         20.6100  -14.4980   10.3080 O.2    39  SER39      -0.2714
     48  CB        22.2030  -12.3830   11.4230 C.3    39  SER39       0.2130
     49  OG        22.7790  -11.1000   11.5900 O.3    39  SER39      -0.2179
     50  N         18.9510  -13.8570   11.6810 N.am   40  ASN40      -0.1971
     51  CA        18.2170  -15.1110   11.5510 C.3    40  ASN40       0.1688
     52  C         17.0140  -14.9910   10.6240 C.2    40  ASN40       0.2292
     53  O         16.3120  -13.9820   10.6370 O.2    40  ASN40      -0.2864
     54  CB        17.7340  -15.5970   12.9190 C.3    40  ASN40       0.1181
     55  CG        18.8330  -16.2420   13.7350 C.2    40  ASN40       0.2629
     56  OD1       19.6450  -15.5600   14.3590 O.2    40  ASN40      -0.2716
     57  ND2       18.8510  -17.5720   13.7500 N.am   40  ASN40      -0.0877
     58  N         13.7760  -16.3110   10.8210 N.3    42  ALA42      -0.1245
     59  CA        12.9670  -16.9380   11.8550 C.3    42  ALA42       0.1562
     60  C         11.4910  -16.7400   11.5470 C.2    42  ALA42       0.2260
     61  O         11.0340  -15.6150   11.3610 O.2    42  ALA42      -0.2867
     62  CB        13.3100  -16.3560   13.2190 C.3    42  ALA42       0.0290
     63  N         16.3300  -18.3010   22.2260 N.3    72  VAL72      -0.1245
     64  CA        16.7670  -16.9190   22.0520 C.3    72  VAL72       0.1561
     65  C         16.0330  -15.9300   22.9510 C.2    72  VAL72       0.2260
     66  O         15.0060  -15.3740   22.5610 O.2    72  VAL72      -0.2867
     67  CB        16.6180  -16.4620   20.5860 C.3    72  VAL72       0.0252
     68  CG1       17.1950  -15.0650   20.4030 C.3    72  VAL72       0.0019
     69  CG2       17.3000  -17.4460   19.6520 C.3    72  VAL72       0.0019
     70  N         16.1060  -12.2030   24.7580 N.3    74  TYR74      -0.1241
     71  CA        16.6980  -10.9240   24.3850 C.3    74  TYR74       0.1605
     72  C         16.0490   -9.7660   25.1350 C.2    74  TYR74       0.2264
     73  O         15.2840   -9.9750   26.0770 O.2    74  TYR74      -0.2867
     74  CB        16.5870  -10.7050   22.8730 C.3    74  TYR74       0.0534
     75  CG        15.1770  -10.4450   22.3930 C.ar   74  TYR74      -0.0201
     76  CD1       14.7160   -9.1490   22.2050 C.ar   74  TYR74      -0.0009
     77  CD2       14.3070  -11.4950   22.1300 C.ar   74  TYR74      -0.0009
     78  CE1       13.4300   -8.9050   21.7680 C.ar   74  TYR74       0.0417
     79  CE2       13.0150  -11.2600   21.6910 C.ar   74  TYR74       0.0417
     80  CZ        12.5830   -9.9620   21.5130 C.ar   74  TYR74       0.1957
     81  OH        11.3000   -9.7160   21.0770 O.3    74  TYR74      -0.2866
     82  N         12.1460  -16.1920   21.8980 N.3    76  TRP76      -0.1241
     83  CA        11.4950  -17.2040   21.0790 C.3    76  TRP76       0.1605
     84  C         12.3140  -18.4860   21.0460 C.2    76  TRP76       0.2264
     85  O         13.5400  -18.4570   21.1370 O.2    76  TRP76      -0.2867
     86  CB        11.2420  -16.6880   19.6580 C.3    76  TRP76       0.0550
     87  CG        12.4790  -16.2690   18.9220 C.ar   76  TRP76       0.0003
     88  CD1       13.0410  -15.0260   18.9070 C.ar   76  TRP76       0.0946
     89  CD2       13.3000  -17.0910   18.0820 C.ar   76  TRP76       0.0152
     90  NE1       14.1640  -15.0230   18.1140 N.ar   76  TRP76      -0.2442
     91  CE2       14.3450  -16.2780   17.5960 C.ar   76  TRP76       0.0810
     92  CE3       13.2560  -18.4350   17.6960 C.ar   76  TRP76       0.0012
     93  CZ2       15.3350  -16.7640   16.7450 C.ar   76  TRP76       0.0191
     94  CZ3       14.2400  -18.9150   16.8520 C.ar   76  TRP76       0.0001
     95  CH2       15.2660  -18.0820   16.3860 C.ar   76  TRP76       0.0015
     96  N          6.2860  -11.9210   23.6460 N.3   107  LYS107     -0.1231
     97  CA         6.4810  -10.5260   23.2520 C.3   107  LYS107      0.1693
     98  C          7.3050  -10.3740   21.9720 C.2   107  LYS107      0.2592
     99  O          7.9250   -9.3360   21.7420 O.2   107  LYS107     -0.2718
    100  CB         7.0960   -9.7160   24.4000 C.3   107  LYS107      0.0285
    101  CG         6.0600   -9.1460   25.3580 C.3   107  LYS107      0.0035
    102  CD         6.6880   -8.4120   26.5340 C.3   107  LYS107      0.0206
    103  CE         6.8040   -9.3060   27.7590 C.3   107  LYS107      0.1093
    104  NZ         6.8900   -8.5010   29.0110 N.3   107  LYS107     -0.1314
    105  N          7.2930  -11.4070   21.1380 N.am  108  PHE108     -0.1976
    106  CA         8.0410  -11.3950   19.8860 C.3   108  PHE108      0.1639
    107  C          7.1780  -10.8650   18.7420 C.2   108  PHE108      0.2290
    108  O          7.5060   -9.8540   18.1210 O.2   108  PHE108     -0.2864
    109  CB         8.5650  -12.7980   19.5670 C.3   108  PHE108      0.0560
    110  CG         9.3530  -12.8850   18.2910 C.ar  108  PHE108     -0.0200
    111  CD1       10.6300  -12.3550   18.2090 C.ar  108  PHE108     -0.0042
    112  CD2        8.8230  -13.5160   17.1790 C.ar  108  PHE108     -0.0042
    113  CE1       11.3570  -12.4420   17.0350 C.ar  108  PHE108     -0.0003
    114  CE2        9.5440  -13.6060   16.0050 C.ar  108  PHE108     -0.0003
    115  CZ        10.8110  -13.0700   15.9330 C.ar  108  PHE108     -0.0000
    116  N          3.8400   -9.1320   16.9320 N.3   110  ILE110     -0.1245
    117  CA         3.0440   -7.9480   17.2320 C.3   110  ILE110      0.1561
    118  C          1.6200   -8.0980   16.7180 C.2   110  ILE110      0.2260
    119  O          1.4040   -8.4830   15.5680 O.2   110  ILE110     -0.2867
    120  CB         3.6530   -6.6850   16.5960 C.3   110  ILE110      0.0252
    121  CG1        5.0630   -6.4370   17.1320 C.3   110  ILE110      0.0019
    122  CG2        2.7610   -5.4760   16.8490 C.3   110  ILE110      0.0019
    123  CD1        5.7500   -5.2470   16.4960 C.3   110  ILE110      0.0001
    124  N          2.7810   -9.3730    9.7870 N.3   115  TRP115     -0.1241
    125  CA         3.9070  -10.2350    9.4270 C.3   115  TRP115      0.1605
    126  C          4.0290  -11.4310   10.3690 C.2   115  TRP115      0.2264
    127  O          3.6000  -11.3710   11.5240 O.2   115  TRP115     -0.2867
    128  CB         5.2340   -9.4650    9.2970 C.3   115  TRP115      0.0550
    129  CG         5.6320   -8.6020   10.4650 C.ar  115  TRP115      0.0003
    130  CD1        5.4190   -7.2600   10.5980 C.ar  115  TRP115      0.0946
    131  CD2        6.3520   -9.0100   11.6390 C.ar  115  TRP115      0.0152
    132  NE1        5.9450   -6.8110   11.7860 N.ar  115  TRP115     -0.2442
    133  CE2        6.5220   -7.8650   12.4440 C.ar  115  TRP115      0.0810
    134  CE3        6.8590  -10.2330   12.0920 C.ar  115  TRP115      0.0012
    135  CZ2        7.1780   -7.9060   13.6750 C.ar  115  TRP115      0.0191
    136  CZ3        7.5100  -10.2710   13.3160 C.ar  115  TRP115      0.0001
    137  CH2        7.6620   -9.1150   14.0920 C.ar  115  TRP115      0.0015
    138  N         10.6740  -13.0650   10.5140 N.3   118  ILE118     -0.1245
    139  CA        11.6780  -12.0190   10.3700 C.3   118  ILE118      0.1561
    140  C         12.8040  -12.4530    9.4420 C.2   118  ILE118      0.2260
    141  O         13.3320  -13.5600    9.5610 O.2   118  ILE118     -0.2867
    142  CB        12.2720  -11.6220   11.7350 C.3   118  ILE118      0.0252
    143  CG1       11.1920  -11.0030   12.6240 C.3   118  ILE118      0.0019
    144  CG2       13.4330  -10.6510   11.5540 C.3   118  ILE118      0.0019
    145  CD1       11.7180  -10.4700   13.9420 C.3   118  ILE118      0.0001
    146  N         26.2540  -12.4410   14.5420 N.3   126  ILE126     -0.1245
    147  CA        25.1890  -12.2590   15.5240 C.3   126  ILE126      0.1561
    148  C         24.0100  -13.2050   15.3020 C.2   126  ILE126      0.2260
    149  O         22.9400  -13.0190   15.8760 O.2   126  ILE126     -0.2867
    150  CB        24.6900  -10.7960   15.5780 C.3   126  ILE126      0.0252
    151  CG1       24.0600  -10.3850   14.2480 C.3   126  ILE126      0.0019
    152  CG2       25.8330   -9.8600   15.9420 C.3   126  ILE126      0.0019
    153  CD1       23.5440   -8.9600   14.2350 C.3   126  ILE126      0.0001
    154  N         21.8440  -16.5990   15.7460 N.3   128  ARG128     -0.1245
    155  CA        21.6050  -17.5460   16.8280 C.3   128  ARG128      0.1563
    156  C         21.4030  -18.9310   16.2300 C.2   128  ARG128      0.2260
    157  O         20.7940  -19.0610   15.1690 O.2   128  ARG128     -0.2867
    158  CB        20.3680  -17.1440   17.6340 C.3   128  ARG128      0.0307
    159  CG        20.3280  -15.6800   18.0490 C.3   128  ARG128      0.0489
    160  CD        21.4790  -15.3200   18.9750 C.3   128  ARG128      0.2205
    161  NE        21.1530  -14.1740   19.8210 N.pl3 128  ARG128     -0.0865
    162  CZ        21.3280  -12.9030   19.4690 C.cat 128  ARG128      0.5346
    163  NH1       21.8320  -12.5990   18.2810 N.pl3 128  ARG128      0.1354
    164  NH2       20.9970  -11.9320   20.3100 N.pl3 128  ARG128      0.1354
    165  N         19.4260    0.0770   11.4330 N.3   221  ASP221     -0.1225
    166  CA        18.5100   -1.0150   11.7600 C.3   221  ASP221      0.1805
    167  C         17.0690   -0.7600   11.3150 C.2   221  ASP221      0.2598
    168  O         16.3400   -0.0000   11.9480 O.2   221  ASP221     -0.2718
    169  CB        18.5560   -1.2960   13.2680 C.3   221  ASP221      0.1424
    170  CG        17.7060   -2.4880   13.6720 C.2   221  ASP221      0.3668
    171  OD1       17.1960   -3.1920   12.7770 O.co2 221  ASP221     -0.2456
    172  OD2       17.5510   -2.7250   14.8900 O.co2 221  ASP221     -0.2456
    173  N         16.6590   -1.4180   10.2350 N.am  222  SER222     -0.1938
    174  CA        15.2930   -1.2950    9.7380 C.3   222  SER222      0.2055
    175  C         14.2970   -1.9300   10.7080 C.2   222  SER222      0.2644
    176  O         13.0980   -1.6580   10.6470 O.2   222  SER222     -0.2714
    177  CB        15.1630   -1.9370    8.3530 C.3   222  SER222      0.2130
    178  OG        15.4500   -3.3230    8.4040 O.3   222  SER222     -0.2179
    179  N         14.8100   -2.7660   11.6060 N.am  223  GLY223     -0.1939
    180  CA        13.9890   -3.4620   12.5810 C.3   223  GLY223      0.2014
    181  C         13.7920   -2.6890   13.8730 C.2   223  GLY223      0.2640
    182  O         13.2740   -3.2230   14.8540 O.2   223  GLY223     -0.2714
    183  N         14.2190   -1.4310   13.8760 N.am  224  THR224     -0.1936
    184  CA        13.9460   -0.5220   14.9830 C.3   224  THR224      0.2028
    185  C         13.1950    0.6790   14.4350 C.2   224  THR224      0.2642
    186  O         13.5800    1.2380   13.4120 O.2   224  THR224     -0.2714
    187  CB        15.2420   -0.0300   15.6610 C.3   224  THR224      0.1808
    188  OG1       15.8790   -1.1180   16.3390 O.3   224  THR224     -0.2208
    189  CG2       14.9300    1.0700   16.6710 C.3   224  THR224      0.0379
    190  N         12.1160    1.0730   15.1010 N.am  225  THR225     -0.1950
    191  CA        11.3190    2.1960   14.6220 C.3   225  THR225      0.1897
    192  C         12.0360    3.5300   14.8140 C.2   225  THR225      0.2313
    193  O         12.1680    4.3180   13.8780 O.2   225  THR225     -0.2863
    194  CB         9.9470    2.2750   15.3280 C.3   225  THR225      0.1794
    195  OG1        9.1840    1.1000   15.0370 O.3   225  THR225     -0.2208
    196  CG2        9.1790    3.5000   14.8590 C.3   225  THR225      0.0378
@<TRIPOS>BOND
     1    20    21    2
     2    20    19    1
     3    18    19    1
     4    26    27    1
     5   177   178    1
     6   177   174    1
     7    19    22    1
     8    17    16    2
     9   128   125    1
    10   128   129    1
    11    16    15    1
    12    28    29    2
    13    28    27    1
    14   125   124    1
    15   125   126    1
    16   140   141    2
    17   140   139    1
    18    27    30    1
    19   174   173    1
    20   174   175    1
    21    22    23    1
    22   173   167   am
    23    47    46    2
    24   126   127    2
    25   139   138    1
    26   139   142    1
    27    24    23    1
    28   129   130   ar
    29   129   131   ar
    30    23    25    1
    31   130   132   ar
    32    52    53    2
    33    52    51    1
    34   176   175    2
    35    30    31    1
    36   175   179   am
    37    15    14    1
    38    41    40    2
    39    58    59    1
    40    46    45    1
    41    46    50   am
    42    45    48    1
    43    45    44    1
    44   167   166    1
    45   167   168    2
    46    61    60    2
    47    48    49    1
    48   165   166    1
    49    34    35    1
    50    60    59    1
    51    51    50    1
    52    51    54    1
    53   144   142    1
    54   179   180    1
    55   131   134   ar
    56   131   133   ar
    57    14     7   am
    58   142   143    1
    59   166   169    1
    60   132   133   ar
    61    59    62    1
    62    40    44   am
    63    40    39    1
    64    31    32   ar
    65    31    33   ar
    66   134   136   ar
    67     8     7    2
    68     7     6    1
    69   133   135   ar
    70   180   181    1
    71   143   145    1
    72    38    39    1
    73    38    36   am
    74   171   170   ar
    75    43    42    1
    76     1     2    1
    77    35    36    1
    78    54    55    1
    79    39    42    1
    80   169   170    1
    81     5     6    1
    82     5     3   am
    83     9     6    1
    84     9    10    1
    85   136   137   ar
    86    12    11    2
    87   186   185    2
    88    36    37    2
    89   170   172   ar
    90   135   137   ar
    91    55    57   am
    92    55    56    2
    93   181   183   am
    94   181   182    2
    95   183   184    1
    96   193   192    2
    97     2     3    1
    98   153   151    1
    99   151   150    1
   100     3     4    2
   101    11    10    1
   102    11    13   am
   103   185   184    1
   104   185   190   am
   105   146   147    1
   106   191   192    1
   107   191   190    1
   108   191   194    1
   109   196   194    1
   110   184   187    1
   111   195   194    1
   112   157   156    2
   113   148   147    1
   114   148   149    2
   115   147   150    1
   116   119   118    2
   117   150   152    1
   118   187   188    1
   119   187   189    1
   120   154   155    1
   121   115   114   ar
   122   115   113   ar
   123   114   112   ar
   124   156   155    1
   125    95    93   ar
   126    95    94   ar
   127   123   121    1
   128   120   122    1
   129   120   121    1
   130   120   117    1
   131   118   117    1
   132    93    91   ar
   133   155   158    1
   134    94    92   ar
   135   116   117    1
   136   113   111   ar
   137   112   110   ar
   138    91    89   ar
   139    91    90   ar
   140   158   159    1
   141    92    89   ar
   142   159   160    1
   143    89    87   ar
   144    90    88   ar
   145   108   107    2
   146   111   110   ar
   147   163   162    1
   148   110   109    1
   149   107   106    1
   150    88    87   ar
   151    87    86    1
   152   160   161    1
   153   162   161    2
   154   162   164    1
   155   109   106    1
   156    69    67    1
   157    86    83    1
   158   106   105    1
   159    68    67    1
   160    67    64    1
   161    84    83    1
   162    84    85    2
   163    81    80    1
   164    83    82    1
   165   105    98   am
   166    80    79   ar
   167    80    78   ar
   168    79    77   ar
   169    99    98    2
   170    78    76   ar
   171    98    97    1
   172    64    63    1
   173    64    65    1
   174    77    75   ar
   175    76    75   ar
   176    75    74    1
   177    66    65    2
   178    74    71    1
   179    97    96    1
   180    97   100    1
   181    71    70    1
   182    71    72    1
   183   100   101    1
   184    72    73    2
   185   101   102    1
   186   102   103    1
   187   103   104    1
