@<TRIPOS>MOLECULE
tmp/3injE00.pdb
 137 133 0 0 0
SMALL
GASTEIGER

@<TRIPOS>ATOM
      1  N         48.6370   82.0330   17.3920 N.3   114  VAL114     -0.1245
      2  CA        48.5450   81.2950   16.1370 C.3   114  VAL114      0.1561
      3  C         49.8720   80.6150   15.7650 C.2   114  VAL114      0.2260
      4  O         49.9750   79.3920   15.8320 O.2   114  VAL114     -0.2867
      5  CB        48.0050   82.1850   14.9780 C.3   114  VAL114      0.0252
      6  CG1       47.9360   81.3990   13.6770 C.3   114  VAL114      0.0019
      7  CG2       46.6340   82.7350   15.3350 C.3   114  VAL114      0.0019
      8  N         50.6900   76.6570   16.4870 N.3   118  MET118     -0.1245
      9  CA        50.7580   75.7950   15.3120 C.3   118  MET118      0.1570
     10  C         52.1080   75.0960   15.2230 C.2   118  MET118      0.2261
     11  O         52.1950   73.9450   14.8030 O.2   118  MET118     -0.2867
     12  CB        50.4920   76.5980   14.0390 C.3   118  MET118      0.0387
     13  CG        49.0300   76.9330   13.8220 C.3   118  MET118      0.0595
     14  SD        48.7510   77.8630   12.3080 S.3   118  MET118     -0.1393
     15  CE        48.3210   76.5470   11.1730 C.3   118  MET118      0.0692
     16  N         55.8680   83.0880    7.5040 N.3   164  PHE164     -0.1241
     17  CA        55.7110   82.3910    8.7820 C.3   164  PHE164      0.1605
     18  C         57.0360   81.7310    9.0960 C.2   164  PHE164      0.2264
     19  O         57.1950   80.5360    8.8680 O.2   164  PHE164     -0.2867
     20  CB        54.6510   81.2980    8.6830 C.3   164  PHE164      0.0534
     21  CG        53.2750   81.8040    8.3850 C.ar  164  PHE164     -0.0203
     22  CD1       52.8660   82.0030    7.0780 C.ar  164  PHE164     -0.0042
     23  CD2       52.3810   82.0580    9.4150 C.ar  164  PHE164     -0.0042
     24  CE1       51.6000   82.4580    6.8040 C.ar  164  PHE164     -0.0003
     25  CE2       51.1070   82.5150    9.1470 C.ar  164  PHE164     -0.0003
     26  CZ        50.7140   82.7140    7.8440 C.ar  164  PHE164     -0.0000
     27  N         56.8150   78.7000   11.7740 N.3   167  LEU167     -0.1231
     28  CA        55.9000   77.6300   11.3890 C.3   167  LEU167      0.1693
     29  C         56.4130   76.9060   10.1550 C.2   167  LEU167      0.2591
     30  O         56.3610   75.6760   10.0900 O.2   167  LEU167     -0.2718
     31  CB        54.4910   78.1610   11.1430 C.3   167  LEU167      0.0284
     32  CG        53.4120   77.0940   10.9550 C.3   167  LEU167      0.0019
     33  CD1       53.4670   76.0890   12.0870 C.3   167  LEU167      0.0001
     34  CD2       52.0290   77.7300   10.8580 C.3   167  LEU167      0.0001
     35  N         56.9150   77.6610    9.1820 N.am  168  MET168     -0.1979
     36  CA        57.5360   77.0420    8.0130 C.3   168  MET168      0.1605
     37  C         58.7200   76.1680    8.4080 C.2   168  MET168      0.2287
     38  O         58.9560   75.1380    7.7880 O.2   168  MET168     -0.2864
     39  CB        57.9550   78.0810    6.9670 C.3   168  MET168      0.0413
     40  CG        56.7890   78.7830    6.2550 C.3   168  MET168      0.0598
     41  SD        55.5540   77.6870    5.4990 S.3   168  MET168     -0.1393
     42  CE        54.3650   77.4960    6.8370 C.3   168  MET168      0.0692
     43  N         57.0760   72.9230    9.7560 N.3   171  TRP171     -0.1241
     44  CA        56.4850   72.1570    8.6660 C.3   171  TRP171      0.1605
     45  C         57.5490   71.3380    7.9510 C.2   171  TRP171      0.2264
     46  O         57.2450   70.3240    7.3340 O.2   171  TRP171     -0.2867
     47  CB        55.8030   73.0910    7.6650 C.3   171  TRP171      0.0550
     48  CG        54.4380   73.5240    8.0770 C.ar  171  TRP171      0.0003
     49  CD1       53.9140   73.5080    9.3400 C.ar  171  TRP171      0.0946
     50  CD2       53.4190   74.0560    7.2270 C.ar  171  TRP171      0.0152
     51  NE1       52.6250   73.9870    9.3270 N.ar  171  TRP171     -0.2442
     52  CE2       52.2970   74.3350    8.0430 C.ar  171  TRP171      0.0810
     53  CE3       53.3430   74.3230    5.8540 C.ar  171  TRP171      0.0012
     54  CZ2       51.1150   74.8700    7.5320 C.ar  171  TRP171      0.0191
     55  CZ3       52.1690   74.8550    5.3480 C.ar  171  TRP171      0.0001
     56  CH2       51.0690   75.1220    6.1890 C.ar  171  TRP171      0.0015
     57  N         34.7380   86.1170    7.0100 N.3   283  GLN283     -0.1245
     58  CA        35.6710   85.0750    6.6060 C.3   283  GLN283      0.1566
     59  C         36.4020   85.4150    5.3190 C.2   283  GLN283      0.2260
     60  O         37.5270   84.9690    5.1070 O.2   283  GLN283     -0.2867
     61  CB        34.9540   83.7320    6.4870 C.3   283  GLN283      0.0367
     62  CG        34.5990   83.1290    7.8420 C.3   283  GLN283      0.0905
     63  CD        35.8270   82.7400    8.6320 C.2   283  GLN283      0.2608
     64  OE1       36.5630   81.8320    8.2410 O.2   283  GLN283     -0.2717
     65  NE2       36.0550   83.4160    9.7500 N.am  283  GLN283     -0.0878
     66  N         39.1800   87.8840    6.6540 N.3   286  PHE286     -0.1241
     67  CA        40.2680   87.0950    7.2210 C.3   286  PHE286      0.1605
     68  C         41.0330   86.3670    6.1090 C.2   286  PHE286      0.2264
     69  O         42.2610   86.2840    6.1320 O.2   286  PHE286     -0.2867
     70  CB        39.6690   86.1050    8.2230 C.3   286  PHE286      0.0534
     71  CG        40.6460   85.1180    8.7950 C.ar  286  PHE286     -0.0203
     72  CD1       40.5570   83.7750    8.4610 C.ar  286  PHE286     -0.0042
     73  CD2       41.6240   85.5220    9.6920 C.ar  286  PHE286     -0.0042
     74  CE1       41.4330   82.8570    8.9950 C.ar  286  PHE286     -0.0003
     75  CE2       42.5030   84.6120   10.2340 C.ar  286  PHE286     -0.0003
     76  CZ        42.4180   83.2830    9.8850 C.ar  286  PHE286     -0.0000
     77  N         44.7010   88.1890    6.3890 N.3   290  PHE290     -0.1241
     78  CA        45.4740   87.5310    7.4300 C.3   290  PHE290      0.1605
     79  C         46.9600   87.6480    7.1550 C.2   290  PHE290      0.2264
     80  O         47.4030   87.4910    6.0220 O.2   290  PHE290     -0.2867
     81  CB        45.0980   86.0630    7.6050 C.3   290  PHE290      0.0534
     82  CG        45.8280   85.4040    8.7410 C.ar  290  PHE290     -0.0203
     83  CD1       46.8660   84.5240    8.5000 C.ar  290  PHE290     -0.0042
     84  CD2       45.5060   85.7060   10.0540 C.ar  290  PHE290     -0.0042
     85  CE1       47.5510   83.9320    9.5510 C.ar  290  PHE290     -0.0003
     86  CE2       46.1890   85.1180   11.1050 C.ar  290  PHE290     -0.0003
     87  CZ        47.2130   84.2300   10.8490 C.ar  290  PHE290     -0.0000
     88  N         50.0610   85.4140    2.8320 N.3   295  CYS295     -0.1235
     89  CA        49.8400   83.9730    2.8070 C.3   295  CYS295      0.1677
     90  C         49.7930   83.5350    1.3560 C.2   295  CYS295      0.2270
     91  O         49.0810   84.1350    0.5520 O.2   295  CYS295     -0.2867
     92  CB        48.5070   83.6230    3.4730 C.3   295  CYS295      0.0956
     93  SG        48.3360   84.2270    5.1490 S.3   295  CYS295     -0.0801
     94  N         48.2910   81.1650    0.2850 N.3   297  CYS297     -0.1235
     95  CA        46.9220   80.6850    0.0850 C.3   297  CYS297      0.1677
     96  C         45.8240   81.7460    0.2300 C.2   297  CYS297      0.2270
     97  O         44.6340   81.4130    0.2580 O.2   297  CYS297     -0.2867
     98  CB        46.6350   79.5580    1.0780 C.3   297  CYS297      0.0956
     99  SG        46.5610   80.1390    2.7930 S.3   297  CYS297     -0.0801
    100  N         37.8520   79.3970    6.0220 N.3   450  TYR450     -0.1227
    101  CA        39.0550   79.6970    5.2420 C.3   450  TYR450      0.1736
    102  C         40.2890   79.5840    6.1180 C.2   450  TYR450      0.2595
    103  O         40.2160   79.8200    7.3200 O.2   450  TYR450     -0.2718
    104  CB        38.9890   81.0990    4.6120 C.3   450  TYR450      0.0548
    105  CG        39.7670   81.1940    3.3170 C.ar  450  TYR450     -0.0200
    106  CD1       39.1350   81.0280    2.0970 C.ar  450  TYR450     -0.0009
    107  CD2       41.1390   81.4200    3.3160 C.ar  450  TYR450     -0.0009
    108  CE1       39.8410   81.0980    0.9040 C.ar  450  TYR450      0.0417
    109  CE2       41.8540   81.4910    2.1230 C.ar  450  TYR450      0.0417
    110  CZ        41.1940   81.3250    0.9250 C.ar  450  TYR450      0.1957
    111  OH        41.8770   81.3850   -0.2680 O.3   450  TYR450     -0.2866
    112  N         41.4180   79.2220    5.5170 N.am  451  ASP451     -0.1960
    113  CA        42.6810   79.1740    6.2430 C.3   451  ASP451      0.1840
    114  C         42.6120   78.2360    7.4420 C.2   451  ASP451      0.2622
    115  O         43.2590   78.4690    8.4650 O.2   451  ASP451     -0.2715
    116  CB        43.0900   80.5780    6.7010 C.3   451  ASP451      0.1450
    117  CG        43.8540   81.3470    5.6310 C.2   451  ASP451      0.3671
    118  OD1       44.3040   80.7310    4.6400 O.co2 451  ASP451     -0.2456
    119  OD2       44.0100   82.5760    5.7920 O.co2 451  ASP451     -0.2456
    120  N         41.8180   77.1780    7.3130 N.am  452  VAL452     -0.1963
    121  CA        41.7340   76.1660    8.3570 C.3   452  VAL452      0.1727
    122  C         42.8290   75.1230    8.1750 C.2   452  VAL452      0.2616
    123  O         42.7200   74.2190    7.3470 O.2   452  VAL452     -0.2715
    124  CB        40.3490   75.5100    8.4040 C.3   452  VAL452      0.0290
    125  CG1       40.3100   74.4310    9.4800 C.3   452  VAL452      0.0023
    126  CG2       39.2990   76.5720    8.6820 C.3   452  VAL452      0.0023
    127  N         43.8980   75.2800    8.9460 N.am  453  PHE453     -0.1974
    128  CA        45.0090   74.3440    8.9280 C.3   453  PHE453      0.1639
    129  C         44.9740   73.3910   10.1330 C.2   453  PHE453      0.2290
    130  O         44.5650   73.7650   11.2410 O.2   453  PHE453     -0.2864
    131  CB        46.3400   75.1010    8.8820 C.3   453  PHE453      0.0560
    132  CG        46.5510   75.8740    7.6140 C.ar  453  PHE453     -0.0200
    133  CD1       45.9370   77.1040    7.4230 C.ar  453  PHE453     -0.0042
    134  CD2       47.3660   75.3790    6.6180 C.ar  453  PHE453     -0.0042
    135  CE1       46.1320   77.8170    6.2580 C.ar  453  PHE453     -0.0003
    136  CE2       47.5610   76.0850    5.4550 C.ar  453  PHE453     -0.0003
    137  CZ        46.9480   77.3060    5.2720 C.ar  453  PHE453     -0.0000
@<TRIPOS>BOND
     1   111   110    1
     2    95    96    1
     3    95    94    1
     4    95    98    1
     5    96    97    2
     6    91    90    2
     7   108   110   ar
     8   108   106   ar
     9   110   109   ar
    10    98    99    1
    11    90    89    1
    12   106   105   ar
    13   109   107   ar
    14    89    88    1
    15    89    92    1
    16   107   105   ar
    17   105   104    1
    18    92    93    1
    19   104   101    1
    20   118   117   ar
    21    60    59    2
    22   101   100    1
    23   101   102    1
    24   137   136   ar
    25   137   135   ar
    26    59    58    1
    27    55    53   ar
    28    55    56   ar
    29   136   134   ar
    30    41    40    1
    31    41    42    1
    32   112   102   am
    33   112   113    1
    34   117   119   ar
    35   117   116    1
    36    53    50   ar
    37    80    79    2
    38    68    69    2
    39    68    67    1
    40   102   103    2
    41    56    54   ar
    42   113   116    1
    43   113   114    1
    44    40    39    1
    45   135   133   ar
    46    77    78    1
    47    61    58    1
    48    61    62    1
    49    58    57    1
    50   134   132   ar
    51    66    67    1
    52    24    22   ar
    53    24    26   ar
    54    39    36    1
    55    22    21   ar
    56    79    78    1
    57    67    70    1
    58    50    52   ar
    59    50    48   ar
    60   120   114   am
    61   120   121    1
    62    46    45    2
    63   123   122    2
    64   133   132   ar
    65    78    81    1
    66   114   115    2
    67    16    17    1
    68    54    52   ar
    69    81    82    1
    70   132   131    1
    71    47    48    1
    72    47    44    1
    73    38    37    2
    74    62    63    1
    75    26    25   ar
    76    45    44    1
    77    36    37    1
    78    36    35    1
    79    52    51   ar
    80    48    49   ar
    81   122   121    1
    82   122   127   am
    83    70    71    1
    84    64    63    2
    85   121   124    1
    86    21    20    1
    87    21    23   ar
    88   124   126    1
    89   124   125    1
    90    72    71   ar
    91    72    74   ar
    92    83    82   ar
    93    83    85   ar
    94    63    65   am
    95    44    43    1
    96    20    17    1
    97    82    84   ar
    98    17    18    1
    99    71    73   ar
   100    19    18    2
   101   131   128    1
   102   128   127    1
   103   128   129    1
   104    74    76   ar
   105    25    23   ar
   106    35    29   am
   107    51    49   ar
   108    85    87   ar
   109    73    75   ar
   110    76    75   ar
   111    84    86   ar
   112    30    29    2
   113   129   130    2
   114    29    28    1
   115    87    86   ar
   116    34    32    1
   117    32    31    1
   118    32    33    1
   119    31    28    1
   120    15    14    1
   121    28    27    1
   122    14    13    1
   123     6     5    1
   124    13    12    1
   125    12     9    1
   126    11    10    2
   127     5     7    1
   128     5     2    1
   129    10     9    1
   130     9     8    1
   131     3     4    2
   132     3     2    1
   133     2     1    1
