@<TRIPOS>MOLECULE
tmp/3inqB00.pdb
 209 206 0 0 0
SMALL
GASTEIGER

@<TRIPOS>ATOM
      1  N          8.2950   -0.6790   -9.1950 N.3    37  ALA37      -0.1245
      2  CA         8.9570    0.2920  -10.0690 C.3    37  ALA37       0.1562
      3  C         10.1100    0.9490   -9.3430 C.2    37  ALA37       0.2260
      4  O         11.1680    1.0590   -9.9040 O.2    37  ALA37      -0.2867
      5  CB         7.9830    1.3680  -10.5860 C.3    37  ALA37       0.0290
      6  N         12.9550   -1.4150   -9.1160 N.3    40  GLU40      -0.1231
      7  CA        13.6370   -1.5930  -10.3950 C.3    40  GLU40       0.1699
      8  C         14.4380   -0.3360  -10.7690 C.2    40  GLU40       0.2592
      9  O         15.5630   -0.4210  -11.2730 O.2    40  GLU40      -0.2718
     10  CB        12.6400   -2.0180  -11.4870 C.3    40  GLU40       0.0402
     11  CG        13.3060   -2.6850  -12.6700 C.3    40  GLU40       0.1161
     12  CD        12.3240   -3.2050  -13.7070 C.2    40  GLU40       0.3649
     13  OE1       11.1660   -3.5050  -13.3430 O.co2  40  GLU40      -0.2457
     14  OE2       12.7220   -3.3090  -14.8940 O.co2  40  GLU40      -0.2457
     15  N         13.8830    0.8340  -10.4840 N.am   41  PHE41      -0.1976
     16  CA        14.6180    2.0740  -10.6940 C.3    41  PHE41       0.1639
     17  C         15.9540    2.0700   -9.9290 C.2    41  PHE41       0.2290
     18  O         17.0480    2.2270  -10.5150 O.2    41  PHE41      -0.2864
     19  CB        13.7610    3.2540  -10.2600 C.3    41  PHE41       0.0560
     20  CG        14.4910    4.5620  -10.2750 C.ar   41  PHE41      -0.0200
     21  CD1       14.9130    5.1390   -9.0900 C.ar   41  PHE41      -0.0042
     22  CD2       14.7540    5.2190  -11.4840 C.ar   41  PHE41      -0.0042
     23  CE1       15.6070    6.3680   -9.0860 C.ar   41  PHE41      -0.0003
     24  CE2       15.4410    6.4380  -11.4960 C.ar   41  PHE41      -0.0003
     25  CZ        15.8760    7.0160  -10.2840 C.ar   41  PHE41      -0.0000
     26  N         18.3200   -0.4490  -11.6330 N.3    44  ARG44      -0.1231
     27  CA        18.7890    0.0070  -12.9410 C.3    44  ARG44       0.1694
     28  C         19.6140    1.2900  -12.8810 C.2    44  ARG44       0.2592
     29  O         20.5400    1.4900  -13.6750 O.2    44  ARG44      -0.2718
     30  CB        17.6150    0.1610  -13.9110 C.3    44  ARG44       0.0321
     31  CG        17.0940   -1.1740  -14.3960 C.3    44  ARG44       0.0489
     32  CD        15.6300   -1.0920  -14.7530 C.3    44  ARG44       0.2205
     33  NE        15.3760   -1.3460  -16.1640 N.pl3  44  ARG44      -0.0865
     34  CZ        15.0990   -2.5470  -16.6620 C.cat  44  ARG44       0.5346
     35  NH1       15.0480   -3.5980  -15.8560 N.pl3  44  ARG44       0.1354
     36  NH2       14.8880   -2.6990  -17.9620 N.pl3  44  ARG44       0.1354
     37  N         19.3000    2.1570  -11.9320 N.am   45  TYR45      -0.1976
     38  CA        20.0380    3.3980  -11.8200 C.3    45  TYR45       0.1639
     39  C         20.7610    3.4790  -10.4990 C.2    45  TYR45       0.2290
     40  O         20.8000    4.5420   -9.8720 O.2    45  TYR45      -0.2864
     41  CB        19.1070    4.5940  -12.0400 C.3    45  TYR45       0.0560
     42  CG        18.5700    4.5990  -13.4440 C.ar   45  TYR45      -0.0198
     43  CD1       17.4580    3.8220  -13.7900 C.ar   45  TYR45      -0.0009
     44  CD2       19.2150    5.3200  -14.4500 C.ar   45  TYR45      -0.0009
     45  CE1       16.9800    3.8020  -15.0720 C.ar   45  TYR45       0.0417
     46  CE2       18.7370    5.3140  -15.7490 C.ar   45  TYR45       0.0417
     47  CZ        17.6300    4.5510  -16.0520 C.ar   45  TYR45       0.1957
     48  OH        17.1700    4.5320  -17.3380 O.3    45  TYR45      -0.2866
     49  N         23.8040    6.2880   -9.9010 N.3    48  ALA48      -0.1231
     50  CA        23.2190    7.6030   -9.6900 C.3    48  ALA48       0.1694
     51  C         22.4130    7.6300   -8.3840 C.2    48  ALA48       0.2592
     52  O         22.4590    8.6130   -7.6320 O.2    48  ALA48      -0.2718
     53  CB        22.3390    7.9710  -10.8730 C.3    48  ALA48       0.0304
     54  N         21.6780    6.5550   -8.0990 N.am   49  PHE49      -0.1976
     55  CA        20.9570    6.4960   -6.8290 C.3    49  PHE49       0.1639
     56  C         21.9470    6.4600   -5.6490 C.2    49  PHE49       0.2290
     57  O         21.7950    7.1980   -4.6570 O.2    49  PHE49      -0.2864
     58  CB        19.9870    5.3000   -6.7850 C.3    49  PHE49       0.0560
     59  CG        19.0440    5.3250   -5.6080 C.ar   49  PHE49      -0.0200
     60  CD1       18.0520    6.2850   -5.5200 C.ar   49  PHE49      -0.0042
     61  CD2       19.1570    4.3820   -4.5820 C.ar   49  PHE49      -0.0042
     62  CE1       17.1740    6.3140   -4.4030 C.ar   49  PHE49      -0.0003
     63  CE2       18.2830    4.3930   -3.4660 C.ar   49  PHE49      -0.0003
     64  CZ        17.3010    5.3620   -3.3820 C.ar   49  PHE49      -0.0000
     65  N         23.6420    9.7840   -4.9330 N.3    52  LEU52      -0.1245
     66  CA        22.6500   10.6620   -4.3420 C.3    52  LEU52       0.1561
     67  C         22.4440   10.3810   -2.8450 C.2    52  LEU52       0.2260
     68  O         22.3530   11.3040   -2.0510 O.2    52  LEU52      -0.2867
     69  CB        21.3390   10.5450   -5.1070 C.3    52  LEU52       0.0270
     70  CG        20.3400   11.6770   -4.8760 C.3    52  LEU52       0.0019
     71  CD1       19.2370   11.6490   -5.9400 C.3    52  LEU52       0.0001
     72  CD2       19.7590   11.5830   -3.4750 C.3    52  LEU52       0.0001
     73  N         14.8300   21.2980   -4.8270 N.3    70  VAL70      -0.1231
     74  CA        15.5580   20.1340   -5.3210 C.3    70  VAL70       0.1692
     75  C         14.7660   19.2910   -6.3300 C.2    70  VAL70       0.2591
     76  O         15.3010   18.9250   -7.3880 O.2    70  VAL70      -0.2718
     77  CB        16.0520   19.2350   -4.1650 C.3    70  VAL70       0.0266
     78  CG1       16.8720   18.0820   -4.6950 C.3    70  VAL70       0.0020
     79  CG2       16.8720   20.0540   -3.1800 C.3    70  VAL70       0.0020
     80  N         13.5140   18.9470   -6.0250 N.am   71  VAL71      -0.1980
     81  CA        12.8040   18.0880   -6.9700 C.3    71  VAL71       0.1595
     82  C         12.3370   18.8680   -8.2100 C.2    71  VAL71       0.2287
     83  O         12.1270   18.2830   -9.2550 O.2    71  VAL71      -0.2864
     84  CB        11.6520   17.2340   -6.3650 C.3    71  VAL71       0.0276
     85  CG1       11.8860   16.9390   -4.8720 C.3    71  VAL71       0.0022
     86  CG2       10.3710   17.8890   -6.5910 C.3    71  VAL71       0.0022
     87  N         14.2850   20.5720   -9.7930 N.3    73  GLU73      -0.1231
     88  CA        15.3970   20.2970  -10.6880 C.3    73  GLU73       0.1699
     89  C         15.1310   18.9910  -11.4310 C.2    73  GLU73       0.2592
     90  O         15.2840   18.9340  -12.6500 O.2    73  GLU73      -0.2718
     91  CB        16.7430   20.2590   -9.9430 C.3    73  GLU73       0.0402
     92  CG        17.8690   19.5710  -10.7390 C.3    73  GLU73       0.1161
     93  CD        19.2360   19.7230  -10.1020 C.2    73  GLU73       0.3649
     94  OE1       20.0970   20.4090  -10.7000 O.co2  73  GLU73      -0.2457
     95  OE2       19.4560   19.1600   -9.0060 O.co2  73  GLU73      -0.2457
     96  N         14.7180   17.9470  -10.7050 N.am   74  LEU74      -0.1980
     97  CA        14.3580   16.6670  -11.3380 C.3    74  LEU74       0.1596
     98  C         13.3600   16.8330  -12.4760 C.2    74  LEU74       0.2287
     99  O         13.4110   16.1060  -13.4900 O.2    74  LEU74      -0.2864
    100  CB        13.7690   15.6940  -10.2960 C.3    74  LEU74       0.0297
    101  CG        13.1170   14.3660  -10.7100 C.3    74  LEU74       0.0022
    102  CD1       14.1010   13.4000  -11.4130 C.3    74  LEU74       0.0001
    103  CD2       12.4390   13.6630   -9.4770 C.3    74  LEU74       0.0001
    104  N          7.6680   12.7880  -16.4980 N.3    80  ASN80      -0.1225
    105  CA         7.2670   11.4960  -17.0390 C.3    80  ASN80       0.1785
    106  C          7.1040   10.5020  -15.8900 C.2    80  ASN80       0.2597
    107  O          7.4450   10.8260  -14.7560 O.2    80  ASN80      -0.2718
    108  CB         8.1720   10.9980  -18.1910 C.3    80  ASN80       0.1169
    109  CG         9.5890   10.6700  -17.7600 C.2    80  ASN80       0.2627
    110  OD1        9.8990   10.5470  -16.5810 O.2    80  ASN80      -0.2716
    111  ND2       10.4630   10.5120  -18.7370 N.am   80  ASN80      -0.0877
    112  N          6.5160    9.3400  -16.1550 N.am   81  TRP81      -0.1962
    113  CA         6.3460    8.3530  -15.0920 C.3    81  TRP81       0.1771
    114  C          7.6940    8.0850  -14.4330 C.2    81  TRP81       0.2620
    115  O          7.7990    8.0980  -13.2060 O.2    81  TRP81      -0.2715
    116  CB         5.6870    7.0720  -15.6000 C.3    81  TRP81       0.0590
    117  CG         4.2090    7.2710  -16.0070 C.ar   81  TRP81       0.0006
    118  CD1        3.6670    7.1300  -17.2720 C.ar   81  TRP81       0.0946
    119  CD2        3.1120    7.6500  -15.1490 C.ar   81  TRP81       0.0152
    120  NE1        2.3040    7.3770  -17.2350 N.ar   81  TRP81      -0.2442
    121  CE2        1.9400    7.6970  -15.9530 C.ar   81  TRP81       0.0810
    122  CE3        3.0030    7.9390  -13.7800 C.ar   81  TRP81       0.0012
    123  CZ2        0.6840    8.0440  -15.4350 C.ar   81  TRP81       0.0191
    124  CZ3        1.7440    8.2830  -13.2660 C.ar   81  TRP81       0.0001
    125  CH2        0.6060    8.3230  -14.0950 C.ar   81  TRP81       0.0015
    126  N          8.7300    7.9020  -15.2460 N.am   82  GLY82      -0.1940
    127  CA        10.0460    7.5820  -14.7370 C.3    82  GLY82       0.2014
    128  C         10.5330    8.5680  -13.6830 C.2    82  GLY82       0.2638
    129  O         11.1000    8.1610  -12.6600 O.2    82  GLY82      -0.2714
    130  N         10.3400    9.8640  -13.9130 N.am   83  ARG83      -0.1977
    131  CA        10.8150   10.8470  -12.9340 C.3    83  ARG83       0.1597
    132  C          9.8900   10.8840  -11.6960 C.2    83  ARG83       0.2287
    133  O         10.3440   11.1500  -10.5710 O.2    83  ARG83      -0.2864
    134  CB        10.9660   12.2490  -13.5560 C.3    83  ARG83       0.0334
    135  CG        12.0710   12.3180  -14.6010 C.3    83  ARG83       0.0492
    136  CD        12.0370   13.6120  -15.3920 C.3    83  ARG83       0.2205
    137  NE        12.9810   13.5480  -16.4970 N.pl3  83  ARG83      -0.0865
    138  CZ        12.7710   14.1190  -17.6770 C.cat  83  ARG83       0.5346
    139  NH1       11.6660   14.8050  -17.8850 N.pl3  83  ARG83       0.1354
    140  NH2       13.6700   14.0060  -18.6390 N.pl3  83  ARG83       0.1354
    141  N          8.5240    8.1440  -10.4580 N.3    85  VAL85      -0.1231
    142  CA         9.0980    7.0480   -9.6720 C.3    85  VAL85       0.1692
    143  C         10.3820    7.5120   -8.9620 C.2    85  VAL85       0.2592
    144  O         10.5780    7.2690   -7.7400 O.2    85  VAL85      -0.2718
    145  CB         9.3800    5.8030  -10.5320 C.3    85  VAL85       0.0266
    146  CG1       10.1510    4.7410   -9.7270 C.3    85  VAL85       0.0020
    147  CG2        8.0650    5.2330  -11.0680 C.3    85  VAL85       0.0020
    148  N         11.2480    8.2160   -9.6930 N.am   86  ALA86      -0.1966
    149  CA        12.4720    8.7550   -9.0690 C.3    86  ALA86       0.1728
    150  C         12.1750    9.6730   -7.8570 C.2    86  ALA86       0.2616
    151  O         12.8860    9.6720   -6.8570 O.2    86  ALA86      -0.2715
    152  CB        13.3010    9.5030  -10.1050 C.3    86  ALA86       0.0334
    153  N         11.1250   10.4780   -7.9860 N.am   87  PHE87      -0.1974
    154  CA        10.6790   11.3560   -6.9280 C.3    87  PHE87       0.1639
    155  C         10.2840   10.5530   -5.6510 C.2    87  PHE87       0.2290
    156  O         10.7070   10.8830   -4.5140 O.2    87  PHE87      -0.2864
    157  CB         9.5380   12.2050   -7.5010 C.3    87  PHE87       0.0560
    158  CG         8.6140   12.7840   -6.4840 C.ar   87  PHE87      -0.0200
    159  CD1        8.8990   13.9920   -5.8760 C.ar   87  PHE87      -0.0042
    160  CD2        7.3960   12.1420   -6.1860 C.ar   87  PHE87      -0.0042
    161  CE1        8.0010   14.5420   -4.9280 C.ar   87  PHE87      -0.0003
    162  CE2        6.5020   12.6850   -5.2320 C.ar   87  PHE87      -0.0003
    163  CZ         6.7930   13.8770   -4.6150 C.ar   87  PHE87      -0.0000
    164  N         13.3380    9.1010   -4.1780 N.3    90  PHE90      -0.1241
    165  CA        14.0060   10.2040   -3.4780 C.3    90  PHE90       0.1605
    166  C         13.4580   10.4100   -2.0670 C.2    90  PHE90       0.2264
    167  O         14.2140   10.4960   -1.0960 O.2    90  PHE90      -0.2867
    168  CB        13.9250   11.5170   -4.3060 C.3    90  PHE90       0.0534
    169  CG        14.5700   12.6990   -3.6350 C.ar   90  PHE90      -0.0203
    170  CD1       15.8880   12.6250   -3.1760 C.ar   90  PHE90      -0.0042
    171  CD2       13.8800   13.8820   -3.4680 C.ar   90  PHE90      -0.0042
    172  CE1       16.4970   13.7250   -2.5460 C.ar   90  PHE90      -0.0003
    173  CE2       14.4850   14.9820   -2.8510 C.ar   90  PHE90      -0.0003
    174  CZ        15.7930   14.8970   -2.3910 C.ar   90  PHE90      -0.0000
    175  N         -0.5580    4.2820  -15.4110 N.3   135  PHE135     -0.1241
    176  CA         0.7590    3.8410  -14.9220 C.3   135  PHE135      0.1605
    177  C          0.8170    2.3290  -14.7410 C.2   135  PHE135      0.2264
    178  O          1.7920    1.6700  -15.1410 O.2   135  PHE135     -0.2867
    179  CB         1.1010    4.4740  -13.5770 C.3   135  PHE135      0.0534
    180  CG         2.4040    3.9730  -13.0020 C.ar  135  PHE135     -0.0203
    181  CD1        3.6180    4.4600  -13.4740 C.ar  135  PHE135     -0.0042
    182  CD2        2.4210    2.9910  -12.0280 C.ar  135  PHE135     -0.0042
    183  CE1        4.8230    4.0050  -12.9440 C.ar  135  PHE135     -0.0003
    184  CE2        3.6270    2.5330  -11.4860 C.ar  135  PHE135     -0.0003
    185  CZ         4.8210    3.0400  -11.9580 C.ar  135  PHE135     -0.0000
    186  N          0.9850    0.5130  -18.1660 N.3   138  LEU138     -0.1231
    187  CA         2.3260    0.5900  -18.7300 C.3   138  LEU138      0.1693
    188  C          3.3850   -0.2270  -17.9800 C.2   138  LEU138      0.2592
    189  O          4.1080   -1.0120  -18.5830 O.2   138  LEU138     -0.2718
    190  CB         2.7670    2.0590  -18.8050 C.3   138  LEU138      0.0284
    191  CG         1.9610    2.8780  -19.8170 C.3   138  LEU138      0.0019
    192  CD1        2.2350    4.3610  -19.7020 C.3   138  LEU138      0.0001
    193  CD2        2.2530    2.3710  -21.2320 C.3   138  LEU138      0.0001
    194  N          3.4920   -0.0270  -16.6710 N.am  139  TYR139     -0.1962
    195  CA         4.6730   -0.5020  -15.9530 C.3   139  TYR139      0.1771
    196  C          4.3500   -1.4370  -14.7960 C.2   139  TYR139      0.2620
    197  O          5.2570   -1.8300  -14.0420 O.2   139  TYR139     -0.2715
    198  CB         5.5340    0.6920  -15.4800 C.3   139  TYR139      0.0574
    199  CG         5.8410    1.6540  -16.6060 C.ar  139  TYR139     -0.0198
    200  CD1        5.2170    2.8950  -16.6830 C.ar  139  TYR139     -0.0009
    201  CD2        6.7040    1.2920  -17.6270 C.ar  139  TYR139     -0.0009
    202  CE1        5.4760    3.7590  -17.7270 C.ar  139  TYR139      0.0417
    203  CE2        6.9770    2.1480  -18.6670 C.ar  139  TYR139      0.0417
    204  CZ         6.3550    3.3720  -18.7200 C.ar  139  TYR139      0.1957
    205  OH         6.6300    4.2160  -19.7590 O.3   139  TYR139     -0.2866
    206  N          3.0720   -1.8060  -14.6750 N.am  140  GLY140     -0.1954
    207  CA         2.6310   -2.6840  -13.5980 C.3   140  GLY140      0.1869
    208  C          3.3080   -4.0500  -13.6150 C.2   140  GLY140      0.2309
    209  O          3.3310   -4.7350  -14.6440 O.2   140  GLY140     -0.2863
@<TRIPOS>BOND
     1   193   191    1
     2   191   192    1
     3   191   190    1
     4   205   204    1
     5   190   187    1
     6   111   109   am
     7   187   186    1
     8   187   188    1
     9   204   203   ar
    10   204   202   ar
    11   203   201   ar
    12   140   138    1
    13   189   188    2
    14   108   109    1
    15   108   105    1
    16   188   194   am
    17    36    34    1
    18   139   138    1
    19   109   110    2
    20   202   200   ar
    21   138   137    2
    22   201   199   ar
    23    48    47    1
    24   118   120   ar
    25   118   117   ar
    26   120   121   ar
    27   105   104    1
    28   105   106    1
    29   200   199   ar
    30   194   195    1
    31    34    33    2
    32    34    35    1
    33   199   198    1
    34   137   136    1
    35    33    32    1
    36   112   106   am
    37   112   113    1
    38    47    46   ar
    39    47    45   ar
    40   117   116    1
    41   117   119   ar
    42   121   123   ar
    43   121   119   ar
    44   195   198    1
    45   195   196    1
    46   106   107    2
    47    46    44   ar
    48   116   113    1
    49   123   125   ar
    50   175   176    1
    51   136   135    1
    52   126   127    1
    53   126   114   am
    54   119   122   ar
    55   178   177    2
    56   113   114    1
    57    45    43   ar
    58   176   177    1
    59   176   179    1
    60    14    12   ar
    61   196   206   am
    62   196   197    2
    63    32    31    1
    64   127   128    1
    65   206   207    1
    66   209   208    2
    67   135   134    1
    68    44    42   ar
    69   114   115    2
    70    31    30    1
    71   125   124   ar
    72   130   128   am
    73   130   131    1
    74    30    27    1
    75    43    42   ar
    76   122   124   ar
    77    12    13   ar
    78    12    11    1
    79   128   129    2
    80    29    28    2
    81   208   207    1
    82   179   180    1
    83   134   131    1
    84    99    98    2
    85   181   180   ar
    86   181   183   ar
    87    42    41    1
    88   180   182   ar
    89   183   185   ar
    90    27    28    1
    91    27    26    1
    92   131   132    1
    93    28    37   am
    94    11    10    1
    95    90    89    2
    96    98    97    1
    97    41    38    1
    98   182   184   ar
    99   185   184   ar
   100    37    38    1
   101    38    39    1
   102   132   133    2
   103    24    22   ar
   104    24    25   ar
   105    10     7    1
   106    22    20   ar
   107    89    96   am
   108    89    88    1
   109   102   101    1
   110    97    96    1
   111    97   100    1
   112     9     8    2
   113   147   145    1
   114    53    50    1
   115     8    15   am
   116     8     7    1
   117    92    93    1
   118    92    91    1
   119   101   100    1
   120   101   103    1
   121    94    93   ar
   122    16    15    1
   123    16    19    1
   124    16    17    1
   125    88    91    1
   126    88    87    1
   127     5     2    1
   128   145   146    1
   129   145   142    1
   130    18    17    2
   131    39    40    2
   132   141   142    1
   133     7     6    1
   134    25    23   ar
   135    20    19    1
   136    20    21   ar
   137   152   149    1
   138    93    95   ar
   139     2     3    1
   140     2     1    1
   141     4     3    2
   142    49    50    1
   143   148   149    1
   144   148   143   am
   145    50    51    1
   146   142   143    1
   147    83    82    2
   148    21    23   ar
   149   149   150    1
   150   143   144    2
   151    51    54   am
   152    51    52    2
   153    82    81    1
   154    54    55    1
   155   153   150   am
   156   153   154    1
   157   150   151    2
   158   157   154    1
   159   157   158    1
   160    76    75    2
   161    81    84    1
   162    81    80    1
   163   154   155    1
   164    55    58    1
   165    55    56    1
   166    58    59    1
   167    86    84    1
   168   158   160   ar
   169   158   159   ar
   170    84    85    1
   171    75    80   am
   172    75    74    1
   173   160   162   ar
   174    71    70    1
   175   159   161   ar
   176   155   156    2
   177    56    57    2
   178    59    60   ar
   179    59    61   ar
   180    60    62   ar
   181    74    73    1
   182    74    77    1
   183   162   163   ar
   184    69    70    1
   185    69    66    1
   186    65    66    1
   187   161   163   ar
   188    70    72    1
   189    78    77    1
   190    61    63   ar
   191    62    64   ar
   192    66    67    1
   193   168   169    1
   194   168   165    1
   195   164   165    1
   196    77    79    1
   197   169   171   ar
   198   169   170   ar
   199   165   166    1
   200   171   173   ar
   201    63    64   ar
   202   170   172   ar
   203   173   174   ar
   204    67    68    2
   205   172   174   ar
   206   166   167    2
