@<TRIPOS>MOLECULE
tmp/3intA01.pdb
 187 182 0 0 0
SMALL
GASTEIGER

@<TRIPOS>ATOM
      1  N        -11.6470  -29.7380    3.9760 N.3    96  LEU96      -0.1245
      2  CA       -11.3160  -28.5820    3.1130 C.3    96  LEU96       0.1561
      3  C        -10.2960  -29.0900    2.1530 C.2    96  LEU96       0.2260
      4  O         -9.6970  -30.1130    2.4190 O.2    96  LEU96      -0.2867
      5  CB       -10.6910  -27.4370    3.9450 C.3    96  LEU96       0.0270
      6  CG       -11.6870  -26.6870    4.8470 C.3    96  LEU96       0.0019
      7  CD1      -10.9590  -25.5590    5.6010 C.3    96  LEU96       0.0001
      8  CD2      -12.9220  -26.1150    4.0530 C.3    96  LEU96       0.0001
      9  N        -12.5060   -9.8870   -2.3350 N.3   134  PHE134     -0.1241
     10  CA       -12.6130  -11.2440   -1.8160 C.3   134  PHE134      0.1605
     11  C        -14.1040  -11.5910   -1.6730 C.2   134  PHE134      0.2264
     12  O        -14.5340  -12.6700   -2.0960 O.2   134  PHE134     -0.2867
     13  CB       -11.8960  -11.3360   -0.4590 C.3   134  PHE134      0.0534
     14  CG       -11.9570  -12.6860    0.1930 C.ar  134  PHE134     -0.0203
     15  CD1      -10.8070  -13.4870    0.2810 C.ar  134  PHE134     -0.0042
     16  CD2      -13.1530  -13.1720    0.7210 C.ar  134  PHE134     -0.0042
     17  CE1      -10.8200  -14.7990    0.9180 C.ar  134  PHE134     -0.0003
     18  CE2      -13.2030  -14.4380    1.3710 C.ar  134  PHE134     -0.0003
     19  CZ       -12.0060  -15.2780    1.4550 C.ar  134  PHE134     -0.0000
     20  N        -17.3580  -20.6810    5.9370 N.3   150  PHE150     -0.1227
     21  CA       -15.9610  -21.0890    5.8310 C.3   150  PHE150      0.1736
     22  C        -14.9790  -19.9730    5.6040 C.2   150  PHE150      0.2595
     23  O        -13.8170  -20.1870    5.9050 O.2   150  PHE150     -0.2718
     24  CB       -15.7450  -22.2050    4.7840 C.3   150  PHE150      0.0547
     25  CG       -16.5120  -23.4790    5.0840 C.ar  150  PHE150     -0.0202
     26  CD1      -17.7240  -23.7490    4.4540 C.ar  150  PHE150     -0.0042
     27  CD2      -16.0430  -24.3820    6.0490 C.ar  150  PHE150     -0.0042
     28  CE1      -18.4690  -24.9220    4.7460 C.ar  150  PHE150     -0.0003
     29  CE2      -16.7400  -25.5440    6.3420 C.ar  150  PHE150     -0.0003
     30  CZ       -17.9790  -25.8240    5.6690 C.ar  150  PHE150     -0.0000
     31  N        -15.3980  -18.7830    5.1600 N.am  151  PHE151     -0.1976
     32  CA       -14.3980  -17.8210    4.6980 C.3   151  PHE151      0.1639
     33  C        -14.3750  -16.4640    5.3780 C.2   151  PHE151      0.2290
     34  O        -13.2900  -15.8790    5.5990 O.2   151  PHE151     -0.2864
     35  CB       -14.4800  -17.6410    3.2020 C.3   151  PHE151      0.0560
     36  CG       -14.2240  -18.9090    2.4310 C.ar  151  PHE151     -0.0200
     37  CD1      -15.2520  -19.7780    2.1590 C.ar  151  PHE151     -0.0042
     38  CD2      -12.9360  -19.2310    1.9750 C.ar  151  PHE151     -0.0042
     39  CE1      -15.0290  -20.9550    1.4300 C.ar  151  PHE151     -0.0003
     40  CE2      -12.7020  -20.3570    1.2460 C.ar  151  PHE151     -0.0003
     41  CZ       -13.7560  -21.2480    0.9710 C.ar  151  PHE151     -0.0000
     42  N        -12.8800  -16.4550    9.0040 N.3   154  TYR154     -0.1227
     43  CA       -11.5110  -16.8840    8.8970 C.3   154  TYR154      0.1736
     44  C        -10.6690  -15.7200    8.3580 C.2   154  TYR154      0.2596
     45  O         -9.6760  -15.3680    8.9850 O.2   154  TYR154     -0.2718
     46  CB       -11.3810  -18.1630    8.0350 C.3   154  TYR154      0.0548
     47  CG       -10.0060  -18.7950    8.1240 C.ar  154  TYR154     -0.0200
     48  CD1       -9.7480  -19.8480    8.9710 C.ar  154  TYR154     -0.0009
     49  CD2       -8.9620  -18.3000    7.3960 C.ar  154  TYR154     -0.0009
     50  CE1       -8.4880  -20.4080    9.0950 C.ar  154  TYR154      0.0417
     51  CE2       -7.7100  -18.8510    7.4860 C.ar  154  TYR154      0.0417
     52  CZ        -7.4690  -19.8960    8.3380 C.ar  154  TYR154      0.1957
     53  OH        -6.1980  -20.3920    8.4050 O.3   154  TYR154     -0.2866
     54  N        -11.1350  -15.0840    7.2680 N.am  155  THR155     -0.1953
     55  CA       -10.4200  -14.0730    6.5230 C.3   155  THR155      0.1897
     56  C        -10.2590  -12.8450    7.3750 C.2   155  THR155      0.2313
     57  O         -9.2010  -12.2590    7.4380 O.2   155  THR155     -0.2863
     58  CB       -11.1710  -13.8130    5.1970 C.3   155  THR155      0.1794
     59  OG1      -11.0790  -15.0090    4.4300 O.3   155  THR155     -0.2208
     60  CG2      -10.5450  -12.7030    4.3830 C.3   155  THR155      0.0378
     61  N         -7.5800  -13.6600    9.9200 N.3   158  GLN158     -0.1231
     62  CA        -6.2950  -13.7300    9.3560 C.3   158  GLN158      0.1698
     63  C         -5.7550  -12.3630    8.9510 C.2   158  GLN158      0.2592
     64  O         -4.5590  -12.0800    9.0920 O.2   158  GLN158     -0.2718
     65  CB        -6.3670  -14.6680    8.1680 C.3   158  GLN158      0.0381
     66  CG        -5.1510  -14.6960    7.3280 C.3   158  GLN158      0.0905
     67  CD        -4.0560  -15.6330    7.8750 C.2   158  GLN158      0.2608
     68  OE1       -3.9010  -15.8220    9.0830 O.2   158  GLN158     -0.2717
     69  NE2       -3.2770  -16.2140    6.9480 N.am  158  GLN158     -0.0878
     70  N         -6.6320  -11.5050    8.4250 N.am  159  TRP159     -0.1976
     71  CA        -6.1890  -10.2640    7.7650 C.3   159  TRP159      0.1640
     72  C         -6.5660   -8.9990    8.4930 C.2   159  TRP159      0.2290
     73  O         -6.1080   -7.9660    8.1280 O.2   159  TRP159     -0.2864
     74  CB        -6.6900  -10.2330    6.3220 C.3   159  TRP159      0.0576
     75  CG        -6.1410  -11.4030    5.5160 C.ar  159  TRP159      0.0006
     76  CD1       -6.8050  -12.5360    5.1720 C.ar  159  TRP159      0.0946
     77  CD2       -4.8130  -11.5340    4.9690 C.ar  159  TRP159      0.0152
     78  NE1       -5.9820  -13.3620    4.4060 N.ar  159  TRP159     -0.2442
     79  CE2       -4.7540  -12.7750    4.2930 C.ar  159  TRP159      0.0810
     80  CE3       -3.6600  -10.7430    5.0170 C.ar  159  TRP159      0.0012
     81  CZ2       -3.5820  -13.2470    3.6920 C.ar  159  TRP159      0.0191
     82  CZ3       -2.4950  -11.2080    4.4100 C.ar  159  TRP159      0.0001
     83  CH2       -2.4670  -12.4550    3.7590 C.ar  159  TRP159      0.0015
     84  N         -6.6980  -13.3690   -3.5060 N.3   170  ILE170     -0.1231
     85  CA        -6.4840  -14.2510   -2.3550 C.3   170  ILE170      0.1692
     86  C         -7.3500  -15.4960   -2.4380 C.2   170  ILE170      0.2591
     87  O         -6.9130  -16.5530   -2.0670 O.2   170  ILE170     -0.2718
     88  CB        -6.8700  -13.6120   -1.0370 C.3   170  ILE170      0.0266
     89  CG1       -5.9670  -12.4350   -0.6680 C.3   170  ILE170      0.0019
     90  CG2       -6.7960  -14.6330    0.0510 C.3   170  ILE170      0.0020
     91  CD1       -6.5100  -11.6320    0.5010 C.3   170  ILE170      0.0001
     92  N         -8.5900  -15.3660   -2.9000 N.am  171  LEU171     -0.1980
     93  CA        -9.5050  -16.4930   -2.9180 C.3   171  LEU171      0.1596
     94  C         -9.5040  -17.2620   -4.2260 C.2   171  LEU171      0.2287
     95  O         -9.8070  -18.4690   -4.2440 O.2   171  LEU171     -0.2864
     96  CB       -10.9210  -16.0090   -2.6320 C.3   171  LEU171      0.0297
     97  CG       -11.8580  -17.1670   -2.3800 C.3   171  LEU171      0.0022
     98  CD1      -11.3860  -17.8730   -1.1150 C.3   171  LEU171      0.0001
     99  CD2      -13.2460  -16.6400   -2.2580 C.3   171  LEU171      0.0001
    100  N         -7.1560  -18.3940   -5.8400 N.3   173  ARG173     -0.1231
    101  CA        -6.2730  -19.5410   -5.7520 C.3   173  ARG173      0.1694
    102  C         -6.9410  -20.7760   -5.1320 C.2   173  ARG173      0.2591
    103  O         -6.3210  -21.8390   -5.0860 O.2   173  ARG173     -0.2718
    104  CB        -4.9870  -19.1940   -4.9830 C.3   173  ARG173      0.0321
    105  CG        -4.0010  -18.2050   -5.7100 C.3   173  ARG173      0.0489
    106  CD        -2.8530  -17.6740   -4.7660 C.3   173  ARG173      0.2205
    107  NE        -2.3700  -16.3290   -5.1510 N.pl3 173  ARG173     -0.0865
    108  CZ        -2.3370  -15.2400   -4.3560 C.cat 173  ARG173      0.5346
    109  NH1       -2.7400  -15.2860   -3.0710 N.pl3 173  ARG173      0.1354
    110  NH2       -1.8830  -14.0800   -4.8440 N.pl3 173  ARG173      0.1354
    111  N         -8.1840  -20.6710   -4.6540 N.am  174  LEU174     -0.1980
    112  CA        -8.9080  -21.8820   -4.1740 C.3   174  LEU174      0.1596
    113  C        -10.2770  -22.1320   -4.8740 C.2   174  LEU174      0.2287
    114  O        -11.3400  -21.8790   -4.2800 O.2   174  LEU174     -0.2864
    115  CB        -9.1320  -21.8320   -2.6610 C.3   174  LEU174      0.0297
    116  CG        -7.9510  -21.6510   -1.7250 C.3   174  LEU174      0.0022
    117  CD1       -8.4170  -20.9890   -0.3790 C.3   174  LEU174      0.0001
    118  CD2       -7.3080  -22.9930   -1.5010 C.3   174  LEU174      0.0001
    119  N         -5.0880  -30.7240   -0.0910 N.3   184  TYR184     -0.1241
    120  CA        -5.0550  -29.2420   -0.0960 C.3   184  TYR184      0.1605
    121  C         -4.3810  -28.6150   -1.3400 C.2   184  TYR184      0.2264
    122  O         -4.8460  -27.6290   -1.8440 O.2   184  TYR184     -0.2867
    123  CB        -4.4600  -28.6990    1.1990 C.3   184  TYR184      0.0534
    124  CG        -5.0030  -27.3520    1.5670 C.ar  184  TYR184     -0.0201
    125  CD1       -6.2630  -27.2330    2.1560 C.ar  184  TYR184     -0.0009
    126  CD2       -4.2610  -26.1880    1.3340 C.ar  184  TYR184     -0.0009
    127  CE1       -6.7890  -25.9910    2.5010 C.ar  184  TYR184      0.0417
    128  CE2       -4.7820  -24.9300    1.6340 C.ar  184  TYR184      0.0417
    129  CZ        -6.0460  -24.8420    2.2280 C.ar  184  TYR184      0.1957
    130  OH        -6.5630  -23.6280    2.5850 O.3   184  TYR184     -0.2866
    131  N         -8.6480  -25.9530   11.0170 N.3   269  ASN269     -0.1240
    132  CA        -9.0760  -24.5580   10.8810 C.3   269  ASN269      0.1653
    133  C        -10.3250  -24.3090   11.7090 C.2   269  ASN269      0.2266
    134  O        -11.1950  -25.1430   11.7210 O.2   269  ASN269     -0.2867
    135  CB        -9.4150  -24.2520    9.4250 C.3   269  ASN269      0.1155
    136  CG        -8.1870  -24.2420    8.5260 C.2   269  ASN269      0.2627
    137  OD1       -7.0760  -24.6250    8.9500 O.2   269  ASN269     -0.2716
    138  ND2       -8.3750  -23.8200    7.2760 N.am  269  ASN269     -0.0877
    139  N        -13.2540  -21.6850   11.6150 N.3   271  CYS271     -0.1235
    140  CA       -13.7070  -20.6960   10.6210 C.3   271  CYS271      0.1677
    141  C        -14.6060  -19.5850   11.1820 C.2   271  CYS271      0.2270
    142  O        -14.8060  -18.5260   10.5350 O.2   271  CYS271     -0.2867
    143  CB       -14.4050  -21.3870    9.4180 C.3   271  CYS271      0.0956
    144  SG       -13.3850  -22.6150    8.5520 S.3   271  CYS271     -0.0801
    145  N         -6.3300  -21.3250   13.6880 N.3   279  ARG279     -0.1245
    146  CA        -6.2790  -22.8000   13.7240 C.3   279  ARG279      0.1563
    147  C         -5.4670  -23.4550   14.8350 C.2   279  ARG279      0.2260
    148  O         -4.7400  -22.7930   15.5740 O.2   279  ARG279     -0.2867
    149  CB        -5.7970  -23.3620   12.3790 C.3   279  ARG279      0.0307
    150  CG        -4.5390  -22.7650   11.9010 C.3   279  ARG279      0.0489
    151  CD        -4.2490  -23.0270   10.4200 C.3   279  ARG279      0.2205
    152  NE        -2.8000  -22.8490   10.3300 N.pl3 279  ARG279     -0.0865
    153  CZ        -2.0880  -22.9890    9.2260 C.cat 279  ARG279      0.5346
    154  NH1       -2.6790  -23.3390    8.0640 N.pl3 279  ARG279      0.1354
    155  NH2       -0.7770  -22.7720    9.2850 N.pl3 279  ARG279      0.1354
    156  N          3.2450  -12.5410    7.0770 N.3   313  TYR313     -0.1241
    157  CA         2.5490  -12.2410    5.8240 C.3   313  TYR313      0.1605
    158  C          2.5460  -10.7790    5.4780 C.2   313  TYR313      0.2264
    159  O          1.9970   -9.9430    6.2210 O.2   313  TYR313     -0.2867
    160  CB         1.1050  -12.7070    5.8630 C.3   313  TYR313      0.0534
    161  CG         0.9590  -14.1390    6.1530 C.ar  313  TYR313     -0.0201
    162  CD1        0.7190  -14.5910    7.4570 C.ar  313  TYR313     -0.0009
    163  CD2        1.0450  -15.0710    5.1230 C.ar  313  TYR313     -0.0009
    164  CE1        0.5850  -15.9460    7.7120 C.ar  313  TYR313      0.0417
    165  CE2        0.8860  -16.4270    5.3590 C.ar  313  TYR313      0.0417
    166  CZ         0.6570  -16.8670    6.6410 C.ar  313  TYR313      0.1957
    167  OH         0.5080  -18.2290    6.8390 O.3   313  TYR313     -0.2866
    168  N          5.3740  -12.8660   -0.4960 N.3   348  TYR348     -0.1241
    169  CA         5.2630  -14.1970    0.0080 C.3   348  TYR348      0.1605
    170  C          5.7860  -15.1780   -1.0410 C.2   348  TYR348      0.2264
    171  O          5.4550  -15.0480   -2.2280 O.2   348  TYR348     -0.2867
    172  CB         3.8010  -14.5210    0.3180 C.3   348  TYR348      0.0534
    173  CG         3.7110  -15.9460    0.8510 C.ar  348  TYR348     -0.0201
    174  CD1        3.6460  -16.1820    2.2080 C.ar  348  TYR348     -0.0009
    175  CD2        3.7560  -17.0640   -0.0150 C.ar  348  TYR348     -0.0009
    176  CE1        3.5710  -17.4400    2.7000 C.ar  348  TYR348      0.0417
    177  CE2        3.6980  -18.3670    0.5010 C.ar  348  TYR348      0.0417
    178  CZ         3.6150  -18.5250    1.8590 C.ar  348  TYR348      0.1957
    179  OH         3.5380  -19.7650    2.4080 O.3   348  TYR348     -0.2866
    180  N          6.7480  -19.5060   -1.5250 N.3   350  ASP350     -0.1239
    181  CA         6.8410  -20.8660   -0.9990 C.3   350  ASP350      0.1674
    182  C          8.2810  -21.3270   -1.0370 C.2   350  ASP350      0.2266
    183  O          9.1510  -20.6850   -1.6110 O.2   350  ASP350     -0.2867
    184  CB         5.9910  -21.8220   -1.8130 C.3   350  ASP350      0.1410
    185  CG         4.5040  -21.5330   -1.7110 C.2   350  ASP350      0.3668
    186  OD1        3.9180  -21.3270   -0.6020 O.co2 350  ASP350     -0.2456
    187  OD2        3.8810  -21.5480   -2.7830 O.co2 350  ASP350     -0.2456
@<TRIPOS>BOND
     1   100   101    1
     2   101   102    1
     3   101   104    1
     4   105   104    1
     5   105   106    1
     6   107   106    1
     7   107   108    2
     8   102   103    2
     9   102   111   am
    10   113   114    2
    11   113   112    1
    12   110   108    1
    13   111   112    1
    14   108   109    1
    15    95    94    2
    16    94    93    1
    17   112   115    1
    18    84    85    1
    19    93    92    1
    20    93    96    1
    21    92    86   am
    22   187   185   ar
    23   115   116    1
    24    96    97    1
    25    86    85    1
    26    86    87    2
    27    97    99    1
    28    97    98    1
    29    85    88    1
    30     9    10    1
    31   171   170    2
    32    12    11    2
    33   122   121    2
    34    10    11    1
    35    10    13    1
    36   184   185    1
    37   184   181    1
    38   116   118    1
    39   116   117    1
    40   185   186   ar
    41   183   182    2
    42   180   181    1
    43   121   120    1
    44   170   169    1
    45   182   181    1
    46    88    89    1
    47    88    90    1
    48    89    91    1
    49   168   169    1
    50    13    14    1
    51   120   119    1
    52   120   123    1
    53   175   177   ar
    54   175   173   ar
    55   169   172    1
    56    14    15   ar
    57    14    16   ar
    58    15    17   ar
    59   172   173    1
    60   177   178   ar
    61    16    18   ar
    62   173   174   ar
    63    17    19   ar
    64    41    40   ar
    65    41    39   ar
    66   123   124    1
    67    40    38   ar
    68   126   124   ar
    69   126   128   ar
    70    18    19   ar
    71    39    37   ar
    72   124   125   ar
    73   128   129   ar
    74   178   179    1
    75   178   176   ar
    76    38    36   ar
    77     3     4    2
    78     3     2    1
    79   125   127   ar
    80    37    36   ar
    81   174   176   ar
    82   129   127   ar
    83   129   130    1
    84    36    35    1
    85     2     5    1
    86     2     1    1
    87    35    32    1
    88    81    83   ar
    89    81    79   ar
    90    83    82   ar
    91     5     6    1
    92     8     6    1
    93    79    78   ar
    94    79    77   ar
    95    60    58    1
    96    78    76   ar
    97    82    80   ar
    98    59    58    1
    99    26    28   ar
   100    26    25   ar
   101    32    31    1
   102    32    33    1
   103    28    30   ar
   104    24    25    1
   105    24    21    1
   106     6     7    1
   107    77    80   ar
   108    77    75   ar
   109    25    27   ar
   110   163   165   ar
   111   163   161   ar
   112    31    22   am
   113    76    75   ar
   114    58    55    1
   115   165   166   ar
   116    33    34    2
   117   158   157    1
   118   158   159    2
   119    75    74    1
   120    22    21    1
   121    22    23    2
   122    30    29   ar
   123   157   160    1
   124   157   156    1
   125    21    20    1
   126   160   161    1
   127    27    29   ar
   128   161   162   ar
   129    74    71    1
   130    55    54    1
   131    55    56    1
   132   166   167    1
   133   166   164   ar
   134    69    67   am
   135    54    44   am
   136   138   136   am
   137    66    67    1
   138    66    65    1
   139    56    57    2
   140    49    51   ar
   141    49    47   ar
   142   162   164   ar
   143    51    52   ar
   144    71    70    1
   145    71    72    1
   146    67    68    2
   147    46    47    1
   148    46    43    1
   149   154   153    1
   150    47    48   ar
   151    73    72    2
   152    65    62    1
   153    52    53    1
   154    52    50   ar
   155    44    43    1
   156    44    45    2
   157    70    63   am
   158   136   137    2
   159   136   135    1
   160   144   143    1
   161    43    42    1
   162    63    64    2
   163    63    62    1
   164    48    50   ar
   165   153   155    1
   166   153   152    2
   167    62    61    1
   168   143   140    1
   169   135   132    1
   170   152   151    1
   171   151   150    1
   172   142   141    2
   173   140   141    1
   174   140   139    1
   175   132   131    1
   176   132   133    1
   177   133   134    2
   178   150   149    1
   179   149   146    1
   180   145   146    1
   181   146   147    1
   182   147   148    2
