@<TRIPOS>MOLECULE
tmp/3invA00.pdb
 169 164 0 0 0
SMALL
GASTEIGER

@<TRIPOS>ATOM
      1  N        -25.0330   21.1720   54.9750 N.3    25  VAL25      -0.1231
      2  CA       -25.4360   20.1040   54.0640 C.3    25  VAL25       0.1692
      3  C        -26.7690   20.4980   53.4450 C.2    25  VAL25       0.2592
      4  O        -27.7230   20.8390   54.1530 O.2    25  VAL25      -0.2718
      5  CB       -25.6150   18.7540   54.8060 C.3    25  VAL25       0.0266
      6  CG1      -24.3000   18.3010   55.3680 C.3    25  VAL25       0.0020
      7  CG2      -26.6020   18.9030   55.9400 C.3    25  VAL25       0.0020
      8  N        -26.8460   20.4430   52.1240 N.am   26  VAL26      -0.1966
      9  CA       -28.0720   20.8210   51.4470 C.3    26  VAL26       0.1727
     10  C        -28.2040   20.1130   50.1110 C.2    26  VAL26       0.2616
     11  O        -27.2100   19.7350   49.5000 O.2    26  VAL26      -0.2715
     12  CB       -28.0900   22.3300   51.1930 C.3    26  VAL26       0.0290
     13  CG1      -26.8690   22.7190   50.3460 C.3    26  VAL26       0.0023
     14  CG2      -29.3730   22.7250   50.4850 C.3    26  VAL26       0.0023
     15  N        -29.4430   19.9410   49.6710 N.am   27  ALA27      -0.1977
     16  CA       -29.7420   19.3130   48.3960 C.3    27  ALA27       0.1597
     17  C        -30.5320   20.3410   47.5860 C.2    27  ALA27       0.2287
     18  O        -31.5740   20.8190   48.0280 O.2    27  ALA27      -0.2864
     19  CB       -30.5680   18.0550   48.6140 C.3    27  ALA27       0.0319
     20  N        -39.8910   18.6650   50.4810 N.3    40  ILE40      -0.1245
     21  CA       -38.9170   18.5680   49.4110 C.3    40  ILE40       0.1561
     22  C        -39.6050   17.8480   48.2570 C.2    40  ILE40       0.2260
     23  O        -40.0590   16.7130   48.4100 O.2    40  ILE40      -0.2867
     24  CB       -37.6790   17.7980   49.8770 C.3    40  ILE40       0.0252
     25  CG1      -37.0010   18.5900   50.9940 C.3    40  ILE40       0.0019
     26  CG2      -36.7240   17.5800   48.7110 C.3    40  ILE40       0.0019
     27  CD1      -35.9960   17.7940   51.7890 C.3    40  ILE40       0.0001
     28  N        -38.6290   16.2870   45.5890 N.3    42  TRP42      -0.1241
     29  CA       -38.0940   15.0770   44.9880 C.3    42  TRP42       0.1605
     30  C        -37.8880   13.9760   46.0210 C.2    42  TRP42       0.2264
     31  O        -38.0330   14.2060   47.2210 O.2    42  TRP42      -0.2867
     32  CB       -36.7750   15.4070   44.2840 C.3    42  TRP42       0.0550
     33  CG       -35.7540   16.0120   45.1960 C.ar   42  TRP42       0.0003
     34  CD1      -34.9830   15.3580   46.1130 C.ar   42  TRP42       0.0946
     35  CD2      -35.4140   17.3990   45.3000 C.ar   42  TRP42       0.0152
     36  NE1      -34.1800   16.2520   46.7810 N.ar   42  TRP42      -0.2442
     37  CE2      -34.4240   17.5130   46.3020 C.ar   42  TRP42       0.0810
     38  CE3      -35.8480   18.5580   44.6400 C.ar   42  TRP42       0.0012
     39  CZ2      -33.8580   18.7420   46.6670 C.ar   42  TRP42       0.0191
     40  CZ3      -35.2870   19.7830   45.0010 C.ar   42  TRP42       0.0001
     41  CH2      -34.2980   19.8620   46.0080 C.ar   42  TRP42       0.0015
     42  N        -29.5060   10.3270   48.4980 N.3    47  ASP47      -0.1225
     43  CA       -29.0980   11.5750   49.1270 C.3    47  ASP47       0.1805
     44  C        -29.4500   11.5130   50.6060 C.2    47  ASP47       0.2597
     45  O        -28.6540   11.9000   51.4650 O.2    47  ASP47      -0.2718
     46  CB       -29.7970   12.7760   48.4960 C.3    47  ASP47       0.1424
     47  CG       -29.6200   14.0450   49.3210 C.2    47  ASP47       0.3668
     48  OD1      -28.4800   14.5570   49.4120 O.co2  47  ASP47      -0.2456
     49  OD2      -30.6180   14.5220   49.8970 O.co2  47  ASP47      -0.2456
     50  N        -30.6550   11.0300   50.8940 N.am   48  MET48      -0.1979
     51  CA       -31.1200   10.8960   52.2660 C.3    48  MET48       0.1605
     52  C        -30.0970   10.0490   53.0190 C.2    48  MET48       0.2287
     53  O        -29.8160   10.3000   54.1890 O.2    48  MET48      -0.2864
     54  CB       -32.4880   10.2110   52.2890 C.3    48  MET48       0.0413
     55  CG       -33.2310   10.3000   53.6170 C.3    48  MET48       0.0598
     56  SD       -33.7130   11.9910   54.0990 S.3    48  MET48      -0.1393
     57  CE       -34.9090   12.4020   52.8060 C.3    48  MET48       0.0692
     58  N        -26.8260    9.7070   52.1630 N.3    50  PHE50      -0.1227
     59  CA       -25.5920   10.4640   52.2620 C.3    50  PHE50       0.1736
     60  C        -25.6850   11.4050   53.4680 C.2    50  PHE50       0.2595
     61  O        -24.7560   11.4990   54.2750 O.2    50  PHE50      -0.2718
     62  CB       -25.3590   11.2830   50.9960 C.3    50  PHE50       0.0547
     63  CG       -24.2030   12.2330   51.1100 C.ar   50  PHE50      -0.0202
     64  CD1      -22.8930   11.7610   51.1000 C.ar   50  PHE50      -0.0042
     65  CD2      -24.4240   13.5980   51.2870 C.ar   50  PHE50      -0.0042
     66  CE1      -21.8110   12.6390   51.2690 C.ar   50  PHE50      -0.0003
     67  CE2      -23.3580   14.4830   51.4580 C.ar   50  PHE50      -0.0003
     68  CZ       -22.0460   14.0010   51.4490 C.ar   50  PHE50      -0.0000
     69  N        -26.8200   12.0970   53.5690 N.am   51  PHE51      -0.1976
     70  CA       -27.0810   13.0340   54.6510 C.3    51  PHE51       0.1639
     71  C        -26.9810   12.3410   55.9980 C.2    51  PHE51       0.2290
     72  O        -26.3400   12.8440   56.9160 O.2    51  PHE51      -0.2864
     73  CB       -28.4760   13.6520   54.4750 C.3    51  PHE51       0.0560
     74  CG       -28.9670   14.4280   55.6750 C.ar   51  PHE51      -0.0200
     75  CD1      -29.7110   13.8020   56.6710 C.ar   51  PHE51      -0.0042
     76  CD2      -28.6850   15.7850   55.8090 C.ar   51  PHE51      -0.0042
     77  CE1      -30.1710   14.5130   57.7830 C.ar   51  PHE51      -0.0003
     78  CE2      -29.1440   16.5020   56.9210 C.ar   51  PHE51      -0.0003
     79  CZ       -29.8880   15.8610   57.9070 C.ar   51  PHE51      -0.0000
     80  N        -38.6410   22.8160   59.1210 N.3    79  THR79      -0.1218
     81  CA       -37.9220   21.6450   58.6490 C.3    79  THR79       0.1862
     82  C        -38.1380   20.5020   59.6400 C.2    79  THR79       0.2287
     83  O        -38.2640   19.3420   59.2460 O.2    79  THR79      -0.2866
     84  CB       -36.4240   21.9180   58.5120 C.3    79  THR79       0.1770
     85  OG1      -36.2070   22.8530   57.4470 O.3    79  THR79      -0.2211
     86  CG2      -35.6780   20.6200   58.2180 C.3    79  THR79       0.0375
     87  N        -41.4550   19.0750   58.9380 N.3    82  SER82      -0.1202
     88  CA       -41.5030   18.2590   57.7260 C.3    82  SER82       0.2020
     89  C        -40.9980   16.8290   57.9140 C.2    82  SER82       0.2619
     90  O        -41.1790   15.9830   57.0390 O.2    82  SER82      -0.2717
     91  CB       -40.7110   18.9160   56.5990 C.3    82  SER82       0.2103
     92  OG       -39.3320   18.6180   56.7160 O.3    82  SER82      -0.2182
     93  N        -40.3480   16.5580   59.0380 N.am   83  ILE83      -0.1966
     94  CA       -39.8620   15.2100   59.2940 C.3    83  ILE83       0.1712
     95  C        -41.0090   14.4450   59.9550 C.2    83  ILE83       0.2458
     96  O        -41.6340   14.9410   60.8920 O.2    83  ILE83      -0.2730
     97  CB       -38.6380   15.2180   60.2420 C.3    83  ILE83       0.0289
     98  CG1      -37.5560   16.1420   59.6850 C.3    83  ILE83       0.0022
     99  CG2      -38.0730   13.8040   60.3890 C.3    83  ILE83       0.0023
    100  CD1      -36.3310   16.2370   60.5620 C.3    83  ILE83       0.0001
    101  N        -41.3210   13.2380   59.4590 N.am   84  PRO84      -0.2727
    102  CA       -42.4130   12.4700   60.0660 C.3    84  PRO84       0.1402
    103  C        -42.0430   12.1190   61.5050 C.2    84  PRO84       0.2269
    104  O        -40.9480   11.6270   61.7560 O.2    84  PRO84      -0.2865
    105  CB       -42.5040   11.2320   59.1740 C.3    84  PRO84       0.0296
    106  CG       -41.9690   11.7210   57.8460 C.3    84  PRO84       0.0237
    107  CD       -40.7880   12.5480   58.2720 C.3    84  PRO84       0.0939
    108  N        -39.5760    9.5660   62.6720 N.3    87  PHE87      -0.1241
    109  CA       -38.1360    9.7020   62.4630 C.3    87  PHE87       0.1605
    110  C        -37.5240   10.7940   63.3450 C.2    87  PHE87       0.2264
    111  O        -36.3250   11.0630   63.2710 O.2    87  PHE87      -0.2867
    112  CB       -37.8330   10.0040   60.9940 C.3    87  PHE87       0.0534
    113  CG       -38.3160    8.9460   60.0440 C.ar   87  PHE87      -0.0203
    114  CD1      -38.1150    7.5960   60.3230 C.ar   87  PHE87      -0.0042
    115  CD2      -38.9550    9.2970   58.8570 C.ar   87  PHE87      -0.0042
    116  CE1      -38.5460    6.6030   59.4320 C.ar   87  PHE87      -0.0003
    117  CE2      -39.3890    8.3160   57.9570 C.ar   87  PHE87      -0.0003
    118  CZ       -39.1840    6.9650   58.2470 C.ar   87  PHE87      -0.0000
    119  N        -33.7290   12.9470   64.7850 N.3    90  LEU90      -0.1245
    120  CA       -32.7340   12.2470   63.9920 C.3    90  LEU90       0.1561
    121  C        -31.7900   11.5560   64.9800 C.2    90  LEU90       0.2260
    122  O        -31.0730   12.2050   65.7400 O.2    90  LEU90      -0.2867
    123  CB       -31.9890   13.2470   63.1030 C.3    90  LEU90       0.0270
    124  CG       -32.9870   14.0200   62.2320 C.3    90  LEU90       0.0019
    125  CD1      -32.2950   15.1000   61.4300 C.3    90  LEU90       0.0001
    126  CD2      -33.7080   13.0360   61.3080 C.3    90  LEU90       0.0001
    127  N        -28.6190   21.8830   58.6770 N.3   153  ILE153     -0.1231
    128  CA       -29.3120   20.9560   57.7920 C.3   153  ILE153      0.1692
    129  C        -30.5710   21.4460   57.1080 C.2   153  ILE153      0.2592
    130  O        -31.3630   20.6430   56.6100 O.2   153  ILE153     -0.2718
    131  CB       -29.6730   19.6660   58.5220 C.3   153  ILE153      0.0266
    132  CG1      -30.7390   19.9580   59.5850 C.3   153  ILE153      0.0019
    133  CG2      -28.4210   19.0620   59.1250 C.3   153  ILE153      0.0020
    134  CD1      -31.4310   18.7200   60.1390 C.3   153  ILE153      0.0001
    135  N        -30.7960   22.7470   57.0880 N.am  154  GLY154     -0.1957
    136  CA       -31.9790   23.1560   56.3900 C.3   154  GLY154      0.1869
    137  C        -32.9460   24.1800   56.9080 C.2   154  GLY154      0.2309
    138  O        -33.0260   24.5170   58.0960 O.2   154  GLY154     -0.2863
    139  N        -30.4450   28.4280   55.9210 N.3   159  TYR159     -0.1241
    140  CA       -29.3410   28.4090   54.9670 C.3   159  TYR159      0.1605
    141  C        -28.9050   29.8400   54.6760 C.2   159  TYR159      0.2264
    142  O        -27.7080   30.1470   54.6630 O.2   159  TYR159     -0.2867
    143  CB       -29.7590   27.7480   53.6510 C.3   159  TYR159      0.0534
    144  CG       -29.9120   26.2430   53.7000 C.ar  159  TYR159     -0.0201
    145  CD1      -28.9990   25.4470   54.4020 C.ar  159  TYR159     -0.0009
    146  CD2      -30.9430   25.6070   53.0040 C.ar  159  TYR159     -0.0009
    147  CE1      -29.1110   24.0510   54.4090 C.ar  159  TYR159      0.0417
    148  CE2      -31.0610   24.2150   53.0000 C.ar  159  TYR159      0.0417
    149  CZ       -30.1420   23.4460   53.7070 C.ar  159  TYR159      0.1957
    150  OH       -30.2580   22.0750   53.7140 O.3   159  TYR159     -0.2866
    151  N        -21.5610   20.9310   51.9120 N.3   175  TYR175     -0.1241
    152  CA       -21.8090   19.6520   51.2500 C.3   175  TYR175      0.1605
    153  C        -23.1150   19.8320   50.5010 C.2   175  TYR175      0.2264
    154  O        -24.1830   19.8780   51.1070 O.2   175  TYR175     -0.2867
    155  CB       -21.9530   18.5290   52.2770 C.3   175  TYR175      0.0534
    156  CG       -20.6890   18.2570   53.0730 C.ar  175  TYR175     -0.0201
    157  CD1      -20.4000   18.9700   54.2370 C.ar  175  TYR175     -0.0009
    158  CD2      -19.7770   17.2840   52.6520 C.ar  175  TYR175     -0.0009
    159  CE1      -19.2320   18.7150   54.9650 C.ar  175  TYR175      0.0417
    160  CE2      -18.6100   17.0260   53.3680 C.ar  175  TYR175      0.0417
    161  CZ       -18.3450   17.7400   54.5190 C.ar  175  TYR175      0.1957
    162  OH       -17.1940   17.4680   55.2240 O.3   175  TYR175     -0.2866
    163  N        -25.6750   18.5130   47.3980 N.3   177  THR177     -0.1218
    164  CA       -26.1040   17.4800   46.4690 C.3   177  THR177      0.1862
    165  C        -26.9810   18.1960   45.4540 C.2   177  THR177      0.2287
    166  O        -27.8980   18.9250   45.8350 O.2   177  THR177     -0.2866
    167  CB       -26.9710   16.4010   47.1690 C.3   177  THR177      0.1770
    168  OG1      -26.2520   15.8410   48.2750 O.3   177  THR177     -0.2211
    169  CG2      -27.3410   15.2970   46.1860 C.3   177  THR177      0.0375
@<TRIPOS>BOND
     1    32    29    1
     2    32    33    1
     3    38    40   ar
     4    38    35   ar
     5    29    28    1
     6    29    30    1
     7    40    41   ar
     8    33    35   ar
     9    33    34   ar
    10    35    37   ar
    11   165   166    2
    12   165   164    1
    13    41    39   ar
    14    30    31    2
    15    34    36   ar
    16   169   167    1
    17    37    39   ar
    18    37    36   ar
    19   164   167    1
    20   164   163    1
    21   167   168    1
    22    17    18    2
    23    17    16    1
    24    22    23    2
    25    22    21    1
    26    16    19    1
    27    16    15    1
    28    46    43    1
    29    46    47    1
    30    42    43    1
    31    26    24    1
    32    43    44    1
    33    47    48   ar
    34    47    49   ar
    35    21    24    1
    36    21    20    1
    37    11    10    2
    38    15    10   am
    39    24    25    1
    40    10     9    1
    41    13    12    1
    42    14    12    1
    43   153   154    2
    44   153   152    1
    45    44    50   am
    46    44    45    2
    47    50    51    1
    48    25    27    1
    49    62    63    1
    50    62    59    1
    51    64    63   ar
    52    64    66   ar
    53    63    65   ar
    54    12     9    1
    55   152   151    1
    56   152   155    1
    57    66    68   ar
    58    65    67   ar
    59     9     8    1
    60    68    67   ar
    61     8     3   am
    62    58    59    1
    63    59    60    1
    64    51    54    1
    65    51    52    1
    66   155   156    1
    67    54    55    1
    68   158   156   ar
    69   158   160   ar
    70    57    56    1
    71   148   146   ar
    72   148   149   ar
    73   146   144   ar
    74    52    53    2
    75   156   157   ar
    76   160   161   ar
    77     3     2    1
    78     3     4    2
    79    60    69   am
    80    60    61    2
    81    69    70    1
    82    55    56    1
    83   143   144    1
    84   143   140    1
    85   144   145   ar
    86   149   150    1
    87   149   147   ar
    88     2     5    1
    89     2     1    1
    90   157   159   ar
    91   145   147   ar
    92    73    70    1
    93    73    74    1
    94   161   159   ar
    95   161   162    1
    96    70    71    1
    97   142   141    2
    98   141   140    1
    99     5     6    1
   100     5     7    1
   101   140   139    1
   102    74    76   ar
   103    74    75   ar
   104    76    78   ar
   105    71    72    2
   106   136   137    1
   107   136   135    1
   108    91    92    1
   109    91    88    1
   110   130   129    2
   111    75    77   ar
   112   137   138    2
   113    78    79   ar
   114    90    89    2
   115   135   129   am
   116   129   128    1
   117    85    84    1
   118    88    89    1
   119    88    87    1
   120    77    79   ar
   121   128   131    1
   122   128   127    1
   123   106   107    1
   124   106   105    1
   125    89    93   am
   126   117   118   ar
   127   117   115   ar
   128    86    84    1
   129   118   116   ar
   130   107   101    1
   131    84    81    1
   132   131   133    1
   133   131   132    1
   134    81    80    1
   135    81    82    1
   136   115   113   ar
   137    93    94    1
   138   105   102    1
   139    83    82    2
   140    94    95    1
   141    94    97    1
   142   116   114   ar
   143   101    95   am
   144   101   102    1
   145   132   134    1
   146    98    97    1
   147    98   100    1
   148    95    96    2
   149   113   114   ar
   150   113   112    1
   151   102   103    1
   152    97    99    1
   153   112   109    1
   154   126   124    1
   155   125   124    1
   156   103   104    2
   157   124   123    1
   158   109   108    1
   159   109   110    1
   160   123   120    1
   161   111   110    2
   162   120   119    1
   163   120   121    1
   164   121   122    2
