@<TRIPOS>MOLECULE
tmp/3inxA00.pdb
 193 181 0 0 0
SMALL
GASTEIGER

@<TRIPOS>ATOM
      1  N         83.5540   18.6540   25.7840 N.3     6  PHE6       -0.1241
      2  CA        83.3140   17.3330   25.1960 C.3     6  PHE6        0.1605
      3  C         84.5990   16.5460   25.2020 C.2     6  PHE6        0.2264
      4  O         85.6740   17.1130   25.1240 O.2     6  PHE6       -0.2867
      5  CB        82.8820   17.4620   23.7370 C.3     6  PHE6        0.0534
      6  CG        81.4690   17.9350   23.5810 C.ar    6  PHE6       -0.0203
      7  CD1       80.3780   17.1000   23.9530 C.ar    6  PHE6       -0.0042
      8  CD2       81.2310   19.2140   23.0820 C.ar    6  PHE6       -0.0042
      9  CE1       79.0470   17.5490   23.7940 C.ar    6  PHE6       -0.0003
     10  CE2       79.9200   19.6890   22.9130 C.ar    6  PHE6       -0.0003
     11  CZ        78.8140   18.8440   23.2680 C.ar    6  PHE6       -0.0000
     12  N         66.5900   11.6640   15.9330 N.3    32  LEU32      -0.1245
     13  CA        66.1010   12.1950   17.2380 C.3    32  LEU32       0.1561
     14  C         64.8210   11.5070   17.6750 C.2    32  LEU32       0.2260
     15  O         64.6390   11.2230   18.8710 O.2    32  LEU32      -0.2867
     16  CB        65.8850   13.7220   17.1800 C.3    32  LEU32       0.0270
     17  CG        67.2000   14.4790   16.8720 C.3    32  LEU32       0.0019
     18  CD1       66.9000   15.9630   16.7920 C.3    32  LEU32       0.0001
     19  CD2       68.2060   14.2040   17.9910 C.3    32  LEU32       0.0001
     20  N         65.9100    8.2180   18.9920 N.3    35  ASN35      -0.1225
     21  CA        66.4150    8.3930   20.3570 C.3    35  ASN35       0.1785
     22  C         65.2510    8.4780   21.3420 C.2    35  ASN35       0.2597
     23  O         65.3020    7.8610   22.4160 O.2    35  ASN35      -0.2718
     24  CB        67.2220    9.6710   20.4330 C.3    35  ASN35       0.1169
     25  CG        68.6450    9.5020   19.8920 C.2    35  ASN35       0.2627
     26  OD1       69.1030    8.3760   19.5800 O.2    35  ASN35      -0.2716
     27  ND2       69.3640   10.6300   19.8000 N.am   35  ASN35      -0.0877
     28  N         64.2570    9.2850   20.9810 N.am   36  SER36      -0.1952
     29  CA        63.0520    9.4530   21.8290 C.3    36  SER36       0.1924
     30  C         62.3840    8.0950   22.0250 C.2    36  SER36       0.2314
     31  O         62.0250    7.7530   23.1490 O.2    36  SER36      -0.2863
     32  CB        62.0550   10.4430   21.2180 C.3    36  SER36       0.2116
     33  OG        62.5480   11.7990   21.3280 O.3    36  SER36      -0.2180
     34  N         63.7140    5.1560   21.8060 N.3    38  ASP38      -0.1225
     35  CA        64.6080    4.3520   22.6520 C.3    38  ASP38       0.1805
     36  C         64.4620    4.7200   24.1340 C.2    38  ASP38       0.2597
     37  O         64.4160    3.8460   25.0200 O.2    38  ASP38      -0.2718
     38  CB        66.0650    4.5350   22.1900 C.3    38  ASP38       0.1424
     39  CG        66.3540    3.7970   20.8720 C.2    38  ASP38       0.3668
     40  OD1       65.4590    3.1110   20.3070 O.co2  38  ASP38      -0.2456
     41  OD2       67.4920    3.9650   20.3680 O.co2  38  ASP38      -0.2456
     42  N         64.3440    6.0120   24.3940 N.am   39  ALA39      -0.1979
     43  CA        64.1510    6.5310   25.7730 C.3    39  ALA39       0.1597
     44  C         62.8050    6.0880   26.3550 C.2    39  ALA39       0.2287
     45  O         62.7180    5.7060   27.5320 O.2    39  ALA39      -0.2864
     46  CB        64.2750    8.0610   25.7510 C.3    39  ALA39       0.0319
     47  N         62.9820    2.4210   27.2680 N.3    42  LYS42      -0.1245
     48  CA        63.6280    2.2470   28.5980 C.3    42  LYS42       0.1561
     49  C         62.7040    2.4520   29.7830 C.2    42  LYS42       0.2260
     50  O         62.6690    1.5960   30.6950 O.2    42  LYS42      -0.2867
     51  CB        64.8470    3.1590   28.7700 C.3    42  LYS42       0.0271
     52  CG        66.0620    2.6850   27.9600 C.3    42  LYS42       0.0035
     53  CD        67.2820    3.6260   28.2460 C.3    42  LYS42       0.0206
     54  CE        68.5080    3.2950   27.3750 C.3    42  LYS42       0.1093
     55  NZ        68.9740    1.8820   27.6740 N.3    42  LYS42      -0.1314
     56  N         61.6560   18.6080   19.9160 N.3    75  ILE75      -0.1245
     57  CA        61.1980   17.2290   19.9300 C.3    75  ILE75       0.1561
     58  C         61.0460   16.8920   21.4130 C.2    75  ILE75       0.2260
     59  O         62.0290   16.9150   22.1470 O.2    75  ILE75      -0.2867
     60  CB        62.2170   16.2880   19.2540 C.3    75  ILE75       0.0252
     61  CG1       62.4050   16.6620   17.7630 C.3    75  ILE75       0.0019
     62  CG2       61.7210   14.9020   19.3880 C.3    75  ILE75       0.0019
     63  CD1       63.5230   17.6330   17.5260 C.3    75  ILE75       0.0001
     64  N         59.7650   14.1950   24.3320 N.3    77  ASP77      -0.1239
     65  CA        59.3300   12.8400   24.6550 C.3    77  ASP77       0.1674
     66  C         59.1030   12.6760   26.1590 C.2    77  ASP77       0.2266
     67  O         59.6330   13.4310   26.9660 O.2    77  ASP77      -0.2867
     68  CB        60.3060   11.8320   24.0590 C.3    77  ASP77       0.1410
     69  CG        61.6470   11.7640   24.7990 C.2    77  ASP77       0.3668
     70  OD1       61.6350   11.3740   26.0000 O.co2  77  ASP77      -0.2456
     71  OD2       62.7110   12.0300   24.1620 O.co2  77  ASP77      -0.2456
     72  N         62.5520    8.0200   29.6160 N.3    80  ILE80      -0.1231
     73  CA        63.2070    7.8840   30.9220 C.3    80  ILE80       0.1692
     74  C         63.9530    9.1530   31.3940 C.2    80  ILE80       0.2593
     75  O         64.1440    9.3550   32.6090 O.2    80  ILE80      -0.2718
     76  CB        64.1180    6.6360   30.9070 C.3    80  ILE80       0.0266
     77  CG1       64.5350    6.1760   32.3320 C.3    80  ILE80       0.0019
     78  CG2       65.3020    6.8170   29.9600 C.3    80  ILE80       0.0020
     79  CD1       65.0580    4.7210   32.3420 C.3    80  ILE80       0.0001
     80  N         64.2580   10.0620   30.4560 N.am   81  GLY81      -0.1942
     81  CA        65.0290   11.2750   30.7590 C.3    81  GLY81       0.2014
     82  C         66.4710   10.9480   31.1330 C.2    81  GLY81       0.2638
     83  O         66.9250    9.7870   31.0280 O.2    81  GLY81      -0.2714
     84  N         67.1910   11.9740   31.5780 N.am   82  MET82      -0.1976
     85  CA        68.6080   11.8310   31.8780 C.3    82  MET82       0.1605
     86  C         68.9420   12.4760   33.2230 C.2    82  MET82       0.2287
     87  O         68.5120   13.5960   33.5070 O.2    82  MET82      -0.2864
     88  CB        69.4570   12.4870   30.7710 C.3    82  MET82       0.0413
     89  CG        69.3310   11.7510   29.4310 C.3    82  MET82       0.0598
     90  SD        70.1240   12.6350   28.0790 S.3    82  MET82      -0.1393
     91  CE        68.8950   13.8850   27.7390 C.3    82  MET82       0.0692
     92  N         74.1910   11.3600   33.6280 N.3    86  ASP86      -0.1225
     93  CA        73.9080   11.0250   32.2400 C.3    86  ASP86       0.1805
     94  C         74.3080   12.1620   31.2860 C.2    86  ASP86       0.2597
     95  O         74.9460   11.9010   30.2460 O.2    86  ASP86      -0.2718
     96  CB        72.4180   10.7240   32.0410 C.3    86  ASP86       0.1424
     97  CG        71.9900    9.3530   32.6470 C.2    86  ASP86       0.3668
     98  OD1       72.8330    8.4360   32.8010 O.co2  86  ASP86      -0.2456
     99  OD2       70.8040    9.2080   32.9670 O.co2  86  ASP86      -0.2456
    100  N         73.8860   13.3960   31.6250 N.am   87  LEU87      -0.1979
    101  CA        74.1250   14.5790   30.7920 C.3    87  LEU87       0.1596
    102  C         75.6200   14.9040   30.5940 C.2    87  LEU87       0.2287
    103  O         76.0450   15.2690   29.4950 O.2    87  LEU87      -0.2864
    104  CB        73.4290   15.8150   31.3820 C.3    87  LEU87       0.0297
    105  CG        71.8940   15.9510   31.3020 C.3    87  LEU87       0.0022
    106  CD1       71.4880   17.2880   32.0480 C.3    87  LEU87       0.0001
    107  CD2       71.3860   15.9360   29.8240 C.3    87  LEU87       0.0001
    108  N         76.3830    9.2350   28.9760 N.3    91  LEU91      -0.1231
    109  CA        76.0290    9.0280   27.5550 C.3    91  LEU91       0.1693
    110  C         77.2880    9.2730   26.6890 C.2    91  LEU91       0.2592
    111  O         77.5040    8.5730   25.6850 O.2    91  LEU91      -0.2718
    112  CB        74.9030    9.9730   27.1480 C.3    91  LEU91       0.0284
    113  CG        73.4500    9.6980   27.5240 C.3    91  LEU91       0.0019
    114  CD1       72.8150    8.8480   26.4570 C.3    91  LEU91       0.0001
    115  CD2       73.3260    9.0280   28.8960 C.3    91  LEU91       0.0001
    116  N         78.0980   10.2570   27.1030 N.am   92  GLY92      -0.1957
    117  CA        79.3820   10.5830   26.4410 C.3    92  GLY92       0.1869
    118  C         80.3530    9.4100   26.4630 C.2    92  GLY92       0.2309
    119  O         80.9900    9.0870   25.4500 O.2    92  GLY92      -0.2863
    120  N         79.1270    6.7650   24.2250 N.3    95  ALA95      -0.1245
    121  CA        79.2890    7.2050   22.8250 C.3    95  ALA95       0.1562
    122  C         80.7300    7.1240   22.2890 C.2    95  ALA95       0.2260
    123  O         80.9520    7.2880   21.0790 O.2    95  ALA95      -0.2867
    124  CB        78.7790    8.6600   22.6090 C.3    95  ALA95       0.0290
    125  N         74.9090    4.4240   17.3480 N.3   119  GLY119     -0.1210
    126  CA        74.4280    4.8970   18.6310 C.3   119  GLY119      0.1956
    127  C         74.8060    6.3310   18.9570 C.2   119  GLY119      0.2611
    128  O         74.8290    6.7120   20.1280 O.2   119  GLY119     -0.2717
    129  N         75.1290    7.1520   17.9480 N.am  120  VAL120     -0.1979
    130  CA        75.4710    8.5410   18.2320 C.3   120  VAL120      0.1595
    131  C         74.6090    9.5180   17.4070 C.2   120  VAL120      0.2287
    132  O         75.0280   10.6370   17.1090 O.2   120  VAL120     -0.2864
    133  CB        77.0120    8.8290   18.0860 C.3   120  VAL120      0.0276
    134  CG1       77.7500    8.0430   19.1780 C.3   120  VAL120      0.0022
    135  CG2       77.5480    8.5010   16.6730 C.3   120  VAL120      0.0022
    136  N         72.1590   11.3970   18.0890 N.3   122  PHE122     -0.1227
    137  CA        71.8510   12.7480   18.6350 C.3   122  PHE122      0.1736
    138  C         72.6540   13.8290   17.9030 C.2   122  PHE122      0.2595
    139  O         72.0990   14.8730   17.5490 O.2   122  PHE122     -0.2718
    140  CB        72.1700   12.8380   20.1300 C.3   122  PHE122      0.0547
    141  CG        72.1090   14.2490   20.6570 C.ar  122  PHE122     -0.0202
    142  CD1       70.8880   14.8240   21.0140 C.ar  122  PHE122     -0.0042
    143  CD2       73.2850   15.0250   20.7220 C.ar  122  PHE122     -0.0042
    144  CE1       70.8740   16.2060   21.4820 C.ar  122  PHE122     -0.0003
    145  CE2       73.2560   16.3620   21.1990 C.ar  122  PHE122     -0.0003
    146  CZ        72.0580   16.9120   21.5600 C.ar  122  PHE122     -0.0000
    147  N         73.9390   13.5560   17.6220 N.am  123  TYR123     -0.1976
    148  CA        74.7870   14.6120   17.0540 C.3   123  TYR123      0.1639
    149  C         74.4080   15.0420   15.6500 C.2   123  TYR123      0.2290
    150  O         74.8350   16.1150   15.2040 O.2   123  TYR123     -0.2864
    151  CB        76.2780   14.3320   17.1970 C.3   123  TYR123      0.0560
    152  CG        76.6580   14.0920   18.6340 C.ar  123  TYR123     -0.0198
    153  CD1       76.9220   15.1470   19.5050 C.ar  123  TYR123     -0.0009
    154  CD2       76.6670   12.7980   19.1310 C.ar  123  TYR123     -0.0009
    155  CE1       77.2280   14.8990   20.8910 C.ar  123  TYR123      0.0417
    156  CE2       76.9790   12.5410   20.4740 C.ar  123  TYR123      0.0417
    157  CZ        77.2480   13.6010   21.3450 C.ar  123  TYR123      0.1957
    158  OH        77.5810   13.3050   22.6770 O.3   123  TYR123     -0.2866
    159  N         68.7750   21.0790   25.5770 N.3   134  VAL134     -0.1245
    160  CA        68.0610   19.8470   25.9610 C.3   134  VAL134      0.1561
    161  C         67.5700   20.0470   27.4010 C.2   134  VAL134      0.2260
    162  O         68.3700   20.2840   28.3060 O.2   134  VAL134     -0.2867
    163  CB        68.9690   18.6130   25.8260 C.3   134  VAL134      0.0252
    164  CG1       68.2280   17.3210   26.3370 C.3   134  VAL134      0.0019
    165  CG2       69.4760   18.4580   24.3490 C.3   134  VAL134      0.0019
    166  N         70.6790   21.3350   29.4590 N.3   146  TRP146     -0.1241
    167  CA        71.9790   21.1540   28.8120 C.3   146  TRP146      0.1605
    168  C         71.9390   21.9730   27.5210 C.2   146  TRP146      0.2264
    169  O         70.8740   22.0970   26.8840 O.2   146  TRP146     -0.2867
    170  CB        72.1090   19.6760   28.4190 C.3   146  TRP146      0.0550
    171  CG        73.3190   19.2380   27.6290 C.ar  146  TRP146      0.0003
    172  CD1       74.4260   18.5950   28.1080 C.ar  146  TRP146      0.0946
    173  CD2       73.4870   19.3020   26.1980 C.ar  146  TRP146      0.0152
    174  NE1       75.2860   18.2880   27.0670 N.ar  146  TRP146     -0.2442
    175  CE2       74.7270   18.7060   25.8920 C.ar  146  TRP146      0.0810
    176  CE3       72.7020   19.8110   25.1460 C.ar  146  TRP146      0.0012
    177  CZ2       75.2090   18.6210   24.5920 C.ar  146  TRP146      0.0191
    178  CZ3       73.1810   19.7310   23.8550 C.ar  146  TRP146      0.0001
    179  CH2       74.4230   19.1360   23.5850 C.ar  146  TRP146      0.0015
    180  N         62.4630   14.2100   28.0680 N.3   168  THR168     -0.1218
    181  CA        63.4940   14.9910   27.4200 C.3   168  THR168      0.1862
    182  C         62.8550   15.8310   26.3000 C.2   168  THR168      0.2287
    183  O         62.0140   15.3510   25.5390 O.2   168  THR168     -0.2866
    184  CB        64.5730   14.0440   26.8450 C.3   168  THR168      0.1770
    185  OG1       65.2840   13.4600   27.9440 O.3   168  THR168     -0.2211
    186  CG2       65.5990   14.8120   25.9430 C.3   168  THR168      0.0375
    187  N         64.2320   18.2500   23.2210 N.3   170  VAL170     -0.1245
    188  CA        65.4010   18.6750   22.4620 C.3   170  VAL170      0.1561
    189  C         64.9780   19.8700   21.6280 C.2   170  VAL170      0.2260
    190  O         64.1230   19.7670   20.7520 O.2   170  VAL170     -0.2867
    191  CB        65.9230   17.5590   21.5450 C.3   170  VAL170      0.0252
    192  CG1       67.1180   18.0440   20.6810 C.3   170  VAL170      0.0019
    193  CG2       66.2960   16.3080   22.3890 C.3   170  VAL170      0.0019
@<TRIPOS>BOND
     1   150   149    2
     2   149   148    1
     3    12    13    1
     4   135   133    1
     5    18    17    1
     6    17    16    1
     7    17    19    1
     8   148   151    1
     9   148   147    1
    10   132   131    2
    11    16    13    1
    12   151   152    1
    13    13    14    1
    14   125   126    1
    15   131   130    1
    16    63    61    1
    17   139   138    2
    18   147   138   am
    19    14    15    2
    20    61    60    1
    21   138   137    1
    22   129   130    1
    23   129   127   am
    24   133   130    1
    25   133   134    1
    26   136   137    1
    27   126   127    1
    28   152   154   ar
    29   152   153   ar
    30   137   140    1
    31   127   128    2
    32    20    21    1
    33   154   156   ar
    34    60    62    1
    35    60    57    1
    36   153   155   ar
    37    26    25    2
    38    27    25   am
    39    25    24    1
    40    56    57    1
    41    57    58    1
    42   140   141    1
    43    40    39   ar
    44    21    24    1
    45    21    22    1
    46    41    39   ar
    47   156   157   ar
    48   141   143   ar
    49   141   142   ar
    50   192   191    1
    51   143   145   ar
    52   190   189    2
    53    39    38    1
    54   155   157   ar
    55    28    22   am
    56    28    29    1
    57   142   144   ar
    58   123   122    2
    59   145   146   ar
    60    32    33    1
    61    32    29    1
    62    22    23    2
    63   157   158    1
    64    58    59    2
    65   144   146   ar
    66   191   193    1
    67   191   188    1
    68   189   188    1
    69    34    35    1
    70    29    30    1
    71    30    31    2
    72    38    35    1
    73   122   121    1
    74   188   187    1
    75   124   121    1
    76    35    36    1
    77   121   120    1
    78    10     8   ar
    79    10    11   ar
    80     8     6   ar
    81    11     9   ar
    82     6     5    1
    83     6     7   ar
    84   179   178   ar
    85   179   177   ar
    86     5     2    1
    87     9     7   ar
    88   178   176   ar
    89    68    65    1
    90    68    69    1
    91    36    42   am
    92    36    37    2
    93    71    69   ar
    94    64    65    1
    95   165   163    1
    96    42    43    1
    97   177   175   ar
    98    65    66    1
    99    69    70   ar
   100     4     3    2
   101   176   173   ar
   102     2     3    1
   103     2     1    1
   104   119   118    2
   105   183   182    2
   106   159   160    1
   107   111   110    2
   108    46    43    1
   109    43    44    1
   110   163   160    1
   111   163   164    1
   112   175   173   ar
   113   175   174   ar
   114   186   184    1
   115   160   161    1
   116    66    67    2
   117   173   171   ar
   118   182   181    1
   119    44    45    2
   120   117   118    1
   121   117   116    1
   122   114   113    1
   123   110   116   am
   124   110   109    1
   125   184   181    1
   126   184   185    1
   127   169   168    2
   128   174   172   ar
   129   112   113    1
   130   112   109    1
   131    47    48    1
   132    54    55    1
   133    54    53    1
   134   161   162    2
   135   181   180    1
   136   168   167    1
   137   113   115    1
   138   109   108    1
   139   171   172   ar
   140   171   170    1
   141    91    90    1
   142    52    53    1
   143    52    51    1
   144    90    89    1
   145   170   167    1
   146    48    51    1
   147    48    49    1
   148   167   166    1
   149    89    88    1
   150   103   102    2
   151    72    73    1
   152    49    50    2
   153   107   105    1
   154    78    76    1
   155    95    94    2
   156    80    81    1
   157    80    74   am
   158   102   101    1
   159    81    82    1
   160    88    85    1
   161   101   104    1
   162   101   100    1
   163    76    73    1
   164    76    77    1
   165    73    74    1
   166    83    82    2
   167    82    84   am
   168    94   100   am
   169    94    93    1
   170   105   104    1
   171   105   106    1
   172    74    75    2
   173    84    85    1
   174    85    86    1
   175    96    93    1
   176    96    97    1
   177    93    92    1
   178    77    79    1
   179    97    98   ar
   180    97    99   ar
   181    86    87    2
