@<TRIPOS>MOLECULE
tmp/3inyA00.pdb
 103 97 0 0 0
SMALL
GASTEIGER

@<TRIPOS>ATOM
      1  N        -21.1370    2.4730   54.6090 N.3   115  ALA115     -0.1231
      2  CA       -21.1820    3.5510   53.6490 C.3   115  ALA115      0.1694
      3  C        -19.7610    3.6960   53.1740 C.2   115  ALA115      0.2592
      4  O        -18.8790    3.3520   53.8940 O.2   115  ALA115     -0.2718
      5  CB       -21.6330    4.8460   54.2650 C.3   115  ALA115      0.0304
      6  N        -19.5260    4.2080   51.9850 N.am  116  ALA116     -0.1966
      7  CA       -18.2740    4.0150   51.3440 C.3   116  ALA116      0.1728
      8  C        -18.2450    4.9530   50.1590 C.2   116  ALA116      0.2616
      9  O        -19.2690    5.4130   49.6620 O.2   116  ALA116     -0.2715
     10  CB       -18.1940    2.6510   50.8640 C.3   116  ALA116      0.0334
     11  N        -17.0420    5.1890   49.7130 N.am  117  GLY117     -0.1955
     12  CA       -16.7270    6.3220   48.9450 C.3   117  GLY117      0.1869
     13  C        -16.5650    5.5290   47.7100 C.2   117  GLY117      0.2309
     14  O        -15.9480    4.4220   47.6910 O.2   117  GLY117     -0.2863
     15  N         -9.7880    1.5460   54.6000 N.3   194  VAL194     -0.1245
     16  CA        -8.7520    2.4040   54.9620 C.3   194  VAL194      0.1561
     17  C         -9.1360    2.8010   56.4550 C.2   194  VAL194      0.2260
     18  O        -10.3230    2.9490   56.7670 O.2   194  VAL194     -0.2867
     19  CB        -8.8630    3.4260   53.9220 C.3   194  VAL194      0.0252
     20  CG1       -9.5560    4.5990   54.3880 C.3   194  VAL194      0.0019
     21  CG2       -7.6090    3.6750   53.3420 C.3   194  VAL194      0.0019
     22  N        -10.4760   11.8990   55.5120 N.3   199  PHE199     -0.1227
     23  CA       -10.8200   11.4200   54.1790 C.3   199  PHE199      0.1736
     24  C         -9.7300   11.5350   53.1320 C.2   199  PHE199      0.2595
     25  O         -8.7510   12.3040   53.3350 O.2   199  PHE199     -0.2718
     26  CB       -11.9380   12.2510   53.6890 C.3   199  PHE199      0.0547
     27  CG       -13.2670   11.7800   54.1490 C.ar  199  PHE199     -0.0202
     28  CD1      -13.5950   10.4670   54.0860 C.ar  199  PHE199     -0.0042
     29  CD2      -14.1920   12.6540   54.6130 C.ar  199  PHE199     -0.0042
     30  CE1      -14.8550   10.0060   54.5360 C.ar  199  PHE199     -0.0003
     31  CE2      -15.4410   12.1770   55.0550 C.ar  199  PHE199     -0.0003
     32  CZ       -15.7430   10.8300   55.0040 C.ar  199  PHE199     -0.0000
     33  N         -9.8090   10.7900   52.0190 N.am  200  GLU200     -0.1979
     34  CA        -8.5570   10.6280   51.4300 C.3   200  GLU200      0.1602
     35  C         -8.1800   11.7750   50.6250 C.2   200  GLU200      0.2287
     36  O         -9.0180   12.6090   50.3800 O.2   200  GLU200     -0.2864
     37  CB        -8.3420    9.3770   50.7370 C.3   200  GLU200      0.0415
     38  CG        -9.4170    8.6090   50.4640 C.3   200  GLU200      0.1163
     39  CD       -10.2530    8.1760   51.5880 C.2   200  GLU200      0.3649
     40  OE1       -9.8990    7.1020   52.1660 O.co2 200  GLU200     -0.2457
     41  OE2      -11.3640    8.8050   51.7650 O.co2 200  GLU200     -0.2457
     42  N        -14.1670    2.7460   48.9920 N.3   216  VAL216     -0.1231
     43  CA       -13.3790    2.8110   50.2540 C.3   216  VAL216      0.1692
     44  C        -14.1780    3.1140   51.4910 C.2   216  VAL216      0.2593
     45  O        -15.0370    4.0400   51.5510 O.2   216  VAL216     -0.2718
     46  CB       -12.3060    3.8120   50.2630 C.3   216  VAL216      0.0266
     47  CG1      -12.8630    5.2660   50.0660 C.3   216  VAL216      0.0020
     48  CG2      -11.6680    3.6380   51.5150 C.3   216  VAL216      0.0020
     49  N        -13.9830    2.3280   52.5240 N.am  217  GLY217     -0.1942
     50  CA       -14.5590    2.8590   53.7900 C.3   217  GLY217      0.2014
     51  C        -13.6540    2.4680   54.9120 C.2   217  GLY217      0.2635
     52  O        -12.5530    1.9790   54.7140 O.2   217  GLY217     -0.2714
     53  N        -14.1980    2.4660   56.1320 N.am  218  MET218     -0.2030
     54  CA       -13.4690    2.1190   57.3280 C.3   218  MET218      0.1291
     55  C        -14.0750    1.1070   58.2960 C.3   218  MET218      0.2036
     56  O        -13.7880    1.3770   59.5040 O.3   218  MET218     -0.2185
     57  CB       -13.2980    3.5150   58.0640 C.3   218  MET218      0.0360
     58  CG       -12.6570    4.6450   57.2800 C.3   218  MET218      0.0594
     59  SD       -13.1250    6.3950   57.9370 S.3   218  MET218     -0.1393
     60  CE       -12.7350    7.6350   56.7620 C.3   218  MET218      0.0692
     61  N        -21.7010    6.6960   48.9500 N.3   241  THR241     -0.1203
     62  CA       -22.3690    7.8440   49.5050 C.3   241  THR241      0.1994
     63  C        -21.6820    9.0210   48.9800 C.2   241  THR241      0.2618
     64  O        -22.0320   10.1210   49.3040 O.2   241  THR241     -0.2717
     65  CB       -22.3620    7.9080   51.0760 C.3   241  THR241      0.1784
     66  OG1      -21.0510    7.7210   51.5890 O.3   241  THR241     -0.2211
     67  CG2      -23.2200    6.9110   51.7230 C.3   241  THR241      0.0376
     68  N        -20.6710    8.7980   48.1510 N.am  242  ASN242     -0.1960
     69  CA       -19.9920    9.9110   47.4620 C.3   242  ASN242      0.1819
     70  C        -18.9060    9.2600   46.6790 C.2   242  ASN242      0.2621
     71  O        -18.7700    8.0550   46.8730 O.2   242  ASN242     -0.2715
     72  CB       -19.3780   10.8830   48.4690 C.3   242  ASN242      0.1195
     73  CG       -18.7050   10.1670   49.6220 C.2   242  ASN242      0.2630
     74  OD1      -19.4130    9.5570   50.4350 O.2   242  ASN242     -0.2716
     75  ND2      -17.3460   10.2360   49.7240 N.am  242  ASN242     -0.0877
     76  N        -18.1460   10.0350   45.8480 N.am  243  LYS243     -0.1963
     77  CA       -16.8160    9.6540   45.1830 C.3   243  LYS243      0.1728
     78  C        -15.9510   10.8650   44.9530 C.2   243  LYS243      0.2612
     79  O        -16.6200   11.8840   44.6750 O.2   243  LYS243     -0.2715
     80  CB       -17.1700    9.1670   43.8000 C.3   243  LYS243      0.0311
     81  CG       -18.5280    9.7570   43.3300 C.3   243  LYS243      0.0038
     82  CD       -18.8890    9.1990   41.9470 C.3   243  LYS243      0.0206
     83  CE       -20.1110    9.9450   41.3980 C.3   243  LYS243      0.1093
     84  NZ       -19.8730   10.1930   39.9590 N.3   243  LYS243     -0.1314
     85  N        -14.5720   10.8430   45.0260 N.am  244  VAL244     -0.2031
     86  CA       -13.6760   11.9580   44.3090 C.3   244  VAL244      0.1282
     87  C        -12.5880   11.2550   43.5450 C.3   244  VAL244      0.2035
     88  O        -12.6690   10.0080   43.5980 O.3   244  VAL244     -0.2185
     89  CB       -12.9850   13.1700   45.1320 C.3   244  VAL244      0.0226
     90  CG1      -11.5720   12.7740   45.7470 C.3   244  VAL244      0.0018
     91  CG2      -12.7530   14.4260   44.2000 C.3   244  VAL244      0.0018
     92  N        -13.8760   16.2700   50.0120 N.3   254  ALA254     -0.1245
     93  CA       -14.2020   14.8060   50.0930 C.3   254  ALA254      0.1562
     94  C        -15.3110   14.3070   51.1100 C.2   254  ALA254      0.2260
     95  O        -15.6530   13.1030   51.1010 O.2   254  ALA254     -0.2867
     96  CB       -12.9240   14.0220   50.2950 C.3   254  ALA254      0.0290
     97  N        -22.3380   12.1970   52.4720 N.3   259  VAL259     -0.1245
     98  CA       -22.5080   10.7920   53.0350 C.3   259  VAL259      0.1561
     99  C        -23.9920   10.5120   53.5660 C.2   259  VAL259      0.2260
    100  O        -24.2230    9.7570   54.5420 O.2   259  VAL259     -0.2867
    101  CB       -21.2290   10.1880   53.9240 C.3   259  VAL259      0.0252
    102  CG1      -20.4040   11.2650   54.6200 C.3   259  VAL259      0.0019
    103  CG2      -21.5910    8.9680   54.8980 C.3   259  VAL259      0.0019
@<TRIPOS>BOND
     1    84    83    1
     2    83    82    1
     3    82    81    1
     4    81    80    1
     5    87    88    1
     6    87    86    1
     7    80    77    1
     8    91    89    1
     9    86    85    1
    10    86    89    1
    11    79    78    2
    12    78    85   am
    13    78    77    1
    14    89    90    1
    15    77    76    1
    16    76    70   am
    17    70    71    2
    18    70    69    1
    19    69    68    1
    20    69    72    1
    21    14    13    2
    22    13    12    1
    23    68    63   am
    24    72    73    1
    25    12    11    1
    26    61    62    1
    27    63    64    2
    28    63    62    1
    29    42    43    1
    30    62    65    1
    31    73    75   am
    32    73    74    2
    33     9     8    2
    34    11     8   am
    35    92    93    1
    36    47    46    1
    37    93    96    1
    38    93    94    1
    39     8     7    1
    40    43    46    1
    41    43    44    1
    42    46    48    1
    43    36    35    2
    44    38    37    1
    45    38    39    1
    46    35    34    1
    47    37    34    1
    48    10     7    1
    49    65    66    1
    50    65    67    1
    51    95    94    2
    52     7     6    1
    53    34    33    1
    54    44    45    2
    55    44    49   am
    56    39    41   ar
    57    39    40   ar
    58     6     3   am
    59    33    24   am
    60    97    98    1
    61    49    50    1
    62    98    99    1
    63    98   101    1
    64    24    25    2
    65    24    23    1
    66     3     2    1
    67     3     4    2
    68    21    19    1
    69    99   100    2
    70     2     5    1
    71     2     1    1
    72    26    27    1
    73    26    23    1
    74    50    51    1
    75    19    20    1
    76    19    16    1
    77   101   102    1
    78   101   103    1
    79    28    27   ar
    80    28    30   ar
    81    27    29   ar
    82    23    22    1
    83    30    32   ar
    84    15    16    1
    85    29    31   ar
    86    52    51    2
    87    51    53   am
    88    16    17    1
    89    32    31   ar
    90    53    54    1
    91    17    18    2
    92    60    59    1
    93    58    59    1
    94    58    57    1
    95    54    57    1
    96    54    55    1
    97    55    56    1
