@<TRIPOS>MOLECULE
tmp/3io3A00.pdb
 151 145 0 0 0
SMALL
GASTEIGER

@<TRIPOS>ATOM
      1  N         31.1330   40.8280   66.7660 N.3    26  GLY26      -0.1210
      2  CA        30.1010   41.8210   66.4510 C.3    26  GLY26       0.1956
      3  C         29.9390   41.9520   64.9350 C.2    26  GLY26       0.2612
      4  O         30.9310   41.9460   64.2150 O.2    26  GLY26      -0.2717
      5  N         28.6940   42.0280   64.4630 N.am   27  GLY27      -0.1942
      6  CA        28.3890   42.2940   63.0190 C.3    27  GLY27       0.2014
      7  C         28.4320   41.1290   62.0430 C.2    27  GLY27       0.2639
      8  O         28.2620   41.3330   60.8120 O.2    27  GLY27      -0.2714
      9  N         28.6870   39.9220   62.5460 N.am   28  VAL28      -0.1963
     10  CA        28.8580   38.7310   61.6960 C.3    28  VAL28       0.1727
     11  C         27.5250   38.1260   61.2780 C.2    28  VAL28       0.2617
     12  O         27.4530   37.4480   60.2610 O.2    28  VAL28      -0.2715
     13  CB        29.7380   37.6050   62.3200 C.3    28  VAL28       0.0290
     14  CG1       31.1860   38.0870   62.5130 C.3    28  VAL28       0.0023
     15  CG2       29.1050   37.0890   63.6510 C.3    28  VAL28       0.0023
     16  N         26.4760   38.3750   62.0590 N.am   29  GLY29      -0.1940
     17  CA        25.1300   37.9620   61.6650 C.3    29  GLY29       0.2014
     18  C         24.4390   37.0990   62.6750 C.2    29  GLY29       0.2639
     19  O         23.6780   36.2120   62.3370 O.2    29  GLY29      -0.2714
     20  N         24.6940   37.3800   63.9460 N.am   30  LYS30      -0.1963
     21  CA        24.0460   36.6390   65.0080 C.3    30  LYS30       0.1728
     22  C         22.5670   36.9330   65.1770 C.2    30  LYS30       0.2617
     23  O         21.7930   36.0130   65.4190 O.2    30  LYS30      -0.2715
     24  CB        24.7540   36.9200   66.3030 C.3    30  LYS30       0.0311
     25  CG        26.2220   36.5540   66.2650 C.3    30  LYS30       0.0038
     26  CD        26.8060   36.7980   67.6690 C.3    30  LYS30       0.0206
     27  CE        26.8780   38.3040   68.0060 C.3    30  LYS30       0.1093
     28  NZ        27.5880   39.1140   66.9800 N.3    30  LYS30      -0.1314
     29  N         22.1780   38.2020   65.0650 N.am   31  THR31      -0.1937
     30  CA        20.7620   38.5680   65.0980 C.3    31  THR31       0.2028
     31  C         20.0760   37.8400   63.9650 C.2    31  THR31       0.2642
     32  O         19.0550   37.1840   64.1740 O.2    31  THR31      -0.2714
     33  CB        20.5270   40.0900   64.9160 C.3    31  THR31       0.1808
     34  OG1       21.3950   40.8300   65.7700 O.3    31  THR31      -0.2208
     35  CG2       19.0820   40.4710   65.2320 C.3    31  THR31       0.0379
     36  N         20.6430   37.9530   62.7700 N.am   32  THR32      -0.1950
     37  CA        20.0710   37.3140   61.5830 C.3    32  THR32       0.1897
     38  C         19.9570   35.7820   61.7100 C.2    32  THR32       0.2313
     39  O         18.8990   35.2050   61.4430 O.2    32  THR32      -0.2863
     40  CB        20.8690   37.6900   60.3220 C.3    32  THR32       0.1794
     41  OG1       21.0340   39.1140   60.2580 O.3    32  THR32      -0.2208
     42  CG2       20.1230   37.2370   59.1220 C.3    32  THR32       0.0378
     43  N         22.2230   41.4440   73.4530 N.3    56  ASP56      -0.1239
     44  CA        22.8030   42.5810   72.7740 C.3    56  ASP56       0.1674
     45  C         22.2920   43.8880   73.3840 C.2    56  ASP56       0.2266
     46  O         21.0830   44.0520   73.5540 O.2    56  ASP56      -0.2867
     47  CB        22.4180   42.5230   71.2890 C.3    56  ASP56       0.1410
     48  CG        23.3750   43.2800   70.4020 C.2    56  ASP56       0.3668
     49  OD1       24.2220   44.0370   70.9250 O.co2  56  ASP56      -0.2456
     50  OD2       23.2780   43.1080   69.1620 O.co2  56  ASP56      -0.2456
     51  N         18.2380   44.9520   68.7140 N.3    60  ASN60      -0.1240
     52  CA        18.5330   44.1060   67.5600 C.3    60  ASN60       0.1653
     53  C         17.3390   43.2810   67.0870 C.2    60  ASN60       0.2266
     54  O         17.0170   43.2690   65.8940 O.2    60  ASN60      -0.2867
     55  CB        19.7970   43.2470   67.7480 C.3    60  ASN60       0.1155
     56  CG        19.7330   42.3330   68.9510 C.2    60  ASN60       0.2627
     57  OD1       19.2210   42.7050   70.0050 O.2    60  ASN60      -0.2716
     58  ND2       20.2750   41.1230   68.8040 N.am   60  ASN60      -0.0877
     59  N         20.8320   34.6530   71.4080 N.3    96  ASP96      -0.1239
     60  CA        21.8530   35.5250   70.8110 C.3    96  ASP96       0.1674
     61  C         22.6880   36.1170   71.9380 C.2    96  ASP96       0.2266
     62  O         22.1930   36.9160   72.7380 O.2    96  ASP96      -0.2867
     63  CB        21.2080   36.6470   69.9920 C.3    96  ASP96       0.1410
     64  CG        22.2290   37.6440   69.4080 C.2    96  ASP96       0.3668
     65  OD1       23.4680   37.4610   69.5240 O.co2  96  ASP96      -0.2456
     66  OD2       21.7680   38.6430   68.8300 O.co2  96  ASP96      -0.2456
     67  N         29.0620   33.5400   57.2110 N.3   157  ASN157     -0.1225
     68  CA        28.0210   34.3860   56.6720 C.3   157  ASN157      0.1785
     69  C         28.6160   35.4890   55.8010 C.2   157  ASN157      0.2597
     70  O         29.8250   35.7770   55.8900 O.2   157  ASN157     -0.2718
     71  CB        27.1840   34.9430   57.8330 C.3   157  ASN157      0.1169
     72  CG        25.9780   35.7640   57.3780 C.2   157  ASN157      0.2627
     73  OD1       25.4030   35.5390   56.2990 O.2   157  ASN157     -0.2716
     74  ND2       25.6040   36.7490   58.2000 N.am  157  ASN157     -0.0877
     75  N         27.7550   36.0590   54.9480 N.am  158  GLN158     -0.1979
     76  CA        28.0400   37.2220   54.1090 C.3   158  GLN158      0.1601
     77  C         29.0060   36.9100   52.9550 C.2   158  GLN158      0.2287
     78  O         29.8090   37.7500   52.5450 O.2   158  GLN158     -0.2864
     79  CB        28.5070   38.4200   54.9490 C.3   158  GLN158      0.0394
     80  CG        27.5410   38.7770   56.1030 C.3   158  GLN158      0.0908
     81  CD        28.0210   39.9120   56.9580 C.2   158  GLN158      0.2608
     82  OE1       28.6640   40.8330   56.4700 O.2   158  GLN158     -0.2717
     83  NE2       27.7130   39.8550   58.2590 N.am  158  GLN158     -0.0878
     84  N         25.1500   33.0670   51.8810 N.3   194  PRO194     -0.2102
     85  CA        25.5120   34.2000   51.0560 C.3   194  PRO194      0.1504
     86  C         25.0880   35.5730   51.6100 C.2   194  PRO194      0.2576
     87  O         24.0740   35.6970   52.3170 O.2   194  PRO194     -0.2718
     88  CB        24.7710   33.9050   49.7550 C.3   194  PRO194      0.0282
     89  CG        23.4870   33.2560   50.2200 C.3   194  PRO194      0.0208
     90  CD        23.9100   32.4050   51.4190 C.3   194  PRO194      0.0893
     91  N         25.8960   36.5810   51.3040 N.am  195  LEU195     -0.1966
     92  CA        25.4690   37.9790   51.3470 C.3   195  LEU195      0.1728
     93  C         24.2920   38.2530   50.4210 C.2   195  LEU195      0.2616
     94  O         24.3510   37.9730   49.2100 O.2   195  LEU195     -0.2715
     95  CB        26.6210   38.9140   50.9750 C.3   195  LEU195      0.0311
     96  CG        26.3200   40.4050   51.2010 C.3   195  LEU195      0.0022
     97  CD1       26.2320   40.7070   52.7200 C.3   195  LEU195      0.0001
     98  CD2       27.4090   41.2150   50.5790 C.3   195  LEU195      0.0001
     99  N         23.2420   38.8530   50.9710 N.am  196  LEU196     -0.1977
    100  CA        22.0560   39.1590   50.1850 C.3   196  LEU196      0.1596
    101  C         22.0440   40.6180   49.7090 C.2   196  LEU196      0.2287
    102  O         22.8970   41.4220   50.1010 O.2   196  LEU196     -0.2864
    103  CB        20.7800   38.7670   50.9530 C.3   196  LEU196      0.0297
    104  CG        20.6550   37.3000   51.4070 C.3   196  LEU196      0.0022
    105  CD1       19.2560   37.0200   51.9060 C.3   196  LEU196      0.0001
    106  CD2       21.0160   36.3110   50.2900 C.3   196  LEU196      0.0001
    107  N         20.3000   43.1290   50.3370 N.3   198  CYS198     -0.1221
    108  CA        19.9210   44.1420   51.3180 C.3   198  CYS198      0.1808
    109  C         19.8680   43.4830   52.6780 C.2   198  CYS198      0.2601
    110  O         20.0650   42.2710   52.8000 O.2   198  CYS198     -0.2717
    111  CB        18.5680   44.7880   50.9880 C.3   198  CYS198      0.0970
    112  SG        17.1650   43.6620   51.0220 S.3   198  CYS198     -0.0800
    113  N         19.6860   44.3130   53.7120 N.am  199  GLU199     -0.1965
    114  CA        19.5660   43.8640   55.0910 C.3   199  GLU199      0.1733
    115  C         18.4050   42.8820   55.2430 C.2   199  GLU199      0.2616
    116  O         17.4640   42.8820   54.4480 O.2   199  GLU199     -0.2715
    117  CB        19.3420   45.0650   56.0130 C.3   199  GLU199      0.0429
    118  CG        18.1230   45.9090   55.5870 C.3   199  GLU199      0.1163
    119  CD        18.0050   47.2480   56.2840 C.2   199  GLU199      0.3649
    120  OE1       18.7270   47.4860   57.2870 O.co2 199  GLU199     -0.2457
    121  OE2       17.1360   48.0380   55.8590 O.co2 199  GLU199     -0.2457
    122  N         18.4500   42.0650   56.2890 N.am  200  ILE200     -0.1963
    123  CA        17.4700   40.9840   56.4290 C.3   200  ILE200      0.1727
    124  C         16.5010   41.3300   57.5500 C.2   200  ILE200      0.2616
    125  O         16.8450   41.1640   58.7070 O.2   200  ILE200     -0.2715
    126  CB        18.1550   39.6240   56.7740 C.3   200  ILE200      0.0290
    127  CG1       19.4110   39.3600   55.9150 C.3   200  ILE200      0.0022
    128  CG2       17.1240   38.4700   56.7320 C.3   200  ILE200      0.0023
    129  CD1       19.2340   39.5010   54.4360 C.3   200  ILE200      0.0001
    130  N         15.3130   41.8240   57.2050 N.am  201  ARG201     -0.1977
    131  CA        14.3870   42.3480   58.2100 C.3   201  ARG201      0.1597
    132  C         12.9940   41.8630   57.9040 C.2   201  ARG201      0.2287
    133  O         12.6070   41.7660   56.7260 O.2   201  ARG201     -0.2864
    134  CB        14.3920   43.8800   58.2310 C.3   201  ARG201      0.0334
    135  CG        15.7450   44.4660   58.5500 C.3   201  ARG201      0.0492
    136  CD        15.7160   45.9860   58.6230 C.3   201  ARG201      0.2205
    137  NE        14.9630   46.4920   59.7760 N.pl3 201  ARG201     -0.0865
    138  CZ        13.9610   47.3590   59.6660 C.cat 201  ARG201      0.5346
    139  NH1       13.6090   47.8220   58.4670 N.pl3 201  ARG201      0.1354
    140  NH2       13.3150   47.7750   60.7260 N.pl3 201  ARG201      0.1354
    141  N         15.7990   33.6110   54.4730 N.3   209  PHE209     -0.1241
    142  CA        17.2080   33.4240   54.8050 C.3   209  PHE209      0.1605
    143  C         17.4310   32.0380   55.4220 C.2   209  PHE209      0.2264
    144  O         18.3760   31.3300   55.0560 O.2   209  PHE209     -0.2867
    145  CB        17.6930   34.5400   55.7400 C.3   209  PHE209      0.0534
    146  CG        19.1790   34.5120   56.0310 C.ar  209  PHE209     -0.0203
    147  CD1       20.1040   34.8380   55.0520 C.ar  209  PHE209     -0.0042
    148  CD2       19.6460   34.1810   57.3050 C.ar  209  PHE209     -0.0042
    149  CE1       21.4790   34.8120   55.3210 C.ar  209  PHE209     -0.0003
    150  CE2       21.0160   34.1630   57.5880 C.ar  209  PHE209     -0.0003
    151  CZ        21.9270   34.4790   56.6030 C.ar  209  PHE209     -0.0000
@<TRIPOS>BOND
     1    94    93    2
     2   101   102    2
     3   101   100    1
     4    88    89    1
     5    88    85    1
     6   100   103    1
     7   100    99    1
     8    89    90    1
     9   106   104    1
    10   107   108    1
    11    93    99   am
    12    93    92    1
    13    98    96    1
    14   103   104    1
    15    95    96    1
    16    95    92    1
    17   111   112    1
    18   111   108    1
    19    85    86    1
    20    85    84    1
    21    96    97    1
    22    91    92    1
    23    91    86   am
    24   108   109    1
    25   104   105    1
    26    90    84    1
    27    86    87    2
    28    78    77    2
    29   109   110    2
    30   109   113   am
    31    77    76    1
    32   113   114    1
    33    76    75    1
    34    76    79    1
    35   129   127    1
    36   116   115    2
    37   141   142    1
    38   142   143    1
    39   142   145    1
    40    75    69   am
    41    79    80    1
    42   147   149   ar
    43   147   146   ar
    44   144   143    2
    45   114   115    1
    46   114   117    1
    47   115   122   am
    48   149   151   ar
    49   118   117    1
    50   118   119    1
    51   145   146    1
    52    69    70    2
    53    69    68    1
    54   121   119   ar
    55   127   126    1
    56   146   148   ar
    57    80    81    1
    58   119   120   ar
    59   122   123    1
    60    73    72    2
    61   123   126    1
    62   123   124    1
    63    82    81    2
    64   151   150   ar
    65    68    67    1
    66    68    71    1
    67   133   132    2
    68   128   126    1
    69    81    83   am
    70   130   124   am
    71   130   131    1
    72   148   150   ar
    73    72    71    1
    74    72    74   am
    75   124   125    2
    76   132   131    1
    77   131   134    1
    78   134   135    1
    79   139   138    1
    80   135   136    1
    81   136   137    1
    82    42    40    1
    83   138   137    2
    84   138   140    1
    85    41    40    1
    86    12    11    2
    87    40    37    1
    88     8     7    2
    89    11    10    1
    90    11    16   am
    91    39    38    2
    92    37    38    1
    93    37    36    1
    94    17    16    1
    95    17    18    1
    96    10    13    1
    97    10     9    1
    98     7     9   am
    99     7     6    1
   100    13    14    1
   101    13    15    1
   102    19    18    2
   103    18    20   am
   104    36    31   am
   105     6     5    1
   106    20    21    1
   107    31    32    2
   108    31    30    1
   109     4     3    2
   110     5     3   am
   111    33    30    1
   112    33    35    1
   113    33    34    1
   114     3     2    1
   115    21    22    1
   116    21    24    1
   117    29    30    1
   118    29    22   am
   119    22    23    2
   120    54    53    2
   121    25    24    1
   122    25    26    1
   123     2     1    1
   124    28    27    1
   125    53    52    1
   126    52    55    1
   127    52    51    1
   128    26    27    1
   129    55    56    1
   130    58    56   am
   131    66    64   ar
   132    56    57    2
   133    50    48   ar
   134    64    65   ar
   135    64    63    1
   136    63    60    1
   137    48    49   ar
   138    48    47    1
   139    60    59    1
   140    60    61    1
   141    47    44    1
   142    61    62    2
   143    44    45    1
   144    44    43    1
   145    45    46    2
