@<TRIPOS>MOLECULE
tmp/3io7A00.pdb
 155 144 0 0 0
SMALL
GASTEIGER

@<TRIPOS>ATOM
      1  N         14.1920   10.4800   10.7470 N.3    14  LEU14      -0.1231
      2  CA        15.0430   10.4770    9.5560 C.3    14  LEU14       0.1696
      3  C         15.8420   11.7680    9.4290 C.2    14  LEU14       0.2632
      4  O         17.0070   11.7330    9.0470 O.2    14  LEU14      -0.2714
      5  CB        14.2340   10.2070    8.2770 C.3    14  LEU14       0.0284
      6  CG        13.6670    8.8020    8.0440 C.3    14  LEU14       0.0019
      7  CD1       12.7450    8.8020    6.8300 C.3    14  LEU14       0.0001
      8  CD2       14.7730    7.7660    7.8730 C.3    14  LEU14       0.0001
      9  N         15.2230   12.8990    9.7510 N.am   15  GLY15      -0.1718
     10  CA        15.9380   14.1680    9.7320 C.2    15  GLY15       0.1480
     11  C         15.1060   15.4160    9.9560 C.2    15  GLY15       0.2820
     12  O         13.8800   15.3480   10.0990 O.2    15  GLY15      -0.2669
     13  N         15.7950   16.5570    9.9850 N.am   16  LYS16      -0.1929
     14  CA        15.1620   17.8760   10.1280 C.3    16  LYS16       0.1731
     15  C         15.3110   18.6960    8.8420 C.2    16  LYS16       0.2616
     16  O         16.3970   18.7670    8.2690 O.2    16  LYS16      -0.2715
     17  CB        15.7450   18.6470   11.3280 C.3    16  LYS16       0.0312
     18  CG        15.8050   17.8530   12.6290 C.3    16  LYS16       0.0038
     19  CD        14.4640   17.8040   13.3540 C.3    16  LYS16       0.0206
     20  CE        14.3010   19.0050   14.2900 C.3    16  LYS16       0.1093
     21  NZ        13.0570   18.9360   15.0990 N.3    16  LYS16      -0.1314
     22  N         14.2100   19.3030    8.3990 N.am   17  GLY17      -0.1955
     23  CA        14.1890   20.1530    7.2040 C.3    17  GLY17       0.1869
     24  C         14.9990   21.4330    7.3430 C.2    17  GLY17       0.2309
     25  O         14.5060   22.5310    7.0690 O.2    17  GLY17      -0.2863
     26  N         11.2670   14.7310    9.3050 N.3    20  VAL20      -0.1245
     27  CA        10.9810   13.6730    8.3490 C.3    20  VAL20       0.1561
     28  C         11.1180   12.3170    9.0310 C.2    20  VAL20       0.2260
     29  O         12.1680   12.0000    9.6080 O.2    20  VAL20      -0.2867
     30  CB        11.8960   13.7480    7.1060 C.3    20  VAL20       0.0252
     31  CG1       11.5690   12.6360    6.1410 C.3    20  VAL20       0.0019
     32  CG2       11.7520   15.0830    6.4230 C.3    20  VAL20       0.0019
     33  N          7.3960    7.8610    4.0010 N.3    37  ALA37      -0.1245
     34  CA         8.0750    8.9490    4.6810 C.3    37  ALA37       0.1562
     35  C          7.0950   10.0740    4.9510 C.2    37  ALA37       0.2260
     36  O          6.3300   10.4730    4.0840 O.2    37  ALA37      -0.2867
     37  CB         9.2690    9.4440    3.8680 C.3    37  ALA37       0.0290
     38  N          6.4690   13.9500    6.2830 N.3    39  LYS39      -0.1245
     39  CA         6.9880   15.2620    6.6390 C.3    39  LYS39       0.1561
     40  C          5.9180   16.0160    7.4230 C.2    39  LYS39       0.2260
     41  O          4.7750   16.1560    6.9770 O.2    39  LYS39      -0.2867
     42  CB         7.4440   16.0420    5.4030 C.3    39  LYS39       0.0271
     43  CG         8.2030   17.3310    5.7390 C.3    39  LYS39       0.0035
     44  CD         8.7030   18.0650    4.4980 C.3    39  LYS39       0.0206
     45  CE         9.4340   19.3320    4.8820 C.3    39  LYS39       0.1093
     46  NZ         9.9320   20.0400    3.6840 N.3    39  LYS39      -0.1314
     47  N         10.7550   12.9310   -5.9130 N.3    68  VAL68      -0.1245
     48  CA        10.1490   11.9870   -4.9660 C.3    68  VAL68       0.1561
     49  C          8.6190   12.0000   -5.1230 C.2    68  VAL68       0.2260
     50  O          8.0130   13.0520   -5.3510 O.2    68  VAL68      -0.2867
     51  CB        10.6260   12.2410   -3.4690 C.3    68  VAL68       0.0252
     52  CG1        9.9600   13.4770   -2.8430 C.3    68  VAL68       0.0019
     53  CG2       10.3870   11.0210   -2.6100 C.3    68  VAL68       0.0019
     54  N          5.0440   10.6350    1.6320 N.3    83  MET83      -0.1230
     55  CA         5.8650   10.4760    0.4330 C.3    83  MET83       0.1702
     56  C          6.3810    9.0620    0.3520 C.2    83  MET83       0.2592
     57  O          6.4020    8.3390    1.3520 O.2    83  MET83      -0.2718
     58  CB         7.0550   11.4400    0.4500 C.3    83  MET83       0.0401
     59  CG         6.6880   12.8900    0.2380 C.3    83  MET83       0.0596
     60  SD         7.9790   14.0280    0.7630 S.3    83  MET83      -0.1393
     61  CE         8.1700   13.5810    2.4940 C.3    83  MET83       0.0692
     62  N          6.8060    8.6620   -0.8410 N.am   84  GLU84      -0.1966
     63  CA         7.4530    7.3730   -0.9790 C.3    84  GLU84       0.1733
     64  C          8.6690    7.3490   -0.0520 C.2    84  GLU84       0.2616
     65  O          9.2830    8.3870    0.2090 O.2    84  GLU84      -0.2715
     66  CB         7.8360    7.0720   -2.4350 C.3    84  GLU84       0.0429
     67  CG         8.8920    8.0010   -3.0180 C.3    84  GLU84       0.1163
     68  CD         9.2640    7.6640   -4.4470 C.2    84  GLU84       0.3649
     69  OE1        9.2340    6.4740   -4.8250 O.co2  84  GLU84      -0.2457
     70  OE2        9.5900    8.5970   -5.2030 O.co2  84  GLU84      -0.2457
     71  N          8.9640    6.1700    0.4910 N.am   85  TYR85      -0.1960
     72  CA        10.1790    5.9750    1.2480 C.3    85  TYR85       0.1771
     73  C         11.2580    5.4690    0.2900 C.2    85  TYR85       0.2619
     74  O         11.1050    4.3910   -0.3090 O.2    85  TYR85      -0.2715
     75  CB         9.9710    4.9860    2.3900 C.3    85  TYR85       0.0574
     76  CG        11.2490    4.7040    3.1430 C.ar   85  TYR85      -0.0198
     77  CD1       11.8300    5.6790    3.9530 C.ar   85  TYR85      -0.0009
     78  CD2       11.8890    3.4670    3.0300 C.ar   85  TYR85      -0.0009
     79  CE1       13.0020    5.4290    4.6340 C.ar   85  TYR85       0.0417
     80  CE2       13.0500    3.2050    3.7070 C.ar   85  TYR85       0.0417
     81  CZ        13.6160    4.1910    4.5040 C.ar   85  TYR85       0.1957
     82  OH        14.8040    3.9380    5.1840 O.3    85  TYR85      -0.2866
     83  N         12.3310    6.2590    0.1540 N.am   86  LEU86      -0.1977
     84  CA        13.4740    5.9380   -0.7140 C.3    86  LEU86       0.1596
     85  C         14.5550    5.2790    0.1250 C.2    86  LEU86       0.2287
     86  O         15.2500    5.9320    0.8920 O.2    86  LEU86      -0.2864
     87  CB        13.9940    7.1850   -1.4520 C.3    86  LEU86       0.0297
     88  CG        12.9860    7.8470   -2.4020 C.3    86  LEU86       0.0022
     89  CD1       13.5580    9.0400   -3.1430 C.3    86  LEU86       0.0001
     90  CD2       12.4790    6.8260   -3.3770 C.3    86  LEU86       0.0001
     91  N         18.3590    6.1870    1.4160 N.3    89  GLY89      -0.1210
     92  CA        18.5780    7.4110    2.1800 C.3    89  GLY89       0.1956
     93  C         19.1420    8.6180    1.4570 C.2    89  GLY89       0.2612
     94  O         18.9720    8.7710    0.2450 O.2    89  GLY89      -0.2717
     95  N         19.7930    9.4860    2.2330 N.am   90  SER90      -0.1952
     96  CA        20.3520   10.7570    1.7500 C.3    90  SER90       0.1924
     97  C         21.5830   10.5590    0.8850 C.2    90  SER90       0.2314
     98  O         22.4690    9.7850    1.2360 O.2    90  SER90      -0.2863
     99  CB        20.7410   11.6420    2.9240 C.3    90  SER90       0.2116
    100  OG        21.5100   12.7420    2.4720 O.3    90  SER90      -0.2180
    101  N         24.9900   10.9790    2.5710 N.3    93  ASP93      -0.1239
    102  CA        25.4500    9.8630    3.3930 C.3    93  ASP93       0.1674
    103  C         25.8330    8.6520    2.5540 C.2    93  ASP93       0.2266
    104  O         26.8000    7.9620    2.8630 O.2    93  ASP93      -0.2867
    105  CB        24.3810    9.5000    4.4270 C.3    93  ASP93       0.1410
    106  CG        24.0010   10.6910    5.3210 C.2    93  ASP93       0.3668
    107  OD1       24.8940   11.5150    5.6480 O.co2  93  ASP93      -0.2456
    108  OD2       22.8060   10.8110    5.6890 O.co2  93  ASP93      -0.2456
    109  N         17.1750   25.6970   -3.1360 N.3   130  ASP130     -0.1239
    110  CA        17.7760   24.9130   -2.0590 C.3   130  ASP130      0.1674
    111  C         18.4510   23.6310   -2.5660 C.2   130  ASP130      0.2266
    112  O         18.5390   22.6480   -1.8390 O.2   130  ASP130     -0.2867
    113  CB        16.7020   24.5980   -1.0140 C.3   130  ASP130      0.1410
    114  CG        17.2700   24.1060    0.3110 C.2   130  ASP130      0.3668
    115  OD1       18.3740   24.5380    0.7190 O.co2 130  ASP130     -0.2456
    116  OD2       16.5740   23.2860    0.9580 O.co2 130  ASP130     -0.2456
    117  N         22.1610   17.2030    0.2940 N.3   134  ARG134     -0.1231
    118  CA        21.3220   16.7560    1.4300 C.3   134  ARG134      0.1694
    119  C         19.8100   16.9310    1.1860 C.2   134  ARG134      0.2592
    120  O         18.9980   16.7110    2.0850 O.2   134  ARG134     -0.2718
    121  CB        21.7250   17.4010    2.7680 C.3   134  ARG134      0.0321
    122  CG        21.6210   18.8870    2.7870 C.3   134  ARG134      0.0489
    123  CD        21.0540   19.3970    4.1010 C.3   134  ARG134      0.2205
    124  NE        20.1310   20.4950    3.7960 N.pl3 134  ARG134     -0.0865
    125  CZ        20.5040   21.7420    3.5140 C.cat 134  ARG134      0.5346
    126  NH1       21.7900   22.0780    3.5360 N.pl3 134  ARG134      0.1354
    127  NH2       19.5900   22.6550    3.2130 N.pl3 134  ARG134      0.1354
    128  N         19.4440   17.3330   -0.0220 N.am  135  ASN135     -0.1974
    129  CA        18.0520   17.3830   -0.4300 C.3   135  ASN135      0.1688
    130  C         17.8210   16.3940   -1.5900 C.2   135  ASN135      0.2292
    131  O         16.7230   16.3060   -2.1450 O.2   135  ASN135     -0.2864
    132  CB        17.6500   18.8260   -0.7800 C.3   135  ASN135      0.1181
    133  CG        17.5170   19.7190    0.4540 C.2   135  ASN135      0.2629
    134  OD1       16.9650   19.3100    1.4670 O.2   135  ASN135     -0.2716
    135  ND2       17.9980   20.9470    0.3600 N.am  135  ASN135     -0.0877
    136  N         17.9450   12.2890   -2.6770 N.3   137  LEU137     -0.1245
    137  CA        17.8100   10.9850   -2.0380 C.3   137  LEU137      0.1561
    138  C         18.0980    9.8640   -3.0190 C.2   137  LEU137      0.2260
    139  O         18.0350   10.0620   -4.2400 O.2   137  LEU137     -0.2867
    140  CB        16.4030   10.8130   -1.4450 C.3   137  LEU137      0.0270
    141  CG        15.8700   11.8880   -0.4910 C.3   137  LEU137      0.0019
    142  CD1       14.3420   11.8150   -0.4100 C.3   137  LEU137      0.0001
    143  CD2       16.5260   11.7680    0.8980 C.3   137  LEU137      0.0001
    144  N         14.3770   15.3490   -3.3000 N.3   147  GLY147     -0.1210
    145  CA        13.5270   14.8420   -2.2300 C.3   147  GLY147      0.1956
    146  C         12.8780   15.8610   -1.3150 C.2   147  GLY147      0.2611
    147  O         12.1560   15.4930   -0.3960 O.2   147  GLY147     -0.2717
    148  N         13.1550   17.1420   -1.5410 N.am  148  ASP148     -0.1973
    149  CA        12.5400   18.1970   -0.7530 C.3   148  ASP148      0.1709
    150  C         12.2930   19.4380   -1.5870 C.2   148  ASP148      0.2293
    151  O         13.0360   19.7340   -2.5470 O.2   148  ASP148     -0.2864
    152  CB        13.3750   18.5640    0.4570 C.3   148  ASP148      0.1436
    153  CG        12.6080   19.4290    1.4460 C.2   148  ASP148      0.3671
    154  OD1       11.7820   18.8740    2.2030 O.co2 148  ASP148     -0.2456
    155  OD2       12.8290   20.6610    1.4740 O.co2 148  ASP148     -0.2456
@<TRIPOS>BOND
     1    47    48    1
     2    50    49    2
     3    70    68   ar
     4    49    48    1
     5    48    51    1
     6    69    68   ar
     7    68    67    1
     8   139   138    2
     9    51    52    1
    10    51    53    1
    11    90    88    1
    12   144   145    1
    13    89    88    1
    14   109   110    1
    15   138   137    1
    16    67    66    1
    17   136   137    1
    18   111   110    1
    19   111   112    2
    20   151   150    2
    21    66    63    1
    22    88    87    1
    23   145   146    1
    24   131   130    2
    25   110   113    1
    26   137   140    1
    27   130   129    1
    28   150   149    1
    29   148   146   am
    30   148   149    1
    31    87    84    1
    32   140   141    1
    33   146   147    2
    34   113   114    1
    35    63    62    1
    36    63    64    1
    37    62    56   am
    38   132   129    1
    39   132   133    1
    40   149   152    1
    41    84    85    1
    42    84    83    1
    43   141   142    1
    44   141   143    1
    45   129   128    1
    46    74    73    2
    47    64    65    2
    48    64    71   am
    49   128   119   am
    50    85    86    2
    51    83    73   am
    52    59    58    1
    53    59    60    1
    54    94    93    2
    55    73    72    1
    56   117   118    1
    57   114   115   ar
    58   114   116   ar
    59    56    55    1
    60    56    57    2
    61   135   133   am
    62    55    58    1
    63    55    54    1
    64   133   134    2
    65   152   153    1
    66    71    72    1
    67    60    61    1
    68    97    98    2
    69    97    96    1
    70   119   118    1
    71   119   120    2
    72    72    75    1
    73    91    92    1
    74   118   121    1
    75   153   155   ar
    76   153   154   ar
    77    93    92    1
    78    93    95   am
    79    96    95    1
    80    96    99    1
    81    75    76    1
    82   100    99    1
    83   103   104    2
    84   103   102    1
    85   101   102    1
    86   121   122    1
    87   122   123    1
    88    78    76   ar
    89    78    80   ar
    90    76    77   ar
    91   127   125    1
    92   102   105    1
    93   125   126    1
    94   125   124    2
    95    46    45    1
    96    80    81   ar
    97   124   123    1
    98    37    34    1
    99    77    79   ar
   100    33    34    1
   101    36    35    2
   102   105   106    1
   103    44    45    1
   104    44    43    1
   105    81    79   ar
   106    81    82    1
   107    34    35    1
   108   106   107   ar
   109   106   108   ar
   110    42    43    1
   111    42    39    1
   112    31    30    1
   113    38    39    1
   114    32    30    1
   115    39    40    1
   116     7     6    1
   117    41    40    2
   118    25    24    2
   119    30    27    1
   120    23    24    1
   121    23    22    1
   122     8     6    1
   123     6     5    1
   124    16    15    2
   125     5     2    1
   126    27    28    1
   127    27    26    1
   128    22    15   am
   129    15    14    1
   130    28    29    2
   131     4     3    2
   132     3     2    1
   133     3     9    1
   134     2     1    1
   135    10     9    2
   136    10    11    1
   137    11    13   am
   138    11    12    2
   139    13    14    1
   140    14    17    1
   141    17    18    1
   142    18    19    1
   143    19    20    1
   144    20    21    1
