@<TRIPOS>MOLECULE
tmp/3iobA00.pdb
 169 165 0 0 0
SMALL
GASTEIGER

@<TRIPOS>ATOM
      1  N          8.5200   11.3300    6.0970 N.3    36  PRO36      -0.2102
      2  CA         9.6790   11.5970    6.9590 C.3    36  PRO36       0.1504
      3  C         10.9180   11.9480    6.1450 C.2    36  PRO36       0.2576
      4  O         11.2850   11.2230    5.2000 O.2    36  PRO36      -0.2718
      5  CB         9.8970   10.2580    7.6900 C.3    36  PRO36       0.0282
      6  CG         8.6290    9.4710    7.4390 C.3    36  PRO36       0.0208
      7  CD         8.1990    9.8960    6.0660 C.3    36  PRO36       0.0893
      8  N         11.5480   13.0720    6.4900 N.am   37  THR37      -0.1939
      9  CA        12.7820   13.4740    5.7980 C.3    37  THR37       0.2028
     10  C         13.8390   13.9690    6.8030 C.2    37  THR37       0.2642
     11  O         13.5360   14.2590    7.9600 O.2    37  THR37      -0.2714
     12  CB        12.5430   14.6240    4.7540 C.3    37  THR37       0.1808
     13  OG1       12.4950   15.8840    5.4270 O.3    37  THR37      -0.2208
     14  CG2       11.2350   14.4330    3.9430 C.3    37  THR37       0.0379
     15  N         15.0740   14.0850    6.3170 N.am   38  MET38      -0.1976
     16  CA        16.1210   14.7840    7.0590 C.3    38  MET38       0.1605
     17  C         16.4200   16.1650    6.4400 C.2    38  MET38       0.2287
     18  O         17.5190   16.6980    6.5720 O.2    38  MET38      -0.2864
     19  CB        17.3550   13.8850    7.1160 C.3    38  MET38       0.0413
     20  CG        17.0250   12.5780    7.8520 C.3    38  MET38       0.0598
     21  SD        18.3770   11.8290    8.7900 S.3    38  MET38      -0.1393
     22  CE        19.5080   11.4870    7.4570 C.3    38  MET38       0.0692
     23  N         15.0560   17.9330   -2.1870 N.3    42  HIS42      -0.1241
     24  CA        15.2060   17.9880   -3.6390 C.3    42  HIS42       0.1621
     25  C         13.9540   17.3800   -4.2990 C.2    42  HIS42       0.2264
     26  O         12.9900   17.0290   -3.6150 O.2    42  HIS42      -0.2867
     27  CB        16.4950   17.2590   -4.0600 C.3    42  HIS42       0.0745
     28  CG        16.5970   15.8520   -3.5510 C.ar   42  HIS42       0.0817
     29  ND1       15.7550   14.8440   -3.9670 N.ar   42  HIS42      -0.2268
     30  CD2       17.4630   15.2810   -2.6810 C.ar   42  HIS42       0.1154
     31  CE1       16.0830   13.7160   -3.3630 C.ar   42  HIS42       0.1986
     32  NE2       17.1200   13.9530   -2.5800 N.ar   42  HIS42      -0.2212
     33  N         13.2220   14.5460   -5.5600 N.3    44  GLY44      -0.1210
     34  CA        12.9250   13.2060   -5.0560 C.3    44  GLY44       0.1956
     35  C         12.0040   13.2550   -3.8410 C.2    44  GLY44       0.2611
     36  O         11.0020   12.5430   -3.7800 O.2    44  GLY44      -0.2717
     37  N         12.3360   14.1030   -2.8760 N.am   45  HIS45      -0.1975
     38  CA        11.4250   14.3490   -1.7440 C.3    45  HIS45       0.1656
     39  C         10.0890   14.9020   -2.2230 C.2    45  HIS45       0.2291
     40  O          9.0280   14.4870   -1.7330 O.2    45  HIS45      -0.2864
     41  CB        12.0510   15.3100   -0.7390 C.3    45  HIS45       0.0771
     42  CG        13.3460   14.8180   -0.1790 C.ar   45  HIS45       0.0820
     43  ND1       14.5500   15.4040   -0.4920 N.ar   45  HIS45      -0.2267
     44  CD2       13.6330   13.7750    0.6390 C.ar   45  HIS45       0.1154
     45  CE1       15.5230   14.7730    0.1410 C.ar   45  HIS45       0.1986
     46  NE2       14.9960   13.7800    0.8340 N.ar   45  HIS45      -0.2212
     47  N          7.6110   12.3820   -3.1940 N.3    48  LEU48      -0.1245
     48  CA         6.9480   11.7740   -2.0490 C.3    48  LEU48       0.1561
     49  C          5.7730   12.6440   -1.5990 C.2    48  LEU48       0.2260
     50  O          4.6650   12.1280   -1.3350 O.2    48  LEU48      -0.2867
     51  CB         7.9220   11.5980   -0.8720 C.3    48  LEU48       0.0270
     52  CG         9.2100   10.7880   -1.0330 C.3    48  LEU48       0.0019
     53  CD1        9.9360   10.6870    0.3140 C.3    48  LEU48       0.0001
     54  CD2        8.9200    9.4060   -1.5100 C.3    48  LEU48       0.0001
     55  N         21.0440    7.7480   13.8700 N.3    70  GLN70      -0.1245
     56  CA        21.3860    6.9610   12.6900 C.3    70  GLN70       0.1566
     57  C         22.7590    7.3360   12.0890 C.2    70  GLN70       0.2260
     58  O         23.1310    6.8280   11.0230 O.2    70  GLN70      -0.2867
     59  CB        20.2870    7.0320   11.6400 C.3    70  GLN70       0.0367
     60  CG        20.0220    8.4140   11.0130 C.3    70  GLN70       0.0905
     61  CD        18.7750    8.3880   10.1310 C.2    70  GLN70       0.2608
     62  OE1       17.6560    8.3320   10.6430 O.2    70  GLN70      -0.2717
     63  NE2       18.9630    8.4050    8.8050 N.am   70  GLN70      -0.0878
     64  N         26.1080   16.7390    7.5260 N.3    80  TYR80      -0.1241
     65  CA        24.8620   16.5760    6.7900 C.3    80  TYR80       0.1605
     66  C         24.3140   17.9500    6.3440 C.2    80  TYR80       0.2264
     67  O         24.2800   18.8610    7.1630 O.2    80  TYR80      -0.2867
     68  CB        23.8210   15.8320    7.6300 C.3    80  TYR80       0.0534
     69  CG        22.7780   15.2150    6.7380 C.ar   80  TYR80      -0.0201
     70  CD1       23.0160   13.9860    6.1140 C.ar   80  TYR80      -0.0009
     71  CD2       21.5800   15.8810    6.4610 C.ar   80  TYR80      -0.0009
     72  CE1       22.0640   13.4190    5.2420 C.ar   80  TYR80       0.0417
     73  CE2       20.6270   15.3200    5.5930 C.ar   80  TYR80       0.0417
     74  CZ        20.8840   14.0920    5.0020 C.ar   80  TYR80       0.1957
     75  OH        19.9540   13.5420    4.1540 O.3    80  TYR80      -0.2866
     76  N          5.3520    7.6040    3.6480 N.3   154  PHE154     -0.1227
     77  CA         5.9270    7.5630    2.3040 C.3   154  PHE154      0.1736
     78  C          7.4490    7.5340    2.3640 C.2   154  PHE154      0.2595
     79  O          8.0650    8.3950    3.0190 O.2   154  PHE154     -0.2718
     80  CB         5.4390    8.7720    1.4720 C.3   154  PHE154      0.0547
     81  CG         3.9590    8.7330    1.2050 C.ar  154  PHE154     -0.0202
     82  CD1        3.0470    9.0550    2.2210 C.ar  154  PHE154     -0.0042
     83  CD2        3.4770    8.2700   -0.0210 C.ar  154  PHE154     -0.0042
     84  CE1        1.6590    8.9620    1.9950 C.ar  154  PHE154     -0.0003
     85  CE2        2.0810    8.1970   -0.2560 C.ar  154  PHE154     -0.0003
     86  CZ         1.1900    8.5370    0.7740 C.ar  154  PHE154     -0.0000
     87  N          8.0290    6.5450    1.6890 N.am  155  PHE155     -0.1962
     88  CA         9.4930    6.4040    1.5740 C.3   155  PHE155      0.1771
     89  C          9.9400    6.2080    0.1200 C.2   155  PHE155      0.2620
     90  O          9.2220    5.5880   -0.6890 O.2   155  PHE155     -0.2715
     91  CB         9.9660    5.2220    2.4330 C.3   155  PHE155      0.0574
     92  CG         9.9170    5.4990    3.9030 C.ar  155  PHE155     -0.0200
     93  CD1       10.9840    6.1450    4.5290 C.ar  155  PHE155     -0.0042
     94  CD2        8.8180    5.1470    4.6530 C.ar  155  PHE155     -0.0042
     95  CE1       10.9480    6.4400    5.9070 C.ar  155  PHE155     -0.0003
     96  CE2        8.7800    5.3980    6.0140 C.ar  155  PHE155     -0.0003
     97  CZ         9.8540    6.0610    6.6480 C.ar  155  PHE155     -0.0000
     98  N         11.1250    6.7160   -0.2240 N.am  156  GLY156     -0.1954
     99  CA        11.6420    6.5100   -1.5770 C.3   156  GLY156      0.1869
    100  C         12.2580    5.1360   -1.7800 C.2   156  GLY156      0.2309
    101  O         12.8820    4.5810   -0.8840 O.2   156  GLY156     -0.2863
    102  N         14.8350    4.7230   -3.5240 N.3   158  LYS158     -0.1231
    103  CA        16.2920    4.9330   -3.6200 C.3   158  LYS158      0.1693
    104  C         17.0280    4.2360   -2.4710 C.2   158  LYS158      0.2592
    105  O         18.0490    3.5580   -2.6610 O.2   158  LYS158     -0.2718
    106  CB        16.6170    6.4410   -3.6420 C.3   158  LYS158      0.0285
    107  CG        18.0070    6.7830   -4.1940 C.3   158  LYS158      0.0035
    108  CD        19.0020    7.1380   -3.1160 C.3   158  LYS158      0.0206
    109  CE        18.7430    8.5300   -2.5540 C.3   158  LYS158      0.1093
    110  NZ        19.3730    8.6880   -1.2040 N.3   158  LYS158     -0.1314
    111  N         16.5030    4.3950   -1.2610 N.am  159  ASP159     -0.1974
    112  CA        17.1040    3.7310   -0.1300 C.3   159  ASP159      0.1709
    113  C         16.2960    2.4590    0.1000 C.2   159  ASP159      0.2293
    114  O         15.4560    2.4050    0.9920 O.2   159  ASP159     -0.2864
    115  CB        17.0890    4.6560    1.0810 C.3   159  ASP159      0.1436
    116  CG        17.9620    5.8810    0.8560 C.2   159  ASP159      0.3671
    117  OD1       19.1750    5.7560    1.0510 O.co2 159  ASP159     -0.2456
    118  OD2       17.4420    6.9220    0.3970 O.co2 159  ASP159     -0.2456
    119  N         16.4580    0.4300    3.3660 N.3   162  GLN162     -0.1245
    120  CA        15.7210    1.1360    4.4010 C.3   162  GLN162      0.1566
    121  C         14.2060    0.9240    4.2770 C.2   162  GLN162      0.2260
    122  O         13.5420    0.7240    5.2830 O.2   162  GLN162     -0.2867
    123  CB        16.0410    2.6170    4.3220 C.3   162  GLN162      0.0367
    124  CG        15.1140    3.5060    5.1180 C.3   162  GLN162      0.0905
    125  CD        15.5750    4.9380    5.0780 C.2   162  GLN162      0.2608
    126  OE1       16.4380    5.3190    5.8540 O.2   162  GLN162     -0.2717
    127  NE2       15.0290    5.7350    4.1440 N.am  162  GLN162     -0.0878
    128  N          7.9160    4.8690   -3.1040 N.3   182  VAL182     -0.1231
    129  CA         7.7820    5.7820   -4.2580 C.3   182  VAL182      0.1678
    130  C          9.0060    5.6520   -5.1610 C.2   182  VAL182      0.2434
    131  O         10.1410    5.7150   -4.6630 O.2   182  VAL182     -0.2733
    132  CB         7.5960    7.2350   -3.7730 C.3   182  VAL182      0.0265
    133  CG1        7.5370    8.2420   -4.9710 C.3   182  VAL182      0.0020
    134  CG2        6.3660    7.3600   -2.9080 C.3   182  VAL182      0.0020
    135  N          8.7950    5.4790   -6.4950 N.am  183  PRO183     -0.2718
    136  CA         9.9470    5.2660   -7.3800 C.3   183  PRO183      0.1535
    137  C         10.9780    6.3950   -7.3560 C.2   183  PRO183      0.2599
    138  O         10.6290    7.5650   -7.1980 O.2   183  PRO183     -0.2715
    139  CB         9.3060    5.1340   -8.7700 C.3   183  PRO183      0.0310
    140  CG         7.8580    4.6370   -8.4610 C.3   183  PRO183      0.0237
    141  CD         7.5170    5.4490   -7.2490 C.3   183  PRO183      0.0939
    142  N         12.2360    6.0140   -7.5040 N.am  184  THR184     -0.1937
    143  CA        13.3560    6.9530   -7.5100 C.3   184  THR184      0.2028
    144  C         13.2230    8.0230   -8.6040 C.2   184  THR184      0.2642
    145  O         12.9390    7.6990   -9.7710 O.2   184  THR184     -0.2714
    146  CB        14.6610    6.1690   -7.6450 C.3   184  THR184      0.1808
    147  OG1       14.7380    5.2440   -6.5410 O.3   184  THR184     -0.2208
    148  CG2       15.8610    7.1020   -7.6370 C.3   184  THR184      0.0379
    149  N         13.3770    9.2880   -8.2000 N.am  185  VAL185     -0.1977
    150  CA        13.4140   10.4140   -9.1300 C.3   185  VAL185      0.1596
    151  C         14.8490   10.5980   -9.6130 C.2   185  VAL185      0.2287
    152  O         15.7810   10.5430   -8.8130 O.2   185  VAL185     -0.2864
    153  CB        12.9060   11.7360   -8.5000 C.3   185  VAL185      0.0276
    154  CG1       12.9570   12.8500   -9.5450 C.3   185  VAL185      0.0022
    155  CG2       11.4820   11.5740   -7.9820 C.3   185  VAL185      0.0022
    156  N         18.5200   11.1670   -7.7540 N.3   193  MET193     -0.1230
    157  CA        18.5430   12.3610   -6.9140 C.3   193  MET193      0.1702
    158  C         18.9300   12.0470   -5.4700 C.2   193  MET193      0.2593
    159  O         18.4570   11.0830   -4.8790 O.2   193  MET193     -0.2718
    160  CB        17.2080   13.0960   -7.0080 C.3   193  MET193      0.0401
    161  CG        17.0300   13.6540   -8.4370 C.3   193  MET193      0.0596
    162  SD        16.0720   15.1410   -8.4550 S.3   193  MET193     -0.1393
    163  CE        17.2610   16.2480   -7.6830 C.3   193  MET193      0.0692
    164  N         19.8630   12.8360   -4.9380 N.am  194  SER194     -0.1952
    165  CA        20.3520   12.6620   -3.5730 C.3   194  SER194      0.1924
    166  C         20.9040   13.9880   -3.0740 C.2   194  SER194      0.2314
    167  O         21.5240   14.7220   -3.8460 O.2   194  SER194     -0.2863
    168  CB        21.4800   11.6110   -3.5640 C.3   194  SER194      0.2116
    169  OG        22.0650   11.5060   -2.2880 O.3   194  SER194     -0.2180
@<TRIPOS>BOND
     1   145   144    2
     2   151   150    1
     3   151   152    2
     4   154   153    1
     5   150   153    1
     6   150   149    1
     7   139   140    1
     8   139   136    1
     9   144   149   am
    10   144   143    1
    11   153   155    1
    12   140   141    1
    13   162   161    1
    14   162   163    1
    15   161   160    1
    16   156   157    1
    17   146   148    1
    18   146   143    1
    19   146   147    1
    20   143   142    1
    21   142   137   am
    22   136   137    1
    23   136   135    1
    24   137   138    2
    25   141   135    1
    26   160   157    1
    27   157   158    1
    28   135   130   am
    29    33    34    1
    30   158   164   am
    31   158   159    2
    32   130   131    2
    33   130   129    1
    34    34    35    1
    35   133   132    1
    36   164   165    1
    37    25    24    1
    38    25    26    2
    39   129   132    1
    40   129   128    1
    41   107   106    1
    42   107   108    1
    43    27    24    1
    44    27    28    1
    45    29    28   ar
    46    29    31   ar
    47   167   166    2
    48    35    36    2
    49    35    37   am
    50   132   134    1
    51   106   103    1
    52    24    23    1
    53   103   102    1
    54   103   104    1
    55   165   168    1
    56   165   166    1
    57   168   169    1
    58    28    30   ar
    59    31    32   ar
    60    47    48    1
    61   108   109    1
    62    37    38    1
    63    30    32   ar
    64   105   104    2
    65   109   110    1
    66   104   111   am
    67    39    38    1
    68    39    40    2
    69    48    49    1
    70    48    51    1
    71   100    99    1
    72   100   101    2
    73    38    41    1
    74    49    50    2
    75    99    98    1
    76    54    52    1
    77   111   112    1
    78    52    51    1
    79    52    53    1
    80    41    42    1
    81    90    89    2
    82    43    42   ar
    83    43    45   ar
    84    85    83   ar
    85    85    86   ar
    86    98    89   am
    87    42    44   ar
    88   112   113    1
    89   112   115    1
    90    83    81   ar
    91   113   114    2
    92    89    88    1
    93    45    46   ar
    94   118   116   ar
    95    44    46   ar
    96    86    84   ar
    97   116   117   ar
    98   116   115    1
    99    81    80    1
   100    81    82   ar
   101    80    77    1
   102    88    87    1
   103    88    91    1
   104    87    78   am
   105    84    82   ar
   106    77    78    1
   107    77    76    1
   108    78    79    2
   109    91    92    1
   110   119   120    1
   111    92    93   ar
   112    92    94   ar
   113    14    12    1
   114   127   125   am
   115    75    74    1
   116   121   120    1
   117   121   122    2
   118   123   120    1
   119   123   124    1
   120    93    95   ar
   121    94    96   ar
   122    12    13    1
   123    12     9    1
   124    74    72   ar
   125    74    73   ar
   126   125   124    1
   127   125   126    2
   128     4     3    2
   129    72    70   ar
   130    73    71   ar
   131     9     8    1
   132     9    10    1
   133    95    97   ar
   134    96    97   ar
   135     7     1    1
   136     7     6    1
   137     1     2    1
   138    70    69   ar
   139     3     8   am
   140     3     2    1
   141    15    10   am
   142    15    16    1
   143    66    65    1
   144    66    67    2
   145    17    18    2
   146    17    16    1
   147    71    69   ar
   148    69    68    1
   149    65    64    1
   150    65    68    1
   151    10    11    2
   152     2     5    1
   153    16    19    1
   154    19    20    1
   155     6     5    1
   156    22    21    1
   157    20    21    1
   158    63    61   am
   159    61    62    2
   160    61    60    1
   161    60    59    1
   162    58    57    2
   163    59    56    1
   164    57    56    1
   165    56    55    1
