@<TRIPOS>MOLECULE
tmp/3iodB00.pdb
 206 198 0 0 0
SMALL
GASTEIGER

@<TRIPOS>ATOM
      1  N         -3.2290   -7.1040   29.5900 N.3    37  PRO37      -0.2102
      2  CA        -2.3920   -8.2240   29.1390 C.3    37  PRO37       0.1504
      3  C         -2.2060   -9.3000   30.1970 C.2    37  PRO37       0.2576
      4  O         -1.8970   -8.9920   31.3410 O.2    37  PRO37      -0.2718
      5  CB        -1.0470   -7.5780   28.8680 C.3    37  PRO37       0.0282
      6  CG        -1.3730   -6.0920   28.6240 C.3    37  PRO37       0.0208
      7  CD        -2.4620   -5.8410   29.6310 C.3    37  PRO37       0.0893
      8  N         -2.4090  -10.5520   29.8040 N.am   38  THR38      -0.1939
      9  CA        -2.1560  -11.6520   30.7300 C.3    38  THR38       0.2028
     10  C         -1.5320  -12.8190   30.0060 C.2    38  THR38       0.2642
     11  O         -1.5320  -12.8910   28.7730 O.2    38  THR38      -0.2714
     12  CB        -3.4500  -12.1830   31.4210 C.3    38  THR38       0.1808
     13  OG1       -4.1390  -13.0870   30.5450 O.3    38  THR38      -0.2208
     14  CG2       -4.3930  -11.0330   31.8640 C.3    38  THR38       0.0379
     15  N         -1.0640  -13.7640   30.8020 N.am   39  MET39      -0.1976
     16  CA        -0.5340  -15.0000   30.2600 C.3    39  MET39       0.1605
     17  C         -1.4410  -16.1540   30.6600 C.2    39  MET39       0.2287
     18  O         -1.0110  -17.3180   30.6850 O.2    39  MET39      -0.2864
     19  CB         0.8800  -15.2250   30.7470 C.3    39  MET39       0.0413
     20  CG         1.8620  -14.1980   30.2280 C.3    39  MET39       0.0598
     21  SD         3.5490  -14.6110   30.7190 S.3    39  MET39      -0.1393
     22  CE         3.5070  -14.1690   32.4400 C.3    39  MET39       0.0692
     23  N         -5.7020  -15.5310   38.2750 N.3    43  HIS43      -0.1241
     24  CA        -6.0710  -15.4990   39.6810 C.3    43  HIS43       0.1621
     25  C         -6.5490  -14.1110   40.1070 C.2    43  HIS43       0.2264
     26  O         -6.6690  -13.1990   39.2760 O.2    43  HIS43      -0.2867
     27  CB        -4.9310  -16.0000   40.5750 C.3    43  HIS43       0.0745
     28  CG        -3.6380  -15.2850   40.3660 C.ar   43  HIS43       0.0817
     29  ND1       -3.4750  -13.9500   40.6680 N.ar   43  HIS43      -0.2268
     30  CD2       -2.4410  -15.7180   39.9030 C.ar   43  HIS43       0.1154
     31  CE1       -2.2420  -13.5820   40.3730 C.ar   43  HIS43       0.1986
     32  NE2       -1.5910  -14.6360   39.9110 N.ar   43  HIS43      -0.2212
     33  N         -5.2830  -11.7030   41.4420 N.3    45  GLY45      -0.1210
     34  CA        -4.3890  -10.5910   41.0720 C.3    45  GLY45       0.1956
     35  C         -4.7680  -10.0650   39.6870 C.2    45  GLY45       0.2611
     36  O         -4.9110   -8.8580   39.4840 O.2    45  GLY45      -0.2717
     37  N         -4.9840  -10.9730   38.7420 N.am   46  HIS46      -0.1975
     38  CA        -5.3770  -10.5610   37.4000 C.3    46  HIS46       0.1656
     39  C         -6.7680   -9.9780   37.3980 C.2    46  HIS46       0.2291
     40  O         -7.0490   -9.0550   36.6280 O.2    46  HIS46      -0.2864
     41  CB        -5.3310  -11.7270   36.4280 C.3    46  HIS46       0.0771
     42  CG        -4.0150  -12.4290   36.4370 C.ar   46  HIS46       0.0820
     43  ND1       -3.8420  -13.6610   37.0250 N.ar   46  HIS46      -0.2267
     44  CD2       -2.7980  -12.0550   35.9780 C.ar   46  HIS46       0.1154
     45  CE1       -2.5790  -14.0320   36.9070 C.ar   46  HIS46       0.1986
     46  NE2       -1.9240  -13.0770   36.2700 N.ar   46  HIS46      -0.2212
     47  N         -6.8440   -6.3910   38.0440 N.3    49  LEU49      -0.1245
     48  CA        -6.5160   -5.5810   36.8520 C.3    49  LEU49       0.1561
     49  C         -7.7750   -5.3730   36.0420 C.2    49  LEU49       0.2260
     50  O         -8.0620   -4.2740   35.6120 O.2    49  LEU49      -0.2867
     51  CB        -5.4820   -6.2760   35.9490 C.3    49  LEU49       0.0270
     52  CG        -4.1800   -6.7490   36.6200 C.3    49  LEU49       0.0019
     53  CD1       -3.2150   -7.3290   35.5820 C.3    49  LEU49       0.0001
     54  CD2       -3.5260   -5.6300   37.3720 C.3    49  LEU49       0.0001
     55  N         -6.0000   -9.8800   26.9940 N.3    64  SER64      -0.1217
     56  CA        -5.2650  -10.7640   26.0950 C.3    64  SER64       0.1889
     57  C         -4.7460  -11.9260   26.9200 C.2    64  SER64       0.2288
     58  O         -4.4510  -11.7840   28.1200 O.2    64  SER64      -0.2866
     59  CB        -4.1320  -10.0450   25.3700 C.3    64  SER64       0.2089
     60  OG        -3.2450   -9.4200   26.2800 O.3    64  SER64      -0.2183
     61  N         -1.8380  -14.6900   26.2920 N.3    66  PHE66      -0.1241
     62  CA        -0.7610  -15.0640   25.3770 C.3    66  PHE66       0.1605
     63  C          0.5090  -15.3630   26.1250 C.2    66  PHE66       0.2264
     64  O          0.9090  -14.6080   26.9950 O.2    66  PHE66      -0.2867
     65  CB        -0.4990  -13.9740   24.3240 C.3    66  PHE66       0.0534
     66  CG         0.5670  -14.3340   23.3250 C.ar   66  PHE66      -0.0203
     67  CD1        0.3930  -15.4080   22.4420 C.ar   66  PHE66      -0.0042
     68  CD2        1.7370  -13.6020   23.2480 C.ar   66  PHE66      -0.0042
     69  CE1        1.3760  -15.7380   21.5020 C.ar   66  PHE66      -0.0003
     70  CE2        2.7520  -13.9280   22.3160 C.ar   66  PHE66      -0.0003
     71  CZ         2.5720  -15.0070   21.4400 C.ar   66  PHE66      -0.0000
     72  N          4.3380  -15.5900   25.7420 N.3    68  ASN68      -0.1240
     73  CA         5.4120  -15.1070   24.9070 C.3    68  ASN68       0.1653
     74  C          6.4970  -16.1790   24.7110 C.2    68  ASN68       0.2266
     75  O          7.0290  -16.6910   25.6960 O.2    68  ASN68      -0.2867
     76  CB         5.9960  -13.8540   25.5540 C.3    68  ASN68       0.1155
     77  CG         6.9480  -13.1430   24.6570 C.2    68  ASN68       0.2627
     78  OD1        6.7090  -13.0350   23.4530 O.2    68  ASN68      -0.2716
     79  ND2        8.0530  -12.6580   25.2260 N.am   68  ASN68      -0.0877
     80  N         14.8830  -11.1320   29.0770 N.3   119  HIS119     -0.1241
     81  CA        13.5110  -11.3310   29.4680 C.3   119  HIS119      0.1621
     82  C         12.7080  -10.0990   29.0820 C.2   119  HIS119      0.2264
     83  O         11.6580  -10.1940   28.4640 O.2   119  HIS119     -0.2867
     84  CB        13.4120  -11.5460   30.9760 C.3   119  HIS119      0.0745
     85  CG        12.0200  -11.4640   31.4990 C.ar  119  HIS119      0.0817
     86  ND1       11.0540  -12.3980   31.1940 N.ar  119  HIS119     -0.2268
     87  CD2       11.4270  -10.5610   32.3190 C.ar  119  HIS119      0.1154
     88  CE1        9.9240  -12.0640   31.7890 C.ar  119  HIS119      0.1986
     89  NE2       10.1300  -10.9610   32.4880 N.ar  119  HIS119     -0.2212
     90  N          9.2420   -9.1270   26.7910 N.3   123  VAL123     -0.1245
     91  CA         8.0460   -8.5170   27.3390 C.3   123  VAL123      0.1561
     92  C          7.7280   -7.1920   26.6030 C.2   123  VAL123      0.2260
     93  O          6.6010   -6.9830   26.1860 O.2   123  VAL123     -0.2867
     94  CB         8.2230   -8.2260   28.8620 C.3   123  VAL123      0.0252
     95  CG1        7.0000   -7.5280   29.4430 C.3   123  VAL123      0.0019
     96  CG2        8.5190   -9.5670   29.6400 C.3   123  VAL123      0.0019
     97  N          6.4070   -7.8970   23.0420 N.3   126  VAL126     -0.1231
     98  CA         5.0280   -8.3900   22.9410 C.3   126  VAL126      0.1692
     99  C          4.0200   -7.3290   23.4090 C.2   126  VAL126      0.2591
    100  O          2.9540   -7.1840   22.8330 O.2   126  VAL126     -0.2718
    101  CB         4.8550   -9.7590   23.6580 C.3   126  VAL126      0.0266
    102  CG1        4.8590   -9.5930   25.1790 C.3   126  VAL126      0.0020
    103  CG2        3.5780  -10.4050   23.1950 C.3   126  VAL126      0.0020
    104  N          4.3920   -6.5650   24.4360 N.am  127  VAL127     -0.1980
    105  CA         3.5130   -5.4770   24.9090 C.3   127  VAL127      0.1595
    106  C          3.3570   -4.4290   23.8140 C.2   127  VAL127      0.2287
    107  O          2.2400   -3.9370   23.5790 O.2   127  VAL127     -0.2864
    108  CB         3.9750   -4.8910   26.2310 C.3   127  VAL127      0.0276
    109  CG1        3.2330   -3.5620   26.5420 C.3   127  VAL127      0.0022
    110  CG2        3.7050   -5.9180   27.3620 C.3   127  VAL127      0.0022
    111  N          0.8750   -5.8200   21.2910 N.3   130  LEU130     -0.1245
    112  CA        -0.4960   -5.8480   21.8050 C.3   130  LEU130      0.1561
    113  C         -1.0720   -4.4530   21.8000 C.2   130  LEU130      0.2260
    114  O         -2.2520   -4.2810   21.4780 O.2   130  LEU130     -0.2867
    115  CB        -0.5210   -6.4140   23.2180 C.3   130  LEU130      0.0270
    116  CG        -0.2080   -7.9080   23.3040 C.3   130  LEU130      0.0019
    117  CD1       -0.0170   -8.2980   24.7520 C.3   130  LEU130      0.0001
    118  CD2       -1.3530   -8.7030   22.7040 C.3   130  LEU130      0.0001
    119  N         -3.2500   -1.8910   31.6370 N.3   140  PHE140     -0.1227
    120  CA        -3.1980   -2.1870   33.0770 C.3   140  PHE140      0.1736
    121  C         -2.1640   -3.2710   33.3720 C.2   140  PHE140      0.2595
    122  O         -2.1570   -4.3520   32.7470 O.2   140  PHE140     -0.2718
    123  CB        -4.5890   -2.6340   33.5780 C.3   140  PHE140      0.0547
    124  CG        -5.6070   -1.5470   33.4890 C.ar  140  PHE140     -0.0202
    125  CD1       -6.1930   -1.2300   32.2590 C.ar  140  PHE140     -0.0042
    126  CD2       -5.9150   -0.8090   34.5940 C.ar  140  PHE140     -0.0042
    127  CE1       -7.1010   -0.1820   32.1610 C.ar  140  PHE140     -0.0003
    128  CE2       -6.8140    0.2530   34.5080 C.ar  140  PHE140     -0.0003
    129  CZ        -7.3800    0.5710   33.2860 C.ar  140  PHE140     -0.0000
    130  N         -1.2850   -2.9580   34.3160 N.am  141  PHE141     -0.1962
    131  CA        -0.2400   -3.9060   34.7710 C.3   141  PHE141      0.1771
    132  C         -0.1680   -3.9250   36.2830 C.2   141  PHE141      0.2620
    133  O         -0.3940   -2.9060   36.9210 O.2   141  PHE141     -0.2715
    134  CB         1.1320   -3.4930   34.2400 C.3   141  PHE141      0.0574
    135  CG         1.2900   -3.7020   32.7680 C.ar  141  PHE141     -0.0200
    136  CD1        1.6020   -4.9640   32.2590 C.ar  141  PHE141     -0.0042
    137  CD2        1.0550   -2.6520   31.8750 C.ar  141  PHE141     -0.0042
    138  CE1        1.7260   -5.1520   30.8570 C.ar  141  PHE141     -0.0003
    139  CE2        1.1740   -2.8320   30.5010 C.ar  141  PHE141     -0.0003
    140  CZ         1.5010   -4.0810   29.9790 C.ar  141  PHE141     -0.0000
    141  N          0.1580   -5.0800   36.8670 N.am  142  GLY142     -0.1954
    142  CA         0.2620   -5.1350   38.3210 C.3   142  GLY142      0.1869
    143  C          1.5780   -4.5730   38.8190 C.2   142  GLY142      0.2309
    144  O          2.6290   -4.7090   38.1640 O.2   142  GLY142     -0.2863
    145  N          3.0660   -5.7840   41.2000 N.3   144  LYS144     -0.1231
    146  CA         3.8760   -6.9120   41.6820 C.3   144  LYS144      0.1693
    147  C          5.1360   -7.0520   40.8330 C.2   144  LYS144      0.2592
    148  O          6.1990   -7.3170   41.3550 O.2   144  LYS144     -0.2718
    149  CB         3.1020   -8.2330   41.6670 C.3   144  LYS144      0.0285
    150  CG         3.8690   -9.3530   42.4300 C.3   144  LYS144      0.0035
    151  CD         3.1890  -10.6970   42.3580 C.3   144  LYS144      0.0206
    152  CE         3.7260  -11.5200   41.1950 C.3   144  LYS144      0.1093
    153  NZ         2.7730  -12.5780   40.7080 N.3   144  LYS144     -0.1314
    154  N          5.0050   -6.8440   39.5230 N.am  145  ASP145     -0.1974
    155  CA         6.1730   -6.8670   38.6530 C.3   145  ASP145      0.1709
    156  C          6.5500   -5.4280   38.4040 C.2   145  ASP145      0.2293
    157  O          6.2800   -4.8710   37.3410 O.2   145  ASP145     -0.2864
    158  CB         5.8510   -7.6200   37.3800 C.3   145  ASP145      0.1436
    159  CG         5.4450   -9.0480   37.6830 C.2   145  ASP145      0.3671
    160  OD1        6.3620   -9.8490   37.9460 O.co2 145  ASP145     -0.2456
    161  OD2        4.2250   -9.3360   37.7430 O.co2 145  ASP145     -0.2456
    162  N          8.9890   -4.5290   35.5300 N.3   148  GLN148     -0.1245
    163  CA         8.2530   -4.6060   34.2870 C.3   148  GLN148      0.1566
    164  C          7.3920   -3.3730   34.0590 C.2   148  GLN148      0.2260
    165  O          7.3940   -2.8090   32.9620 O.2   148  GLN148     -0.2867
    166  CB         7.3620   -5.8170   34.3270 C.3   148  GLN148      0.0367
    167  CG         6.4410   -5.9360   33.1770 C.3   148  GLN148      0.0905
    168  CD         5.7750   -7.2690   33.2580 C.2   148  GLN148      0.2608
    169  OE1        6.3470   -8.2640   32.8230 O.2   148  GLN148     -0.2717
    170  NE2        4.5910   -7.3090   33.8710 N.am  148  GLN148     -0.0878
    171  N         -1.5230   -1.3020   38.9850 N.3   168  VAL168     -0.1231
    172  CA        -2.5990   -1.7340   39.8940 C.3   168  VAL168      0.1678
    173  C         -1.9400   -2.3980   41.1000 C.2   168  VAL168      0.2434
    174  O         -1.0180   -3.2210   40.9260 O.2   168  VAL168     -0.2733
    175  CB        -3.5660   -2.7370   39.1880 C.3   168  VAL168      0.0265
    176  CG1       -4.6120   -3.3010   40.1740 C.3   168  VAL168      0.0020
    177  CG2       -4.2330   -2.0710   37.9930 C.3   168  VAL168      0.0020
    178  N         -2.3390   -2.0040   42.3220 N.am  169  PRO169     -0.2718
    179  CA        -1.6750   -2.5540   43.5260 C.3   169  PRO169      0.1535
    180  C         -1.7070   -4.0850   43.6000 C.2   169  PRO169      0.2599
    181  O         -2.6120   -4.7290   43.0940 O.2   169  PRO169     -0.2715
    182  CB        -2.4490   -1.9200   44.6910 C.3   169  PRO169      0.0310
    183  CG        -2.9920   -0.6090   44.0800 C.3   169  PRO169      0.0237
    184  CD        -3.3730   -1.0100   42.6730 C.3   169  PRO169      0.0939
    185  N         -0.6570   -4.6310   44.1820 N.am  170  THR170     -0.1937
    186  CA        -0.5080   -6.0720   44.2770 C.3   170  THR170      0.2028
    187  C         -1.6070   -6.6430   45.1910 C.2   170  THR170      0.2642
    188  O         -1.8620   -6.1280   46.2940 O.2   170  THR170     -0.2714
    189  CB         0.8880   -6.4050   44.8110 C.3   170  THR170      0.1808
    190  OG1        1.8810   -5.9070   43.9000 O.3   170  THR170     -0.2208
    191  CG2        1.0720   -7.9390   44.9420 C.3   170  THR170      0.0379
    192  N         -2.2360   -7.7210   44.7150 N.am  171  VAL171     -0.1977
    193  CA        -3.2360   -8.4260   45.4680 C.3   171  VAL171      0.1596
    194  C         -2.4890   -9.5010   46.2350 C.2   171  VAL171      0.2287
    195  O         -1.6090  -10.1780   45.6820 O.2   171  VAL171     -0.2864
    196  CB        -4.2630   -9.0830   44.5470 C.3   171  VAL171      0.0276
    197  CG1       -5.2720   -9.8820   45.3670 C.3   171  VAL171      0.0022
    198  CG2       -4.9710   -7.9880   43.7210 C.3   171  VAL171      0.0022
    199  N          0.0510  -12.5720   45.5550 N.3   179  MET179     -0.1245
    200  CA        -0.5090  -13.6750   44.7460 C.3   179  MET179      0.1570
    201  C          0.3030  -13.9490   43.4880 C.2   179  MET179      0.2261
    202  O          0.6990  -13.0350   42.7640 O.2   179  MET179     -0.2867
    203  CB        -1.9780  -13.4520   44.3930 C.3   179  MET179      0.0387
    204  CG        -2.8750  -13.5370   45.5730 C.3   179  MET179      0.0595
    205  SD        -4.5710  -13.5850   45.0090 S.3   179  MET179     -0.1393
    206  CE        -5.4190  -13.6170   46.5820 C.3   179  MET179      0.0692
@<TRIPOS>BOND
     1   111   112    1
     2    71    69   ar
     3    71    70   ar
     4   114   113    2
     5    69    67   ar
     6   113   112    1
     7   112   115    1
     8    70    68   ar
     9    67    66   ar
    10   118   116    1
    11   100    99    2
    12    98    97    1
    13    98    99    1
    14    98   101    1
    15   103   101    1
    16   115   116    1
    17    68    66   ar
    18   116   117    1
    19    66    65    1
    20    99   104   am
    21    78    77    2
    22   107   106    2
    23   101   102    1
    24   106   105    1
    25    65    62    1
    26   104   105    1
    27    77    79   am
    28    77    76    1
    29    74    73    1
    30    74    75    2
    31    73    76    1
    32    73    72    1
    33   105   108    1
    34    59    56    1
    35    59    60    1
    36    62    63    1
    37    62    61    1
    38    56    57    1
    39    56    55    1
    40    63    64    2
    41    93    92    2
    42   108   109    1
    43   108   110    1
    44    92    91    1
    45    90    91    1
    46    57    58    2
    47    91    94    1
    48    83    82    2
    49     6     5    1
    50     6     7    1
    51    11    10    2
    52    94    95    1
    53    94    96    1
    54     5     2    1
    55    80    81    1
    56    82    81    1
    57     2     1    1
    58     2     3    1
    59    81    84    1
    60     1     7    1
    61     8     3   am
    62     8     9    1
    63   140   139   ar
    64   140   138   ar
    65    10     9    1
    66    10    15   am
    67     3     4    2
    68    20    21    1
    69    20    19    1
    70    16    17    1
    71    16    19    1
    72    16    15    1
    73   139   137   ar
    74    13    12    1
    75    17    18    2
    76    21    22    1
    77     9    12    1
    78   138   136   ar
    79    84    85    1
    80    86    85   ar
    81    86    88   ar
    82    12    14    1
    83    85    87   ar
    84   119   120    1
    85    88    89   ar
    86   137   135   ar
    87   127   125   ar
    88   127   129   ar
    89   125   124   ar
    90   136   135   ar
    91    87    89   ar
    92   122   121    2
    93   135   134    1
    94   169   168    2
    95   165   164    2
    96   120   121    1
    97   120   123    1
    98   167   168    1
    99   167   166    1
   100   168   170   am
   101   129   128   ar
   102   121   130   am
   103   124   123    1
   104   124   126   ar
   105   164   163    1
   106   134   131    1
   107   163   166    1
   108   163   162    1
   109   130   131    1
   110   128   126   ar
   111   131   132    1
   112    53    52    1
   113    50    49    2
   114    51    52    1
   115    51    48    1
   116    44    46   ar
   117    44    42   ar
   118    49    48    1
   119    46    45   ar
   120   132   141   am
   121   132   133    2
   122    41    42    1
   123    41    38    1
   124    42    43   ar
   125    52    54    1
   126    40    39    2
   127    48    47    1
   128   141   142    1
   129    45    43   ar
   130   157   156    2
   131   158   159    1
   132   158   155    1
   133    39    38    1
   134    38    37    1
   135   159   161   ar
   136   159   160   ar
   137   177   175    1
   138   144   143    2
   139    23    24    1
   140   142   143    1
   141   156   155    1
   142   155   154    1
   143    37    35   am
   144   171   172    1
   145   175   172    1
   146   175   176    1
   147    26    25    2
   148    36    35    2
   149   154   147   am
   150    24    25    1
   151    24    27    1
   152    35    34    1
   153   172   173    1
   154    30    32   ar
   155    30    28   ar
   156    32    31   ar
   157    28    27    1
   158    28    29   ar
   159    31    29   ar
   160   153   152    1
   161   147   148    2
   162   147   146    1
   163   174   173    2
   164    34    33    1
   165   173   178   am
   166   152   151    1
   167   145   146    1
   168   149   146    1
   169   149   150    1
   170   178   184    1
   171   178   179    1
   172   151   150    1
   173   184   183    1
   174   202   201    2
   175   181   180    2
   176   201   200    1
   177   179   180    1
   178   179   182    1
   179   180   185   am
   180   198   196    1
   181   190   189    1
   182   183   182    1
   183   185   186    1
   184   186   189    1
   185   186   187    1
   186   203   200    1
   187   203   204    1
   188   196   197    1
   189   196   193    1
   190   192   187   am
   191   192   193    1
   192   200   199    1
   193   189   191    1
   194   205   204    1
   195   205   206    1
   196   187   188    2
   197   193   194    1
   198   195   194    2
