@<TRIPOS>MOLECULE
tmp/3ioeA00.pdb
 222 214 0 0 0
SMALL
GASTEIGER

@<TRIPOS>ATOM
      1  N          8.5460   11.2860    6.1500 N.3    35  PRO35      -0.2102
      2  CA         9.7140   11.5570    6.9970 C.3    35  PRO35       0.1504
      3  C         10.9270   11.9180    6.1560 C.2    35  PRO35       0.2576
      4  O         11.2340   11.2290    5.1690 O.2    35  PRO35      -0.2718
      5  CB         9.9360   10.2180    7.7300 C.3    35  PRO35       0.0282
      6  CG         8.6310    9.4520    7.5210 C.3    35  PRO35       0.0208
      7  CD         8.2500    9.8520    6.1250 C.3    35  PRO35       0.0893
      8  N         11.5930   13.0160    6.5260 N.am   36  THR36      -0.1939
      9  CA        12.7910   13.4780    5.8200 C.3    36  THR36       0.2028
     10  C         13.8410   13.9650    6.8160 C.2    36  THR36       0.2642
     11  O         13.5680   14.2030    8.0030 O.2    36  THR36      -0.2714
     12  CB        12.5270   14.6780    4.8140 C.3    36  THR36       0.1808
     13  OG1       12.4520   15.8950    5.5440 O.3    36  THR36      -0.2208
     14  CG2       11.2090   14.5260    4.0540 C.3    36  THR36       0.0379
     15  N         15.0380   14.1430    6.3030 N.am   37  MET37      -0.1976
     16  CA        16.0430   14.8260    7.0620 C.3    37  MET37       0.1605
     17  C         16.3240   16.2120    6.4720 C.2    37  MET37       0.2287
     18  O         17.4180   16.7310    6.6030 O.2    37  MET37      -0.2864
     19  CB        17.2930   13.9450    7.1090 C.3    37  MET37       0.0413
     20  CG        17.0090   12.6010    7.7600 C.3    37  MET37       0.0598
     21  SD        18.3430   11.9000    8.7480 S.3    37  MET37      -0.1393
     22  CE        19.5060   11.5170    7.4530 C.3    37  MET37       0.0692
     23  N         14.9890   17.8420   -2.1970 N.3    41  HIS41      -0.1241
     24  CA        15.1120   17.9080   -3.6480 C.3    41  HIS41       0.1621
     25  C         13.8480   17.2580   -4.2690 C.2    41  HIS41       0.2264
     26  O         12.8940   16.9240   -3.5550 O.2    41  HIS41      -0.2867
     27  CB        16.4180   17.2320   -4.1230 C.3    41  HIS41       0.0745
     28  CG        16.5840   15.8260   -3.6330 C.ar   41  HIS41       0.0817
     29  ND1       15.8420   14.7720   -4.1240 N.ar   41  HIS41      -0.2268
     30  CD2       17.3850   15.3060   -2.6760 C.ar   41  HIS41       0.1154
     31  CE1       16.1780   13.6630   -3.4940 C.ar   41  HIS41       0.1986
     32  NE2       17.1260   13.9590   -2.6240 N.ar   41  HIS41      -0.2212
     33  N         13.2480   14.3870   -5.5350 N.3    43  GLY43      -0.1210
     34  CA        12.9870   13.0560   -4.9950 C.3    43  GLY43       0.1956
     35  C         12.0460   13.0970   -3.7930 C.2    43  GLY43       0.2611
     36  O         11.0800   12.3310   -3.7330 O.2    43  GLY43      -0.2717
     37  N         12.3650   13.9410   -2.8090 N.am   44  HIS44      -0.1975
     38  CA        11.4560   14.2100   -1.6870 C.3    44  HIS44       0.1656
     39  C         10.1140   14.7690   -2.1400 C.2    44  HIS44       0.2291
     40  O          9.0870   14.4340   -1.5580 O.2    44  HIS44      -0.2864
     41  CB        12.0630   15.2220   -0.7320 C.3    44  HIS44       0.0771
     42  CG        13.3420   14.7620   -0.1120 C.ar   44  HIS44       0.0820
     43  ND1       14.5560   15.3080   -0.4490 N.ar   44  HIS44      -0.2267
     44  CD2       13.5980   13.8100    0.8170 C.ar   44  HIS44       0.1154
     45  CE1       15.5100   14.7320    0.2670 C.ar   44  HIS44       0.1986
     46  NE2       14.9560   13.8210    1.0450 N.ar   44  HIS44      -0.2212
     47  N          8.4790   14.0750   -4.8380 N.3    46  ALA46      -0.1231
     48  CA         7.6390   13.0020   -5.4180 C.3    46  ALA46       0.1694
     49  C          6.9030   12.2930   -4.2880 C.2    46  ALA46       0.2591
     50  O          5.7490   11.9090   -4.4470 O.2    46  ALA46      -0.2718
     51  CB         8.4610   12.0080   -6.1930 C.3    46  ALA46       0.0304
     52  N          7.5870   12.1360   -3.1540 N.am   47  LEU47      -0.1980
     53  CA         7.0090   11.5590   -1.9370 C.3    47  LEU47       0.1596
     54  C          5.8410   12.4270   -1.5000 C.2    47  LEU47       0.2287
     55  O          4.7510   11.9280   -1.2030 O.2    47  LEU47      -0.2864
     56  CB         8.0840   11.4500   -0.8140 C.3    47  LEU47       0.0297
     57  CG         9.2660   10.4820   -1.0190 C.3    47  LEU47       0.0022
     58  CD1       10.1040   10.3360    0.2380 C.3    47  LEU47       0.0001
     59  CD2        8.7440    9.1560   -1.3840 C.3    47  LEU47       0.0001
     60  N         13.9120   16.2210   10.3110 N.3    64  PHE64      -0.1241
     61  CA        14.6810   15.9720   11.5460 C.3    64  PHE64       0.1605
     62  C         15.9240   15.2180   11.1650 C.2    64  PHE64       0.2264
     63  O         15.8600   14.1530   10.5330 O.2    64  PHE64      -0.2867
     64  CB        13.8480   15.1940   12.5940 C.3    64  PHE64       0.0534
     65  CG        14.5940   14.8680   13.8790 C.ar   64  PHE64      -0.0203
     66  CD1       15.1600   15.8750   14.6700 C.ar   64  PHE64      -0.0042
     67  CD2       14.7240   13.5470   14.2980 C.ar   64  PHE64      -0.0042
     68  CE1       15.8420   15.5690   15.8560 C.ar   64  PHE64      -0.0003
     69  CE2       15.4020   13.2310   15.4850 C.ar   64  PHE64      -0.0003
     70  CZ        15.9670   14.2310   16.2670 C.ar   64  PHE64      -0.0000
     71  N         18.3860   13.0860   12.2430 N.3    66  ASN66      -0.1240
     72  CA        18.3070   12.2030   13.3640 C.3    66  ASN66       0.1653
     73  C         19.7040   11.8180   13.8200 C.2    66  ASN66       0.2266
     74  O         20.3770   11.0520   13.1150 O.2    66  ASN66      -0.2867
     75  CB        17.5450   10.9400   12.9320 C.3    66  ASN66       0.1155
     76  CG        17.5460    9.8540   14.0120 C.2    66  ASN66       0.2627
     77  OD1       17.7150   10.1520   15.2060 O.2    66  ASN66      -0.2716
     78  ND2       17.3770    8.5880   13.5930 N.am   66  ASN66      -0.0877
     79  N         20.9950    7.8200   13.6810 N.3    69  GLN69      -0.1245
     80  CA        21.3010    6.9920   12.5050 C.3    69  GLN69       0.1566
     81  C         22.6560    7.3590   11.8610 C.2    69  GLN69       0.2260
     82  O         23.0370    6.8140   10.7990 O.2    69  GLN69      -0.2867
     83  CB        20.1790    7.0470   11.4900 C.3    69  GLN69       0.0367
     84  CG        19.9820    8.4210   10.7990 C.3    69  GLN69       0.0905
     85  CD        18.6300    8.4570   10.0790 C.2    69  GLN69       0.2608
     86  OE1       17.5850    8.4800   10.7260 O.2    69  GLN69      -0.2717
     87  NE2       18.6540    8.4230    8.7360 N.am   69  GLN69      -0.0878
     88  N         26.0210   16.7360    7.3330 N.3    79  TYR79      -0.1241
     89  CA        24.7360   16.6120    6.6120 C.3    79  TYR79       0.1605
     90  C         24.2000   18.0030    6.2840 C.2    79  TYR79       0.2264
     91  O         24.2170   18.8640    7.1690 O.2    79  TYR79      -0.2867
     92  CB        23.6870   15.8460    7.4210 C.3    79  TYR79       0.0534
     93  CG        22.5790   15.3430    6.5250 C.ar   79  TYR79      -0.0201
     94  CD1       22.7420   14.1600    5.7740 C.ar   79  TYR79      -0.0009
     95  CD2       21.4050   16.0610    6.3680 C.ar   79  TYR79      -0.0009
     96  CE1       21.7310   13.7010    4.8990 C.ar   79  TYR79       0.0417
     97  CE2       20.3720   15.5960    5.5070 C.ar   79  TYR79       0.0417
     98  CZ        20.5560   14.4200    4.7780 C.ar   79  TYR79       0.1957
     99  OH        19.5740   13.9660    3.9190 O.3    79  TYR79      -0.2866
    100  N         17.5310    4.6040   12.4540 N.3   136  VAL136     -0.1245
    101  CA        16.4240    4.9120   11.5210 C.3   136  VAL136      0.1561
    102  C         15.0790    4.3690   12.0420 C.2   136  VAL136      0.2260
    103  O         14.0750    5.1050   12.1080 O.2   136  VAL136     -0.2867
    104  CB        16.6930    4.3090   10.0990 C.3   136  VAL136      0.0252
    105  CG1       15.4880    4.4940    9.1370 C.3   136  VAL136      0.0019
    106  CG2       17.9660    4.8870    9.4740 C.3   136  VAL136      0.0019
    107  N         13.7710    6.2670   15.1670 N.3   139  VAL139     -0.1231
    108  CA        13.1340    7.5660   14.9070 C.3   139  VAL139      0.1692
    109  C         11.8390    7.4010   14.0860 C.2   139  VAL139      0.2591
    110  O         10.8320    8.0960   14.3200 O.2   139  VAL139     -0.2718
    111  CB        14.1310    8.5640   14.3050 C.3   139  VAL139      0.0266
    112  CG1       14.3830    8.2930   12.8290 C.3   139  VAL139      0.0020
    113  CG2       13.6470   10.0160   14.5360 C.3   139  VAL139      0.0020
    114  N         11.8180    6.4320   13.1790 N.am  140  VAL140     -0.1980
    115  CA        10.6100    6.2470   12.3770 C.3   140  VAL140      0.1595
    116  C          9.4650    5.7400   13.2650 C.2   140  VAL140      0.2287
    117  O          8.3450    6.2600   13.2080 O.2   140  VAL140     -0.2864
    118  CB        10.8620    5.3650   11.1310 C.3   140  VAL140      0.0276
    119  CG1        9.5450    4.9520   10.4620 C.3   140  VAL140      0.0022
    120  CG2       11.7630    6.1180   10.1380 C.3   140  VAL140      0.0022
    121  N          8.1660    8.7120   15.1870 N.3   143  LEU143     -0.1245
    122  CA         7.4090    9.6090   14.2660 C.3   143  LEU143      0.1561
    123  C          6.0140    9.0790   13.9700 C.2   143  LEU143      0.2260
    124  O          5.0240    9.8410   14.0070 O.2   143  LEU143     -0.2867
    125  CB         8.1560    9.8180   12.9420 C.3   143  LEU143      0.0270
    126  CG         9.4930   10.5820   13.0780 C.3   143  LEU143      0.0019
    127  CD1       10.1210   10.6870   11.7430 C.3   143  LEU143      0.0001
    128  CD2        9.2600   11.9550   13.6480 C.3   143  LEU143      0.0001
    129  N          5.3520    7.5220    3.6880 N.3   153  PHE153     -0.1227
    130  CA         6.0150    7.4460    2.3810 C.3   153  PHE153      0.1736
    131  C          7.5300    7.4090    2.4400 C.2   153  PHE153      0.2595
    132  O          8.1440    8.2630    3.1040 O.2   153  PHE153     -0.2718
    133  CB         5.5570    8.6240    1.5260 C.3   153  PHE153      0.0547
    134  CG         4.0900    8.5790    1.2460 C.ar  153  PHE153     -0.0202
    135  CD1        3.1710    8.8600    2.2650 C.ar  153  PHE153     -0.0042
    136  CD2        3.6420    8.1250    0.0120 C.ar  153  PHE153     -0.0042
    137  CE1        1.7650    8.7750    2.0160 C.ar  153  PHE153     -0.0003
    138  CE2        2.2390    8.0390   -0.2680 C.ar  153  PHE153     -0.0003
    139  CZ         1.3140    8.3290    0.7530 C.ar  153  PHE153     -0.0000
    140  N          8.1010    6.4650    1.7050 N.am  154  PHE154     -0.1962
    141  CA         9.5560    6.3240    1.5880 C.3   154  PHE154      0.1771
    142  C         10.0010    6.0980    0.1370 C.2   154  PHE154      0.2620
    143  O          9.3020    5.4360   -0.6480 O.2   154  PHE154     -0.2715
    144  CB        10.0030    5.1220    2.4530 C.3   154  PHE154      0.0574
    145  CG        10.0310    5.4200    3.9280 C.ar  154  PHE154     -0.0200
    146  CD1       11.0850    6.1330    4.4910 C.ar  154  PHE154     -0.0042
    147  CD2        9.0130    5.0140    4.7480 C.ar  154  PHE154     -0.0042
    148  CE1       11.0830    6.4360    5.8580 C.ar  154  PHE154     -0.0003
    149  CE2        9.0100    5.3060    6.1250 C.ar  154  PHE154     -0.0003
    150  CZ        10.0370    6.0060    6.6740 C.ar  154  PHE154     -0.0000
    151  N         11.1740    6.5950   -0.2250 N.am  155  GLY155     -0.1954
    152  CA        11.6900    6.3580   -1.5800 C.3   155  GLY155      0.1869
    153  C         12.2780    4.9680   -1.7610 C.2   155  GLY155      0.2309
    154  O         12.8340    4.3810   -0.8230 O.2   155  GLY155     -0.2863
    155  N         14.8990    4.6780   -3.4330 N.3   157  LYS157     -0.1231
    156  CA        16.3030    4.9750   -3.5430 C.3   157  LYS157      0.1693
    157  C         17.0400    4.2570   -2.4230 C.2   157  LYS157      0.2592
    158  O         17.9760    3.5110   -2.6690 O.2   157  LYS157     -0.2718
    159  CB        16.5420    6.4950   -3.5430 C.3   157  LYS157      0.0285
    160  CG        17.8260    6.9190   -4.2900 C.3   157  LYS157      0.0035
    161  CD        18.9970    7.2030   -3.3680 C.3   157  LYS157      0.0206
    162  CE        18.8100    8.5530   -2.7020 C.3   157  LYS157      0.1093
    163  NZ        19.2790    8.5610   -1.2920 N.3   157  LYS157     -0.1314
    164  N         16.5580    4.4370   -1.2000 N.am  158  ASP158     -0.1974
    165  CA        17.1180    3.7790   -0.0320 C.3   158  ASP158      0.1709
    166  C         16.2700    2.5600    0.2220 C.2   158  ASP158      0.2293
    167  O         15.4120    2.5330    1.1170 O.2   158  ASP158     -0.2864
    168  CB        17.1090    4.7670    1.1080 C.3   158  ASP158      0.1436
    169  CG        17.9090    6.0140    0.7650 C.2   158  ASP158      0.3671
    170  OD1       19.1410    5.9360    0.8830 O.co2 158  ASP158     -0.2456
    171  OD2       17.3270    7.0350    0.3090 O.co2 158  ASP158     -0.2456
    172  N         16.3920    0.5330    3.3670 N.3   161  GLN161     -0.1245
    173  CA        15.7140    1.2230    4.4330 C.3   161  GLN161      0.1566
    174  C         14.2000    0.9910    4.3310 C.2   161  GLN161      0.2260
    175  O         13.5220    0.8140    5.3380 O.2   161  GLN161     -0.2867
    176  CB        16.0310    2.7050    4.3660 C.3   161  GLN161      0.0367
    177  CG        15.1520    3.5450    5.2240 C.3   161  GLN161      0.0905
    178  CD        15.4890    4.9910    5.1080 C.2   161  GLN161      0.2608
    179  OE1       16.3220    5.4800    5.8600 O.2   161  GLN161     -0.2717
    180  NE2       14.8880    5.6830    4.1260 N.am  161  GLN161     -0.0878
    181  N          7.9640    4.8840   -3.0150 N.3   181  VAL181     -0.1231
    182  CA         7.8040    5.7610   -4.1850 C.3   181  VAL181      0.1678
    183  C          9.0220    5.6010   -5.1310 C.2   181  VAL181      0.2434
    184  O         10.1730    5.6070   -4.6600 O.2   181  VAL181     -0.2733
    185  CB         7.5720    7.2200   -3.7170 C.3   181  VAL181      0.0265
    186  CG1        7.4580    8.2120   -4.9100 C.3   181  VAL181      0.0020
    187  CG2        6.3290    7.2930   -2.8350 C.3   181  VAL181      0.0020
    188  N          8.7890    5.4550   -6.4660 N.am  182  PRO182     -0.2718
    189  CA         9.9700    5.2720   -7.3280 C.3   182  PRO182      0.1535
    190  C         10.9970    6.4010   -7.2580 C.2   182  PRO182      0.2599
    191  O         10.6470    7.5810   -7.0790 O.2   182  PRO182     -0.2715
    192  CB         9.3690    5.1410   -8.7350 C.3   182  PRO182      0.0310
    193  CG         7.9340    4.6100   -8.4680 C.3   182  PRO182      0.0237
    194  CD         7.5250    5.3640   -7.2290 C.3   182  PRO182      0.0939
    195  N         12.2530    6.0180   -7.4060 N.am  183  THR183     -0.1937
    196  CA        13.4080    6.9400   -7.4360 C.3   183  THR183      0.2028
    197  C         13.3180    7.9970   -8.5410 C.2   183  THR183      0.2642
    198  O         13.1000    7.6650   -9.7060 O.2   183  THR183     -0.2714
    199  CB        14.6760    6.1260   -7.6880 C.3   183  THR183      0.1808
    200  OG1       14.8210    5.1590   -6.6310 O.3   183  THR183     -0.2208
    201  CG2       15.8870    6.9900   -7.7790 C.3   183  THR183      0.0379
    202  N         13.5020    9.2560   -8.1680 N.am  184  VAL184     -0.1977
    203  CA        13.5230   10.3570   -9.1270 C.3   184  VAL184      0.1596
    204  C         14.9700   10.4980   -9.5710 C.2   184  VAL184      0.2287
    205  O         15.8950   10.4520   -8.7460 O.2   184  VAL184     -0.2864
    206  CB        12.9400   11.6780   -8.5400 C.3   184  VAL184      0.0276
    207  CG1       12.9040   12.8140   -9.6010 C.3   184  VAL184      0.0022
    208  CG2       11.5410   11.4240   -8.0220 C.3   184  VAL184      0.0022
    209  N         18.6440   11.1170   -7.7720 N.3   192  MET192     -0.1230
    210  CA        18.7060   12.3270   -6.9730 C.3   192  MET192      0.1702
    211  C         19.0190   12.0150   -5.5110 C.2   192  MET192      0.2593
    212  O         18.5070   11.0560   -4.9500 O.2   192  MET192     -0.2718
    213  CB        17.4010   13.0770   -7.1070 C.3   192  MET192      0.0401
    214  CG        17.2020   13.5970   -8.5230 C.3   192  MET192      0.0596
    215  SD        16.1150   15.0040   -8.4720 S.3   192  MET192     -0.1393
    216  CE        17.3050   16.1590   -7.7690 C.3   192  MET192      0.0692
    217  N         19.9020   12.8050   -4.9200 N.am  193  SER193     -0.1952
    218  CA        20.3350   12.6000   -3.5450 C.3   193  SER193      0.1924
    219  C         20.9790   13.8940   -3.0890 C.2   193  SER193      0.2314
    220  O         21.5940   14.6070   -3.8890 O.2   193  SER193     -0.2863
    221  CB        21.3750   11.4690   -3.4970 C.3   193  SER193      0.2116
    222  OG        22.1140   11.4860   -2.2970 O.3   193  SER193     -0.2180
@<TRIPOS>BOND
     1   198   197    2
     2   207   206    1
     3   204   203    1
     4   204   205    2
     5   203   206    1
     6   203   202    1
     7   192   193    1
     8   192   189    1
     9   197   202   am
    10   197   196    1
    11   206   208    1
    12   214   215    1
    13   214   213    1
    14   215   216    1
    15   193   194    1
    16   201   199    1
    17   209   210    1
    18   199   196    1
    19   199   200    1
    20   196   195    1
    21   195   190   am
    22   189   190    1
    23   189   188    1
    24   190   191    2
    25   194   188    1
    26   213   210    1
    27   210   211    1
    28   188   183   am
    29    51    48    1
    30    33    34    1
    31   211   212    2
    32   211   217   am
    33    48    47    1
    34    48    49    1
    35   183   184    2
    36   183   182    1
    37    34    35    1
    38   217   218    1
    39   186   185    1
    40    50    49    2
    41   160   159    1
    42   160   161    1
    43    49    52   am
    44    25    24    1
    45    25    26    2
    46   182   185    1
    47   182   181    1
    48    29    28   ar
    49    29    31   ar
    50    27    24    1
    51    27    28    1
    52   220   219    2
    53    35    36    2
    54    35    37   am
    55   185   187    1
    56    24    23    1
    57    28    30   ar
    58   218   221    1
    59   218   219    1
    60   156   159    1
    61   156   155    1
    62   156   157    1
    63   221   222    1
    64    31    32   ar
    65   161   162    1
    66    52    53    1
    67    37    38    1
    68   162   163    1
    69    30    32   ar
    70   158   157    2
    71   157   164   am
    72    39    38    1
    73    39    40    2
    74    53    54    1
    75    53    56    1
    76   153   152    1
    77   153   154    2
    78    38    41    1
    79   152   151    1
    80    54    55    2
    81    59    57    1
    82   164   165    1
    83    57    56    1
    84    57    58    1
    85    41    42    1
    86   143   142    2
    87    43    42   ar
    88    43    45   ar
    89   138   136   ar
    90   138   139   ar
    91   151   142   am
    92    42    44   ar
    93   165   166    1
    94   165   168    1
    95   136   134   ar
    96   142   141    1
    97   166   167    2
    98    45    46   ar
    99   171   169   ar
   100   139   137   ar
   101   169   170   ar
   102   169   168    1
   103    44    46   ar
   104   134   133    1
   105   134   135   ar
   106   133   130    1
   107   141   140    1
   108   141   144    1
   109   140   131   am
   110   137   135   ar
   111   130   131    1
   112   130   129    1
   113   131   132    2
   114   144   145    1
   115   172   173    1
   116    99    98    1
   117   145   146   ar
   118   145   147   ar
   119    14    12    1
   120   180   178   am
   121   174   173    1
   122   174   175    2
   123   176   173    1
   124   176   177    1
   125   146   148   ar
   126   147   149   ar
   127    98    96   ar
   128    98    97   ar
   129    12    13    1
   130    12     9    1
   131    96    94   ar
   132   178   177    1
   133   178   179    2
   134     4     3    2
   135    97    95   ar
   136    94    93   ar
   137     9     8    1
   138     9    10    1
   139   148   150   ar
   140   149   150   ar
   141     7     1    1
   142     7     6    1
   143     1     2    1
   144     3     8   am
   145     3     2    1
   146    90    89    1
   147    90    91    2
   148    15    10   am
   149    15    16    1
   150    95    93   ar
   151    17    18    2
   152    17    16    1
   153    93    92    1
   154    89    88    1
   155    89    92    1
   156    10    11    2
   157     2     5    1
   158    16    19    1
   159    19    20    1
   160    22    21    1
   161     6     5    1
   162    20    21    1
   163    87    85   am
   164   105   104    1
   165   106   104    1
   166    85    86    2
   167    85    84    1
   168   104   101    1
   169   120   118    1
   170    60    61    1
   171   119   118    1
   172    63    62    2
   173    84    83    1
   174    82    81    2
   175   118   115    1
   176    62    61    1
   177    83    80    1
   178   101   102    1
   179   101   100    1
   180    61    64    1
   181   127   126    1
   182    81    80    1
   183   102   103    2
   184    71    72    1
   185   115   114    1
   186   115   116    1
   187    80    79    1
   188    64    65    1
   189   112   111    1
   190    75    72    1
   191    75    76    1
   192   125   126    1
   193   125   122    1
   194   126   128    1
   195    74    73    2
   196   114   109   am
   197   117   116    2
   198    72    73    1
   199    78    76   am
   200    65    67   ar
   201    65    66   ar
   202   123   124    2
   203   123   122    1
   204    76    77    2
   205   109   110    2
   206   109   108    1
   207   122   121    1
   208    67    69   ar
   209   111   113    1
   210   111   108    1
   211    66    68   ar
   212   108   107    1
   213    69    70   ar
   214    68    70   ar
