@<TRIPOS>MOLECULE
tmp/3iofA00.pdb
 131 126 0 0 0
SMALL
GASTEIGER

@<TRIPOS>ATOM
      1  N          7.0060   46.4690   55.3110 N.3    21  VAL21      -0.1245
      2  CA         5.6220   46.0030   55.2460 C.3    21  VAL21       0.1561
      3  C          5.6960   44.4790   55.0490 C.2    21  VAL21       0.2260
      4  O          6.4120   43.9970   54.1540 O.2    21  VAL21      -0.2867
      5  CB         4.8990   46.6610   54.0920 C.3    21  VAL21       0.0252
      6  CG1        3.5630   45.9650   53.7950 C.3    21  VAL21       0.0019
      7  CG2        4.6430   48.1500   54.4280 C.3    21  VAL21       0.0019
      8  N         13.0500   41.5090   51.1040 N.3    41  TRP41      -0.1241
      9  CA        13.1910   42.9520   50.9450 C.3    41  TRP41       0.1605
     10  C         14.6060   43.4760   50.7240 C.2    41  TRP41       0.2264
     11  O         14.7930   44.4310   49.9560 O.2    41  TRP41      -0.2867
     12  CB        12.6480   43.6370   52.1800 C.3    41  TRP41       0.0550
     13  CG        11.1460   43.8520   52.2890 C.ar   41  TRP41       0.0003
     14  CD1       10.3230   43.3320   53.2240 C.ar   41  TRP41       0.0946
     15  CD2       10.3600   44.7450   51.5010 C.ar   41  TRP41       0.0152
     16  NE1        9.0580   43.8220   53.0600 N.ar   41  TRP41      -0.2442
     17  CE2        9.0530   44.7170   52.0260 C.ar   41  TRP41       0.0810
     18  CE3       10.6450   45.5960   50.4240 C.ar   41  TRP41       0.0012
     19  CZ2        8.0130   45.4950   51.5080 C.ar   41  TRP41       0.0191
     20  CZ3        9.6210   46.3710   49.9110 C.ar   41  TRP41       0.0001
     21  CH2        8.3170   46.3100   50.4490 C.ar   41  TRP41       0.0015
     22  N         10.1270   44.0720   41.5800 N.3    70  HIS70      -0.1226
     23  CA        10.0060   44.9930   42.7070 C.3    70  HIS70       0.1752
     24  C         10.9060   44.6570   43.8770 C.2    70  HIS70       0.2597
     25  O         11.4240   43.5290   44.0160 O.2    70  HIS70      -0.2718
     26  CB         8.5490   45.1030   43.1680 C.3    70  HIS70       0.0759
     27  CG         7.7110   45.9570   42.2690 C.ar   70  HIS70       0.0818
     28  ND1        6.4920   46.4760   42.6530 N.ar   70  HIS70      -0.2268
     29  CD2        7.9360   46.4050   41.0120 C.ar   70  HIS70       0.1154
     30  CE1        6.0120   47.2150   41.6680 C.ar   70  HIS70       0.1986
     31  NE2        6.8760   47.2170   40.6690 N.ar   70  HIS70      -0.2212
     32  N         11.1010   45.6460   44.7400 N.am   71  THR71      -0.1939
     33  CA        11.9800   45.5400   45.8870 C.3    71  THR71       0.2028
     34  C         11.6140   44.4440   46.8790 C.2    71  THR71       0.2642
     35  O         12.5140   43.8550   47.4550 O.2    71  THR71      -0.2714
     36  CB        12.0150   46.8860   46.6050 C.3    71  THR71       0.1808
     37  OG1       10.6930   47.4150   46.5940 O.3    71  THR71      -0.2208
     38  CG2       12.9730   47.8700   45.9050 C.3    71  THR71       0.0379
     39  N         10.3320   44.1470   47.0560 N.am   72  ASP72      -0.1971
     40  CA         9.9570   43.0760   47.9920 C.3    72  ASP72       0.1709
     41  C         10.2070   41.6990   47.4580 C.2    72  ASP72       0.2293
     42  O         10.2150   40.7550   48.2490 O.2    72  ASP72      -0.2864
     43  CB         8.5410   43.2130   48.5440 C.3    72  ASP72       0.1436
     44  CG         7.4740   43.2990   47.5140 C.2    72  ASP72       0.3671
     45  OD1        7.6970   43.4370   46.3060 O.co2  72  ASP72      -0.2456
     46  OD2        6.2910   43.2810   47.9600 O.co2  72  ASP72      -0.2456
     47  N         11.7230   52.0080   41.2020 N.3   104  ILE104     -0.1245
     48  CA        11.0290   51.2540   42.2550 C.3   104  ILE104      0.1561
     49  C         11.7050   51.4380   43.6160 C.2   104  ILE104      0.2260
     50  O         11.0240   51.5060   44.6440 O.2   104  ILE104     -0.2867
     51  CB        10.7080   49.7610   41.8570 C.3   104  ILE104      0.0252
     52  CG1        9.7270   49.1050   42.8490 C.3   104  ILE104      0.0019
     53  CG2       11.9410   48.9250   41.7690 C.3   104  ILE104      0.0019
     54  CD1        8.3570   49.7420   42.9180 C.3   104  ILE104      0.0001
     55  N         10.4150   54.7390   44.8300 N.3   107  PHE107     -0.1227
     56  CA         9.0280   54.6260   45.2480 C.3   107  PHE107      0.1736
     57  C          8.9680   53.9390   46.6160 C.2   107  PHE107      0.2596
     58  O          8.1930   54.3220   47.4890 O.2   107  PHE107     -0.2718
     59  CB         8.2590   53.8360   44.1950 C.3   107  PHE107      0.0547
     60  CG         6.7990   53.7250   44.4650 C.ar  107  PHE107     -0.0202
     61  CD1        5.9310   54.6320   43.9020 C.ar  107  PHE107     -0.0042
     62  CD2        6.2730   52.6990   45.2520 C.ar  107  PHE107     -0.0042
     63  CE1        4.5610   54.5410   44.1290 C.ar  107  PHE107     -0.0003
     64  CE2        4.9010   52.6290   45.4920 C.ar  107  PHE107     -0.0003
     65  CZ         4.0640   53.5350   44.9280 C.ar  107  PHE107     -0.0000
     66  N          9.8080   52.9250   46.8020 N.am  108  THR108     -0.1953
     67  CA         9.8420   52.1810   48.0480 C.3   108  THR108      0.1897
     68  C         10.2630   53.1000   49.1890 C.2   108  THR108      0.2313
     69  O          9.6510   53.1070   50.2640 O.2   108  THR108     -0.2863
     70  CB        10.8010   50.9940   47.9380 C.3   108  THR108      0.1794
     71  OG1       10.3600   50.1410   46.8700 O.3   108  THR108     -0.2208
     72  CG2       10.8310   50.1890   49.2300 C.3   108  THR108      0.0378
     73  N          7.6820   55.5470   50.7040 N.3   111  GLY111     -0.1210
     74  CA         6.8690   54.9640   51.7790 C.3   111  GLY111      0.1956
     75  C          7.6590   54.5340   53.0120 C.2   111  GLY111      0.2611
     76  O          7.1390   54.5550   54.1320 O.2   111  GLY111     -0.2717
     77  N          8.9140   54.1450   52.7740 N.am  112  LEU112     -0.1979
     78  CA         9.8110   53.5560   53.7610 C.3   112  LEU112      0.1596
     79  C         11.1490   54.2870   53.7000 C.2   112  LEU112      0.2287
     80  O         12.1000   53.7810   53.1140 O.2   112  LEU112     -0.2864
     81  CB        10.0430   52.0660   53.4460 C.3   112  LEU112      0.0297
     82  CG         8.8360   51.1500   53.3850 C.3   112  LEU112      0.0022
     83  CD1        9.2840   49.8210   52.7370 C.3   112  LEU112      0.0001
     84  CD2        8.1870   50.9470   54.7720 C.3   112  LEU112      0.0001
     85  N         -0.6970   42.9960   39.2700 N.3   147  HIS147     -0.1241
     86  CA        -0.1030   43.9850   40.1880 C.3   147  HIS147      0.1621
     87  C          1.0810   44.7230   39.5390 C.2   147  HIS147      0.2264
     88  O          1.2730   45.9260   39.7390 O.2   147  HIS147     -0.2867
     89  CB         0.2690   43.2670   41.4730 C.3   147  HIS147      0.0745
     90  CG         1.3170   43.9510   42.2600 C.ar  147  HIS147      0.0817
     91  ND1        2.6490   43.6220   42.1330 N.ar  147  HIS147     -0.2268
     92  CD2        1.2520   44.9800   43.1430 C.ar  147  HIS147      0.1154
     93  CE1        3.3610   44.4360   42.8960 C.ar  147  HIS147      0.1986
     94  NE2        2.5430   45.2590   43.5240 N.ar  147  HIS147     -0.2212
     95  N          3.1530   39.1260   44.8920 N.3   166  CYS166     -0.1235
     96  CA         2.3240   40.2840   45.1670 C.3   166  CYS166      0.1677
     97  C          0.8970   40.2520   44.5810 C.2   166  CYS166      0.2270
     98  O          0.0710   41.1150   44.8850 O.2   166  CYS166     -0.2867
     99  CB         3.0190   41.5560   44.6940 C.3   166  CYS166      0.0956
    100  SG         4.6720   41.8310   45.2720 S.3   166  CYS166     -0.0801
    101  N         -3.4990   38.3770   47.8550 N.3   169  LYS169     -0.1245
    102  CA        -3.3800   39.0050   49.1700 C.3   169  LYS169      0.1561
    103  C         -4.7910   39.3740   49.6350 C.2   169  LYS169      0.2260
    104  O         -5.7490   39.2050   48.9010 O.2   169  LYS169     -0.2867
    105  CB        -2.4430   40.2210   49.1120 C.3   169  LYS169      0.0271
    106  CG        -2.8460   41.2240   48.0360 C.3   169  LYS169      0.0035
    107  CD        -1.6880   42.0740   47.5280 C.3   169  LYS169      0.0206
    108  CE        -2.1140   42.9360   46.3570 C.3   169  LYS169      0.1093
    109  NZ        -0.9580   43.5420   45.6250 N.3   169  LYS169     -0.1314
    110  N         -4.0150   46.8090   48.4950 N.3   173  GLY173     -0.1210
    111  CA        -2.5760   47.0240   48.4380 C.3   173  GLY173      0.1956
    112  C         -2.1630   48.0160   47.3620 C.2   173  GLY173      0.2611
    113  O         -2.9200   48.9240   47.0360 O.2   173  GLY173     -0.2717
    114  N         -0.9610   47.8210   46.8240 N.am  174  ASN174     -0.1974
    115  CA        -0.3640   48.7770   45.9070 C.3   174  ASN174      0.1688
    116  C         -0.9690   48.6290   44.5340 C.2   174  ASN174      0.2292
    117  O         -0.8350   47.5780   43.9230 O.2   174  ASN174     -0.2864
    118  CB         1.1630   48.5810   45.7870 C.3   174  ASN174      0.1181
    119  CG         1.8420   49.7510   45.0760 C.2   174  ASN174      0.2629
    120  OD1        1.2270   50.7960   44.8290 O.2   174  ASN174     -0.2716
    121  ND2        3.1260   49.5960   44.7560 N.am  174  ASN174     -0.0877
    122  N          1.2480   39.2140   50.7410 N.3   204  HIS204     -0.1241
    123  CA         1.1510   40.2290   51.7780 C.3   204  HIS204      0.1621
    124  C         -0.0030   39.8240   52.6620 C.2   204  HIS204      0.2264
    125  O         -0.7150   38.8760   52.3430 O.2   204  HIS204     -0.2867
    126  CB         0.9690   41.6420   51.1910 C.3   204  HIS204      0.0745
    127  CG         2.1290   42.0750   50.3740 C.ar  204  HIS204      0.0817
    128  ND1        3.3380   42.3830   50.9500 N.ar  204  HIS204     -0.2268
    129  CD2        2.2980   42.1990   49.0320 C.ar  204  HIS204      0.1154
    130  CE1        4.2030   42.6980   50.0030 C.ar  204  HIS204      0.1986
    131  NE2        3.6040   42.5900   48.8270 N.ar  204  HIS204     -0.2212
@<TRIPOS>BOND
     1    85    86    1
     2    87    88    2
     3    87    86    1
     4    86    89    1
     5    31    29   ar
     6    31    30   ar
     7    29    27   ar
     8    47    48    1
     9    89    90    1
    10    22    23    1
    11    30    28   ar
    12    53    51    1
    13    51    48    1
    14    51    52    1
    15    91    90   ar
    16    91    93   ar
    17    48    49    1
    18    90    92   ar
    19    27    28   ar
    20    27    26    1
    21    23    26    1
    22    23    24    1
    23    52    54    1
    24    93    94   ar
    25    92    94   ar
    26    49    50    2
    27    24    25    2
    28    24    32   am
    29    61    63   ar
    30    61    60   ar
    31   117   116    2
    32    63    65   ar
    33    59    60    1
    34    59    56    1
    35    60    62   ar
    36   116   115    1
    37    97    98    2
    38    97    96    1
    39    99    96    1
    40    99   100    1
    41    32    33    1
    42   121   119   am
    43   120   119    2
    44    55    56    1
    45    95    96    1
    46    65    64   ar
    47   119   118    1
    48    56    57    1
    49    62    64   ar
    50   109   108    1
    51   118   115    1
    52    33    36    1
    53    33    34    1
    54    38    36    1
    55   115   114    1
    56    45    44   ar
    57   108   107    1
    58    37    36    1
    59    57    66   am
    60    57    58    2
    61    66    67    1
    62   114   112   am
    63    71    70    1
    64    34    39   am
    65    34    35    2
    66   113   112    2
    67    39    40    1
    68   112   111    1
    69    41    40    1
    70    41    42    2
    71    44    46   ar
    72    44    43    1
    73   107   106    1
    74   101   102    1
    75    70    67    1
    76    70    72    1
    77    40    43    1
    78   106   105    1
    79    67    68    1
    80   111   110    1
    81   131   129   ar
    82   131   130   ar
    83   104   103    2
    84   129   127   ar
    85   105   102    1
    86   102   103    1
    87    68    69    2
    88    20    18   ar
    89    20    21   ar
    90    11    10    2
    91   130   128   ar
    92   127   128   ar
    93   127   126    1
    94    18    15   ar
    95    21    19   ar
    96    73    74    1
    97    10     9    1
    98   122   123    1
    99     9     8    1
   100     9    12    1
   101   126   123    1
   102    15    17   ar
   103    15    13   ar
   104    19    17   ar
   105   123   124    1
   106    74    75    1
   107    17    16   ar
   108    12    13    1
   109    13    14   ar
   110   125   124    2
   111    83    82    1
   112    77    75   am
   113    77    78    1
   114    75    76    2
   115    16    14   ar
   116    80    79    2
   117    82    81    1
   118    82    84    1
   119    81    78    1
   120    79    78    1
   121     6     5    1
   122     5     7    1
   123     5     2    1
   124     4     3    2
   125     3     2    1
   126     2     1    1
