@<TRIPOS>MOLECULE
tmp/3iogA00.pdb
 116 111 0 0 0
SMALL
GASTEIGER

@<TRIPOS>ATOM
      1  N          7.2730    3.7830   61.9970 N.3    21  VAL21      -0.1245
      2  CA         5.8860    4.2480   62.0610 C.3    21  VAL21       0.1561
      3  C          5.9630    5.7580   62.2400 C.2    21  VAL21       0.2260
      4  O          6.6660    6.2370   63.1380 O.2    21  VAL21      -0.2867
      5  CB         5.1630    3.5780   63.2290 C.3    21  VAL21       0.0252
      6  CG1        3.7700    4.1690   63.3960 C.3    21  VAL21       0.0019
      7  CG2        5.0960    2.0450   62.9860 C.3    21  VAL21       0.0019
      8  N         13.2370    8.8850   66.1640 N.3    41  TRP41      -0.1241
      9  CA        13.4060    7.4310   66.3300 C.3    41  TRP41       0.1605
     10  C         14.8180    6.9160   66.5690 C.2    41  TRP41       0.2264
     11  O         15.0030    6.0000   67.3730 O.2    41  TRP41      -0.2867
     12  CB        12.8910    6.7410   65.0750 C.3    41  TRP41       0.0550
     13  CG        11.4160    6.4990   64.9670 C.ar   41  TRP41       0.0003
     14  CD1       10.5730    7.0190   64.0310 C.ar   41  TRP41       0.0946
     15  CD2       10.6460    5.5820   65.7490 C.ar   41  TRP41       0.0152
     16  NE1        9.3140    6.4890   64.1930 N.ar   41  TRP41      -0.2442
     17  CE2        9.3310    5.6050   65.2390 C.ar   41  TRP41       0.0810
     18  CE3       10.9480    4.7260   66.8250 C.ar   41  TRP41       0.0012
     19  CZ2        8.3020    4.7940   65.7610 C.ar   41  TRP41       0.0191
     20  CZ3        9.9330    3.9300   67.3460 C.ar   41  TRP41       0.0001
     21  CH2        8.6280    3.9660   66.8120 C.ar   41  TRP41       0.0015
     22  N         10.2230    6.2280   75.6980 N.3    70  HIS70      -0.1241
     23  CA        10.1430    5.3020   74.5580 C.3    70  HIS70       0.1621
     24  C         11.0880    5.6560   73.4150 C.2    70  HIS70       0.2264
     25  O         11.5890    6.7930   73.2830 O.2    70  HIS70      -0.2867
     26  CB         8.7090    5.2270   74.0370 C.3    70  HIS70       0.0745
     27  CG         7.8200    4.3910   74.8900 C.ar   70  HIS70       0.0817
     28  ND1        6.5990    3.9160   74.4470 N.ar   70  HIS70      -0.2268
     29  CD2        7.9940    3.8830   76.1390 C.ar   70  HIS70       0.1154
     30  CE1        6.0630    3.1530   75.3860 C.ar   70  HIS70       0.1986
     31  NE2        6.8890    3.1070   76.4170 N.ar   70  HIS70      -0.2212
     32  N         10.4940    6.1310   70.2690 N.3    72  ASP72      -0.1239
     33  CA        10.0970    7.1770   69.3080 C.3    72  ASP72       0.1674
     34  C         10.3030    8.5780   69.8550 C.2    72  ASP72       0.2266
     35  O         10.2330    9.5250   69.0710 O.2    72  ASP72      -0.2867
     36  CB         8.6730    6.9630   68.7340 C.3    72  ASP72       0.1410
     37  CG         7.5810    6.8790   69.7770 C.2    72  ASP72       0.3668
     38  OD1        7.8330    6.7800   70.9850 O.co2  72  ASP72      -0.2456
     39  OD2        6.4020    6.8840   69.3710 O.co2  72  ASP72      -0.2456
     40  N         10.7530   -4.4670   72.5240 N.3   107  PHE107     -0.1227
     41  CA         9.3550   -4.3700   72.0990 C.3   107  PHE107      0.1736
     42  C          9.2710   -3.6780   70.7420 C.2   107  PHE107      0.2596
     43  O          8.5170   -4.0860   69.8500 O.2   107  PHE107     -0.2718
     44  CB         8.5450   -3.5990   73.1590 C.3   107  PHE107      0.0547
     45  CG         7.0830   -3.4740   72.8390 C.ar  107  PHE107     -0.0202
     46  CD1        6.1910   -4.4590   73.2430 C.ar  107  PHE107     -0.0042
     47  CD2        6.5950   -2.3640   72.1440 C.ar  107  PHE107     -0.0042
     48  CE1        4.8200   -4.3540   72.9540 C.ar  107  PHE107     -0.0003
     49  CE2        5.2320   -2.2570   71.8410 C.ar  107  PHE107     -0.0003
     50  CZ         4.3500   -3.2430   72.2490 C.ar  107  PHE107     -0.0000
     51  N         10.0770   -2.6380   70.5700 N.am  108  THR108     -0.1953
     52  CA        10.1450   -1.9000   69.3110 C.3   108  THR108      0.1897
     53  C         10.6010   -2.8170   68.1830 C.2   108  THR108      0.2313
     54  O         10.0090   -2.8390   67.0950 O.2   108  THR108     -0.2863
     55  CB        11.0940   -0.7110   69.4300 C.3   108  THR108      0.1794
     56  OG1       10.6360    0.1440   70.4870 O.3   108  THR108     -0.2208
     57  CG2       11.1250    0.1080   68.1260 C.3   108  THR108      0.0378
     58  N          8.0020   -5.3000   66.6940 N.3   111  GLY111     -0.1210
     59  CA         7.1580   -4.7140   65.6620 C.3   111  GLY111      0.1956
     60  C          7.9330   -4.2630   64.4260 C.2   111  GLY111      0.2611
     61  O          7.4100   -4.2950   63.3060 O.2   111  GLY111     -0.2717
     62  N          9.1840   -3.8360   64.6360 N.am  112  LEU112     -0.1979
     63  CA        10.0180   -3.2300   63.5970 C.3   112  LEU112      0.1596
     64  C         11.3730   -3.9210   63.6190 C.2   112  LEU112      0.2287
     65  O         12.3220   -3.4210   64.2190 O.2   112  LEU112     -0.2864
     66  CB        10.1850   -1.7320   63.8910 C.3   112  LEU112      0.0297
     67  CG         8.9010   -0.8990   63.9670 C.3   112  LEU112      0.0022
     68  CD1        9.1810    0.4210   64.6950 C.3   112  LEU112      0.0001
     69  CD2        8.3130   -0.6290   62.5670 C.3   112  LEU112      0.0001
     70  N         -0.6190    7.3210   78.4190 N.3   147  HIS147     -0.1241
     71  CA        -0.0610    6.3790   77.4590 C.3   147  HIS147      0.1621
     72  C          1.1310    5.6250   78.0630 C.2   147  HIS147      0.2264
     73  O          1.3120    4.4210   77.8000 O.2   147  HIS147     -0.2867
     74  CB         0.3210    7.1530   76.2080 C.3   147  HIS147      0.0745
     75  CG         1.2210    6.4070   75.2850 C.ar  147  HIS147      0.0817
     76  ND1        2.5880    6.5850   75.2860 N.ar  147  HIS147     -0.2268
     77  CD2        0.9560    5.4890   74.3270 C.ar  147  HIS147      0.1154
     78  CE1        3.1210    5.8090   74.3550 C.ar  147  HIS147      0.1986
     79  NE2        2.1520    5.1310   73.7650 N.ar  147  HIS147     -0.2212
     80  N          3.2000   11.1080   72.4090 N.3   166  CYS166     -0.1235
     81  CA         2.3810    9.9320   72.1310 C.3   166  CYS166      0.1677
     82  C          0.9930    9.9740   72.7760 C.2   166  CYS166      0.2270
     83  O          0.1460    9.1380   72.4620 O.2   166  CYS166     -0.2867
     84  CB         3.0840    8.6370   72.5840 C.3   166  CYS166      0.0956
     85  SG         4.7660    8.4270   72.0010 S.3   166  CYS166     -0.0801
     86  N         -3.3100   11.7460   69.5020 N.3   169  LYS169     -0.1245
     87  CA        -3.1710   11.2180   68.1410 C.3   169  LYS169      0.1561
     88  C         -4.5690   10.8060   67.6750 C.2   169  LYS169      0.2260
     89  O         -5.5390   10.9670   68.4170 O.2   169  LYS169     -0.2867
     90  CB        -2.1970   10.0280   68.1060 C.3   169  LYS169      0.0271
     91  CG        -2.6120    8.8600   69.0090 C.3   169  LYS169      0.0035
     92  CD        -1.4010    8.1630   69.6190 C.3   169  LYS169      0.0206
     93  CE        -1.8320    7.1020   70.6210 C.3   169  LYS169      0.1093
     94  NZ        -0.6480    6.6030   71.4180 N.3   169  LYS169     -0.1314
     95  N         -4.0590    3.1990   69.1840 N.3   173  GLY173     -0.1210
     96  CA        -2.6610    2.8050   69.3680 C.3   173  GLY173      0.1956
     97  C         -2.4360    1.7480   70.4320 C.2   173  GLY173      0.2611
     98  O         -3.3810    1.1050   70.9000 O.2   173  GLY173     -0.2717
     99  N         -1.1720    1.5910   70.8200 N.am  174  ASN174     -0.1974
    100  CA        -0.7710    0.5660   71.7810 C.3   174  ASN174      0.1688
    101  C         -1.0280    1.0190   73.2060 C.2   174  ASN174      0.2292
    102  O         -0.6770    2.1550   73.5890 O.2   174  ASN174     -0.2864
    103  CB         0.7190    0.2110   71.6350 C.3   174  ASN174      0.1181
    104  CG         1.1690   -0.8130   72.6680 C.2   174  ASN174      0.2629
    105  OD1        0.5740   -1.8940   72.8010 O.2   174  ASN174     -0.2716
    106  ND2        2.1930   -0.4810   73.4140 N.am  174  ASN174     -0.0877
    107  N          1.3870   11.0390   66.5210 N.3   204  HIS204     -0.1241
    108  CA         1.3390   10.0500   65.4480 C.3   204  HIS204      0.1621
    109  C          0.1710   10.4580   64.5880 C.2   204  HIS204      0.2264
    110  O         -0.5480   11.3870   64.9410 O.2   204  HIS204     -0.2867
    111  CB         1.1480    8.6240   66.0140 C.3   204  HIS204      0.0745
    112  CG         2.2990    8.1690   66.8580 C.ar  204  HIS204      0.0817
    113  ND1        3.5360    7.8770   66.3280 N.ar  204  HIS204     -0.2268
    114  CD2        2.4110    8.0070   68.1990 C.ar  204  HIS204      0.1154
    115  CE1        4.3620    7.5430   67.3090 C.ar  204  HIS204      0.1986
    116  NE2        3.7090    7.6230   68.4600 N.ar  204  HIS204     -0.2212
@<TRIPOS>BOND
     1     1     2    1
     2     2     3    1
     3     2     5    1
     4     3     4    2
     5    69    67    1
     6     7     5    1
     7     5     6    1
     8    61    60    2
     9    63    64    1
    10    63    66    1
    11    63    62    1
    12    64    65    2
    13    66    67    1
    14    67    68    1
    15    14    16   ar
    16    14    13   ar
    17    16    17   ar
    18    60    62   am
    19    60    59    1
    20   109   110    2
    21   109   108    1
    22    13    12    1
    23    13    15   ar
    24    12     9    1
    25    17    15   ar
    26    17    19   ar
    27   108   111    1
    28   108   107    1
    29    59    58    1
    30    15    18   ar
    31    19    21   ar
    32   111   112    1
    33     8     9    1
    34   113   112   ar
    35   113   115   ar
    36     9    10    1
    37    10    11    2
    38    21    20   ar
    39    18    20   ar
    40   112   114   ar
    41    54    53    2
    42   115   116   ar
    43    88    87    1
    44    88    89    2
    45    90    87    1
    46    90    91    1
    47    57    55    1
    48    87    86    1
    49    53    52    1
    50   114   116   ar
    51    36    33    1
    52    36    37    1
    53    91    92    1
    54    35    34    2
    55    95    96    1
    56    33    34    1
    57    33    32    1
    58    52    55    1
    59    52    51    1
    60    96    97    1
    61    39    37   ar
    62    55    56    1
    63    92    93    1
    64    37    38   ar
    65    43    42    2
    66    97    99   am
    67    97    98    2
    68    51    42   am
    69    93    94    1
    70    42    41    1
    71    99   100    1
    72   103   100    1
    73   103   104    1
    74   100   101    1
    75    49    47   ar
    76    49    50   ar
    77    85    84    1
    78    41    40    1
    79    41    44    1
    80    81    80    1
    81    81    84    1
    82    81    82    1
    83    47    45   ar
    84    50    48   ar
    85    83    82    2
    86   104   105    2
    87   104   106   am
    88    45    44    1
    89    45    46   ar
    90    48    46   ar
    91   101   102    2
    92    25    24    2
    93    24    23    1
    94    79    77   ar
    95    79    78   ar
    96    26    23    1
    97    26    27    1
    98    77    75   ar
    99    78    76   ar
   100    28    27   ar
   101    28    30   ar
   102    23    22    1
   103    27    29   ar
   104    75    76   ar
   105    75    74    1
   106    30    31   ar
   107    29    31   ar
   108    74    71    1
   109    71    72    1
   110    71    70    1
   111    73    72    2
