@<TRIPOS>MOLECULE
tmp/3ioiA00.pdb
 146 143 0 0 0
SMALL
GASTEIGER

@<TRIPOS>ATOM
      1  N         17.3090   26.1060    1.8660 N.3    57  PHE57      -0.1227
      2  CA        17.5920   26.6540    3.1780 C.3    57  PHE57       0.1736
      3  C         18.6070   25.7940    3.8890 C.2    57  PHE57       0.2595
      4  O         18.5120   24.5700    3.9090 O.2    57  PHE57      -0.2718
      5  CB        16.2880   26.7790    3.9850 C.3    57  PHE57       0.0547
      6  CG        15.3830   27.8270    3.4250 C.ar   57  PHE57      -0.0202
      7  CD1       14.7400   27.6130    2.2170 C.ar   57  PHE57      -0.0042
      8  CD2       15.2030   29.0300    4.0850 C.ar   57  PHE57      -0.0042
      9  CE1       13.9190   28.5810    1.6600 C.ar   57  PHE57      -0.0003
     10  CE2       14.3950   30.0180    3.5350 C.ar   57  PHE57      -0.0003
     11  CZ        13.7470   29.7850    2.3250 C.ar   57  PHE57      -0.0000
     12  N         19.6020   26.4330    4.4680 N.am   58  ALA58      -0.1966
     13  CA        20.6130   25.6900    5.1840 C.3    58  ALA58       0.1728
     14  C         20.9650   26.4620    6.4260 C.2    58  ALA58       0.2616
     15  O         21.8750   27.2760    6.4380 O.2    58  ALA58      -0.2715
     16  CB        21.8420   25.4640    4.2990 C.3    58  ALA58       0.0334
     17  N         20.2050   26.2000    7.4740 N.am   59  ILE59      -0.1963
     18  CA        20.3150   26.9500    8.7050 C.3    59  ILE59       0.1727
     19  C         20.8790   26.0530    9.7950 C.2    59  ILE59       0.2616
     20  O         20.6210   24.8500    9.8100 O.2    59  ILE59      -0.2715
     21  CB        18.9370   27.5390    9.0530 C.3    59  ILE59       0.0290
     22  CG1       18.5810   28.6050    7.9980 C.3    59  ILE59       0.0022
     23  CG2       18.9260   28.1000   10.4630 C.3    59  ILE59       0.0023
     24  CD1       17.0960   28.8460    7.8320 C.3    59  ILE59       0.0001
     25  N         21.6900   26.6390   10.6760 N.am   60  LYS60      -0.1977
     26  CA        22.3260   25.8880   11.7570 C.3    60  LYS60       0.1596
     27  C         23.1620   24.7320   11.1910 C.2    60  LYS60       0.2287
     28  O         23.9680   24.9380   10.2800 O.2    60  LYS60      -0.2864
     29  CB        21.2870   25.3850   12.7640 C.3    60  LYS60       0.0298
     30  CG        20.4810   26.4900   13.4140 C.3    60  LYS60       0.0038
     31  CD        19.8080   26.0150   14.6990 C.3    60  LYS60       0.0206
     32  CE        20.8340   25.7750   15.8020 C.3    60  LYS60       0.1093
     33  NZ        20.2100   25.6310   17.1560 N.3    60  LYS60      -0.1314
     34  N         22.6230   22.3820    9.2380 N.3    62  TYR62      -0.1241
     35  CA        22.3330   21.9010    7.8910 C.3    62  TYR62       0.1605
     36  C         23.2020   22.5420    6.8190 C.2    62  TYR62       0.2264
     37  O         23.1920   22.1100    5.6630 O.2    62  TYR62      -0.2867
     38  CB        20.8570   22.1040    7.5450 C.3    62  TYR62       0.0534
     39  CG        19.9530   21.0820    8.1750 C.ar   62  TYR62      -0.0201
     40  CD1       19.1780   20.2580    7.3900 C.ar   62  TYR62      -0.0009
     41  CD2       19.8850   20.9340    9.5600 C.ar   62  TYR62      -0.0009
     42  CE1       18.3220   19.3020    7.9480 C.ar   62  TYR62       0.0417
     43  CE2       19.0410   19.9800   10.1300 C.ar   62  TYR62       0.0417
     44  CZ        18.2640   19.1700    9.3120 C.ar   62  TYR62       0.1957
     45  OH        17.4030   18.2260    9.8640 O.3    62  TYR62      -0.2866
     46  N          9.2070   25.5690    8.7910 N.3   114  MET114     -0.1245
     47  CA         7.9580   26.0800    8.2460 C.3   114  MET114      0.1570
     48  C          8.1540   27.4210    7.5250 C.2   114  MET114      0.2261
     49  O          7.6610   27.5850    6.4020 O.2   114  MET114     -0.2867
     50  CB         6.8890   26.1800    9.3420 C.3   114  MET114      0.0387
     51  CG         6.6150   24.8490   10.0420 C.3   114  MET114      0.0595
     52  SD         5.3810   24.8700   11.3750 S.3   114  MET114     -0.1393
     53  CE         3.8470   24.9370   10.4530 C.3   114  MET114      0.0692
     54  N         10.1500   28.7680    5.6640 N.3   116  ARG116     -0.1245
     55  CA        10.5790   28.8370    4.2810 C.3   116  ARG116      0.1563
     56  C          9.4720   29.4890    3.4300 C.2   116  ARG116      0.2260
     57  O          9.7420   30.2160    2.4850 O.2   116  ARG116     -0.2867
     58  CB        10.8960   27.4370    3.7870 C.3   116  ARG116      0.0307
     59  CG        12.0540   26.7980    4.5630 C.3   116  ARG116      0.0489
     60  CD        12.5090   25.5040    3.9340 C.3   116  ARG116      0.2205
     61  NE        11.5570   24.4370    4.2130 N.pl3 116  ARG116     -0.0865
     62  CZ        11.6340   23.2220    3.6830 C.cat 116  ARG116      0.5346
     63  NH1       12.6060   22.9280    2.8290 N.pl3 116  ARG116      0.1354
     64  NH2       10.7190   22.3160    3.9940 N.pl3 116  ARG116      0.1354
     65  N         14.5090   20.7110   -0.1880 N.3   139  ASP139     -0.1225
     66  CA        15.2850   20.4430    1.0260 C.3   139  ASP139      0.1805
     67  C         16.7740   20.3230    0.6960 C.2   139  ASP139      0.2598
     68  O         17.1560   19.9300   -0.4140 O.2   139  ASP139     -0.2718
     69  CB        14.8630   19.0930    1.6190 C.3   139  ASP139      0.1424
     70  CG        13.6190   19.1780    2.4980 C.2   139  ASP139      0.3668
     71  OD1       12.8380   20.1370    2.4010 O.co2 139  ASP139     -0.2456
     72  OD2       13.4330   18.2280    3.2960 O.co2 139  ASP139     -0.2456
     73  N         17.6220   20.6600    1.6770 N.am  140  VAL140     -0.1966
     74  CA        19.0660   20.6610    1.4570 C.3   140  VAL140      0.1727
     75  C         19.7310   19.3220    1.7890 C.2   140  VAL140      0.2616
     76  O         20.8400   19.0650    1.2970 O.2   140  VAL140     -0.2715
     77  CB        19.7390   21.7930    2.2840 C.3   140  VAL140      0.0290
     78  CG1       19.7860   21.4360    3.7710 C.3   140  VAL140      0.0023
     79  CG2       21.1580   22.0730    1.7530 C.3   140  VAL140      0.0023
     80  N         19.0690   18.5040    2.6090 N.am  141  ASP141     -0.1971
     81  CA        19.6240   17.2310    3.0720 C.3   141  ASP141      0.1709
     82  C         19.4420   16.1490    2.0100 C.2   141  ASP141      0.2293
     83  O         18.8810   15.0750    2.2470 O.2   141  ASP141     -0.2864
     84  CB        18.9790   16.8100    4.4030 C.3   141  ASP141      0.1436
     85  CG        17.4700   16.6130    4.3000 C.2   141  ASP141      0.3671
     86  OD1       16.7800   17.3390    3.5650 O.co2 141  ASP141     -0.2456
     87  OD2       16.9380   15.6920    4.9630 O.co2 141  ASP141     -0.2456
     88  N          6.9530   17.7260    0.8640 N.3   195  GLY195     -0.1210
     89  CA         7.3880   19.0940    1.1080 C.3   195  GLY195      0.1956
     90  C          8.7700   19.4250    0.5560 C.2   195  GLY195      0.2611
     91  O          9.1140   20.5890    0.3970 O.2   195  GLY195     -0.2717
     92  N          9.5550   18.4020    0.2710 N.am  196  ALA196     -0.1979
     93  CA        10.9700   18.5700   -0.0600 C.3   196  ALA196      0.1597
     94  C         11.2590   18.9420   -1.5080 C.2   196  ALA196      0.2287
     95  O         12.4020   19.2110   -1.8570 O.2   196  ALA196     -0.2864
     96  CB        11.7290   17.3100    0.3090 C.3   196  ALA196      0.0319
     97  N          2.3270   17.7790    9.8650 N.3   228  TRP228     -0.1227
     98  CA         3.6040   17.7940    9.1460 C.3   228  TRP228      0.1737
     99  C          3.9240   19.1910    8.6400 C.2   228  TRP228      0.2595
    100  O          4.5390   19.3670    7.5940 O.2   228  TRP228     -0.2718
    101  CB         3.6250   16.7590    8.0080 C.3   228  TRP228      0.0564
    102  CG         3.7200   15.3680    8.5680 C.ar  228  TRP228      0.0003
    103  CD1        2.7170   14.4570    8.6510 C.ar  228  TRP228      0.0946
    104  CD2        4.8630   14.7700    9.1840 C.ar  228  TRP228      0.0152
    105  NE1        3.1670   13.3090    9.2700 N.ar  228  TRP228     -0.2442
    106  CE2        4.4840   13.4790    9.6030 C.ar  228  TRP228      0.0810
    107  CE3        6.1730   15.1990    9.4170 C.ar  228  TRP228      0.0012
    108  CZ2        5.3700   12.6090   10.2400 C.ar  228  TRP228      0.0191
    109  CZ3        7.0520   14.3320   10.0480 C.ar  228  TRP228      0.0001
    110  CH2        6.6450   13.0530   10.4520 C.ar  228  TRP228      0.0015
    111  N          3.4910   20.1840    9.4060 N.am  229  HIS229     -0.1961
    112  CA         3.9560   21.5590    9.2100 C.3   229  HIS229      0.1787
    113  C          3.6940   22.0620    7.7910 C.2   229  HIS229      0.2620
    114  O          2.5650   21.9350    7.2910 O.2   229  HIS229     -0.2715
    115  CB         5.4280   21.6440    9.6180 C.3   229  HIS229      0.0785
    116  CG         5.6930   20.9700   10.9260 C.ar  229  HIS229      0.0821
    117  ND1        5.2930   21.5120   12.1290 N.ar  229  HIS229     -0.2267
    118  CD2        6.2240   19.7590   11.2130 C.ar  229  HIS229      0.1154
    119  CE1        5.6110   20.6830   13.1070 C.ar  229  HIS229      0.1986
    120  NE2        6.1730   19.6100   12.5780 N.ar  229  HIS229     -0.2212
    121  N          4.7050   22.6270    7.1330 N.am  230  ASP230     -0.1957
    122  CA         4.5090   23.1480    5.7800 C.3   230  ASP230      0.1840
    123  C          4.0460   22.0960    4.7940 C.2   230  ASP230      0.2621
    124  O          3.3370   22.4200    3.8510 O.2   230  ASP230     -0.2715
    125  CB         5.8050   23.7910    5.2630 C.3   230  ASP230      0.1450
    126  CG         7.0010   22.8460    5.3770 C.2   230  ASP230      0.3671
    127  OD1        7.3590   22.4600    6.5130 O.co2 230  ASP230     -0.2456
    128  OD2        7.5720   22.4700    4.3460 O.co2 230  ASP230     -0.2456
    129  N          4.4490   20.8490    4.9840 N.am  231  GLU231     -0.1977
    130  CA         4.0360   19.8110    4.0400 C.3   231  GLU231      0.1602
    131  C          2.5240   19.5900    4.1120 C.2   231  GLU231      0.2287
    132  O          1.8770   19.3330    3.0770 O.2   231  GLU231     -0.2864
    133  CB         4.7910   18.5160    4.3150 C.3   231  GLU231      0.0415
    134  CG         4.4260   17.3510    3.4330 C.3   231  GLU231      0.1163
    135  CD         5.3570   16.1820    3.6910 C.2   231  GLU231      0.3649
    136  OE1        5.0490   15.3500    4.5680 O.co2 231  GLU231     -0.2457
    137  OE2        6.4530   16.1360    3.0800 O.co2 231  GLU231     -0.2457
    138  N         21.2610   12.0100    7.6110 N.3   274  LYS274     -0.1245
    139  CA        21.4510   13.2180    8.4040 C.3   274  LYS274      0.1561
    140  C         22.2670   12.9540    9.6680 C.2   274  LYS274      0.2260
    141  O         23.2980   13.5890    9.8880 O.2   274  LYS274     -0.2867
    142  CB        20.1040   13.8480    8.7580 C.3   274  LYS274      0.0271
    143  CG        19.3140   14.3350    7.5530 C.3   274  LYS274      0.0035
    144  CD        18.3590   15.4530    7.9420 C.3   274  LYS274      0.0206
    145  CE        17.1210   14.9300    8.6530 C.3   274  LYS274      0.1093
    146  NZ        16.1300   14.3570    7.6990 N.3   274  LYS274     -0.1314
@<TRIPOS>BOND
     1    95    94    2
     2    94    93    1
     3    68    67    2
     4    65    66    1
     5    93    92    1
     6    93    96    1
     7    92    90   am
     8    91    90    2
     9    90    89    1
    10    67    66    1
    11    67    73   am
    12    88    89    1
    13    66    69    1
    14    76    75    2
    15    74    73    1
    16    74    75    1
    17    74    77    1
    18    69    70    1
    19     9     7   ar
    20     9    11   ar
    21    79    77    1
    22    75    80   am
    23     1     2    1
    24    82    83    2
    25    82    81    1
    26     7     6   ar
    27    77    78    1
    28    11    10   ar
    29    71    70   ar
    30    57    56    2
    31    70    72   ar
    32    80    81    1
    33    63    62    1
    34    81    84    1
    35   132   131    2
    36   137   135   ar
    37     2     3    1
    38     2     5    1
    39     6     5    1
    40     6     8   ar
    41    56    55    1
    42   134   135    1
    43   134   133    1
    44    10     8   ar
    45    86    85   ar
    46    62    64    1
    47    62    61    2
    48   135   136   ar
    49    58    55    1
    50    58    59    1
    51   124   123    2
    52     3     4    2
    53     3    12   am
    54    60    61    1
    55    60    59    1
    56   130   131    1
    57   130   133    1
    58   130   129    1
    59    55    54    1
    60    16    13    1
    61    85    84    1
    62    85    87   ar
    63   128   126   ar
    64    12    13    1
    65   123   129   am
    66   123   122    1
    67    13    14    1
    68   125   126    1
    69   125   122    1
    70   126   127   ar
    71    37    36    2
    72   122   121    1
    73    49    48    2
    74    14    15    2
    75    14    17   am
    76    36    35    1
    77   121   113   am
    78   114   113    2
    79    40    42   ar
    80    40    39   ar
    81    17    18    1
    82    48    47    1
    83    38    35    1
    84    38    39    1
    85   143   144    1
    86   143   142    1
    87   100    99    2
    88   138   139    1
    89   146   145    1
    90   113   112    1
    91    24    22    1
    92    35    34    1
    93   144   145    1
    94    42    44   ar
    95    22    21    1
    96   101   102    1
    97   101    98    1
    98    39    41   ar
    99    47    46    1
   100    47    50    1
   101   139   142    1
   102   139   140    1
   103   102   103   ar
   104   102   104   ar
   105    99    98    1
   106    99   111   am
   107   103   105   ar
   108    18    21    1
   109    18    19    1
   110    21    23    1
   111    98    97    1
   112   104   107   ar
   113   104   106   ar
   114   112   111    1
   115   112   115    1
   116   105   106   ar
   117    44    45    1
   118    44    43   ar
   119    50    51    1
   120   107   109   ar
   121    41    43   ar
   122   106   108   ar
   123   115   116    1
   124   140   141    2
   125    19    20    2
   126    19    25   am
   127    51    52    1
   128   109   110   ar
   129   108   110   ar
   130    28    27    2
   131    53    52    1
   132    25    26    1
   133   116   118   ar
   134   116   117   ar
   135    27    26    1
   136   118   120   ar
   137    26    29    1
   138   117   119   ar
   139   120   119   ar
   140    29    30    1
   141    30    31    1
   142    31    32    1
   143    32    33    1
