@<TRIPOS>MOLECULE
tmp/3iokA00.pdb
 146 138 0 0 0
SMALL
GASTEIGER

@<TRIPOS>ATOM
      1  N         13.9250    9.8590   10.5300 N.3    14  LEU14      -0.1231
      2  CA        14.8010    9.8190    9.3580 C.3    14  LEU14       0.1693
      3  C         15.7410   11.0180    9.2830 C.2    14  LEU14       0.2593
      4  O         16.9020   10.8810    8.8970 O.2    14  LEU14      -0.2718
      5  CB        13.9880    9.6860    8.0610 C.3    14  LEU14       0.0284
      6  CG        13.4730    8.2920    7.6880 C.3    14  LEU14       0.0019
      7  CD1       12.4080    8.3590    6.5960 C.3    14  LEU14       0.0001
      8  CD2       14.6210    7.3610    7.2820 C.3    14  LEU14       0.0001
      9  N         15.2330   12.1890    9.6490 N.am   15  GLY15      -0.1942
     10  CA        16.0190   13.4080    9.6040 C.3    15  GLY15       0.2014
     11  C         15.2110   14.6350    9.9540 C.2    15  GLY15       0.2639
     12  O         13.9790   14.5940    9.9700 O.2    15  GLY15      -0.2714
     13  N         15.9170   15.7220   10.2520 N.am   16  LYS16      -0.1963
     14  CA        15.3060   17.0240   10.5000 C.3    16  LYS16       0.1728
     15  C         15.8040   18.0110    9.4520 C.2    16  LYS16       0.2616
     16  O         16.9040   17.8510    8.9100 O.2    16  LYS16      -0.2715
     17  CB        15.6550   17.5400   11.9020 C.3    16  LYS16       0.0311
     18  CG        15.1700   16.6610   13.0570 C.3    16  LYS16       0.0038
     19  CD        13.8200   17.1130   13.5920 C.3    16  LYS16       0.0206
     20  CE        13.5400   16.5110   14.9690 C.3    16  LYS16       0.1093
     21  NZ        12.2850   17.0520   15.5760 N.3    16  LYS16      -0.1314
     22  N         14.9890   19.0240    9.1700 N.am   17  GLY17      -0.1955
     23  CA        15.3290   20.0580    8.2020 C.3    17  GLY17       0.1869
     24  C         15.0670   21.4540    8.7390 C.2    17  GLY17       0.2309
     25  O         15.3050   21.7440    9.9150 O.2    17  GLY17      -0.2863
     26  N         11.1780   14.4390    9.2710 N.3    20  VAL20      -0.1245
     27  CA        10.7630   13.3530    8.3890 C.3    20  VAL20       0.1561
     28  C         10.9230   12.0190    9.1190 C.2    20  VAL20       0.2260
     29  O         11.9810   11.7320    9.6910 O.2    20  VAL20      -0.2867
     30  CB        11.5590   13.3500    7.0530 C.3    20  VAL20       0.0252
     31  CG1       11.0600   12.2500    6.1230 C.3    20  VAL20       0.0019
     32  CG2       11.4670   14.7010    6.3720 C.3    20  VAL20       0.0019
     33  N          7.3680    7.5780    3.9550 N.3    37  ALA37      -0.1245
     34  CA         8.0060    8.7010    4.6300 C.3    37  ALA37       0.1562
     35  C          6.9580    9.7560    4.9400 C.2    37  ALA37       0.2260
     36  O          6.1100   10.0680    4.1040 O.2    37  ALA37      -0.2867
     37  CB         9.1070    9.2860    3.7710 C.3    37  ALA37       0.0290
     38  N         10.7620   12.9800   -5.8730 N.3    68  VAL68      -0.1245
     39  CA        10.1250   12.0810   -4.9110 C.3    68  VAL68       0.1561
     40  C          8.6040   12.0910   -5.1200 C.2    68  VAL68       0.2260
     41  O          8.0270   13.1360   -5.4210 O.2    68  VAL68      -0.2867
     42  CB        10.5180   12.4280   -3.4380 C.3    68  VAL68       0.0252
     43  CG1        9.8160   13.6900   -2.9620 C.3    68  VAL68       0.0019
     44  CG2       10.1950   11.2840   -2.5150 C.3    68  VAL68       0.0019
     45  N          4.9100   10.5300    1.6230 N.3    86  MET86      -0.1230
     46  CA         5.6990   10.3300    0.4120 C.3    86  MET86       0.1702
     47  C          6.1820    8.8960    0.3230 C.2    86  MET86       0.2592
     48  O          6.1660    8.1650    1.3150 O.2    86  MET86      -0.2718
     49  CB         6.9050   11.2710    0.4060 C.3    86  MET86       0.0401
     50  CG         6.5590   12.7410    0.2140 C.3    86  MET86       0.0596
     51  SD         7.9130   13.8680    0.6120 S.3    86  MET86      -0.1393
     52  CE         8.0090   13.7010    2.4100 C.3    86  MET86       0.0692
     53  N          6.6150    8.4890   -0.8680 N.am   87  GLU87      -0.1966
     54  CA         7.3160    7.2270   -1.0090 C.3    87  GLU87       0.1733
     55  C          8.5600    7.2150   -0.1040 C.2    87  GLU87       0.2616
     56  O          9.2190    8.2290    0.0700 O.2    87  GLU87      -0.2715
     57  CB         7.6880    6.9560   -2.4780 C.3    87  GLU87       0.0429
     58  CG         8.6380    7.9900   -3.0900 C.3    87  GLU87       0.1163
     59  CD         9.1040    7.6360   -4.5050 C.2    87  GLU87       0.3649
     60  OE1        9.0170    6.4510   -4.9160 O.co2  87  GLU87      -0.2457
     61  OE2        9.5700    8.5560   -5.2070 O.co2  87  GLU87      -0.2457
     62  N          8.8460    6.0660    0.4950 N.am   88  TYR88      -0.1960
     63  CA        10.0880    5.8760    1.2260 C.3    88  TYR88       0.1771
     64  C         11.1930    5.4700    0.2490 C.2    88  TYR88       0.2619
     65  O         11.0680    4.4590   -0.4270 O.2    88  TYR88      -0.2715
     66  CB         9.9240    4.8080    2.3040 C.3    88  TYR88       0.0574
     67  CG        11.2020    4.5080    3.0480 C.ar   88  TYR88      -0.0198
     68  CD1       11.7910    5.4700    3.8570 C.ar   88  TYR88      -0.0009
     69  CD2       11.8200    3.2540    2.9500 C.ar   88  TYR88      -0.0009
     70  CE1       12.9700    5.2080    4.5420 C.ar   88  TYR88       0.0417
     71  CE2       13.0050    2.9820    3.6420 C.ar   88  TYR88       0.0417
     72  CZ        13.5720    3.9730    4.4300 C.ar   88  TYR88       0.1957
     73  OH        14.7450    3.7480    5.1310 O.3    88  TYR88      -0.2866
     74  N         12.2670    6.2540    0.1930 N.am   89  LEU89      -0.1977
     75  CA        13.4180    5.9480   -0.6660 C.3    89  LEU89       0.1596
     76  C         14.5230    5.3250    0.1840 C.2    89  LEU89       0.2287
     77  O         15.1930    6.0200    0.9390 O.2    89  LEU89      -0.2864
     78  CB        13.8940    7.2040   -1.4220 C.3    89  LEU89       0.0297
     79  CG        12.8480    7.8250   -2.3630 C.3    89  LEU89       0.0022
     80  CD1       13.4140    9.0090   -3.1250 C.3    89  LEU89       0.0001
     81  CD2       12.2950    6.8000   -3.3380 C.3    89  LEU89       0.0001
     82  N         18.2860    6.3260    1.3890 N.3    92  GLY92      -0.1210
     83  CA        18.4330    7.5620    2.1750 C.3    92  GLY92       0.1956
     84  C         18.9610    8.7840    1.4430 C.2    92  GLY92       0.2612
     85  O         18.8080    8.9000    0.2250 O.2    92  GLY92      -0.2717
     86  N         19.5570    9.7120    2.1980 N.am   93  SER93      -0.1952
     87  CA        20.1240   10.9350    1.6300 C.3    93  SER93       0.1924
     88  C         21.3650   10.6520    0.7910 C.2    93  SER93       0.2314
     89  O         22.1990    9.8240    1.1600 O.2    93  SER93      -0.2863
     90  CB        20.4700   11.9490    2.7200 C.3    93  SER93       0.2116
     91  OG        21.1870   13.0520    2.1840 O.3    93  SER93      -0.2180
     92  N         24.6910   11.2040    2.7750 N.3    96  ASP96      -0.1239
     93  CA        25.1680   10.0670    3.5750 C.3    96  ASP96       0.1674
     94  C         25.5910    8.8880    2.7060 C.2    96  ASP96       0.2266
     95  O         26.5820    8.2120    2.9990 O.2    96  ASP96      -0.2867
     96  CB        24.0950    9.6000    4.5630 C.3    96  ASP96       0.1410
     97  CG        23.7630   10.6450    5.6250 C.2    96  ASP96       0.3668
     98  OD1       24.5940   11.5470    5.8990 O.co2  96  ASP96      -0.2456
     99  OD2       22.6530   10.5520    6.1970 O.co2  96  ASP96      -0.2456
    100  N         22.0890   17.6660    0.2350 N.3   137  ARG137     -0.1231
    101  CA        21.2990   17.3880    1.4510 C.3   137  ARG137      0.1694
    102  C         19.7990   17.2400    1.1410 C.2   137  ARG137      0.2592
    103  O         19.0300   16.7710    1.9950 O.2   137  ARG137     -0.2718
    104  CB        21.5230   18.4520    2.5380 C.3   137  ARG137      0.0321
    105  CG        20.9290   19.8080    2.2050 C.3   137  ARG137      0.0489
    106  CD        20.9580   20.7970    3.3800 C.3   137  ARG137      0.2205
    107  NE        20.2180   22.0110    3.0290 N.pl3 137  ARG137     -0.0865
    108  CZ        20.2210   23.1470    3.7230 C.cat 137  ARG137      0.5346
    109  NH1       20.9440   23.2640    4.8360 N.pl3 137  ARG137      0.1354
    110  NH2       19.4930   24.1790    3.2950 N.pl3 137  ARG137      0.1354
    111  N         19.4040   17.6350   -0.0720 N.am  138  ASN138     -0.1960
    112  CA        18.0000   17.5950   -0.5120 C.3   138  ASN138      0.1819
    113  C         17.7380   16.5800   -1.6280 C.2   138  ASN138      0.2621
    114  O         16.6850   16.5880   -2.2770 O.2   138  ASN138     -0.2715
    115  CB        17.5270   19.0030   -0.8910 C.3   138  ASN138      0.1195
    116  CG        17.3740   19.8990    0.3230 C.2   138  ASN138      0.2630
    117  OD1       17.0020   19.4320    1.3900 O.2   138  ASN138     -0.2716
    118  ND2       17.6710   21.1760    0.1730 N.am  138  ASN138     -0.0877
    119  N         18.7060   15.6860   -1.8120 N.am  139  ILE139     -0.1963
    120  CA        18.6310   14.6290   -2.8050 C.3   139  ILE139      0.1727
    121  C         18.5880   13.2900   -2.0700 C.2   139  ILE139      0.2616
    122  O         19.3220   13.0830   -1.0990 O.2   139  ILE139     -0.2715
    123  CB        19.8410   14.6870   -3.8070 C.3   139  ILE139      0.0290
    124  CG1       19.8360   16.0190   -4.5690 C.3   139  ILE139      0.0022
    125  CG2       19.7780   13.5220   -4.7880 C.3   139  ILE139      0.0023
    126  CD1       21.1810   16.4130   -5.1790 C.3   139  ILE139      0.0001
    127  N         17.7170   12.3980   -2.5390 N.am  140  LEU140     -0.1977
    128  CA        17.5420   11.0670   -1.9650 C.3   140  LEU140      0.1596
    129  C         17.9410    9.9870   -2.9640 C.2   140  LEU140      0.2287
    130  O         17.9320   10.2190   -4.1700 O.2   140  LEU140     -0.2864
    131  CB        16.0840   10.8880   -1.5190 C.3   140  LEU140      0.0297
    132  CG        15.5990   11.8330   -0.4220 C.3   140  LEU140      0.0022
    133  CD1       14.0670   11.8610   -0.3300 C.3   140  LEU140      0.0001
    134  CD2       16.2330   11.4660    0.9270 C.3   140  LEU140      0.0001
    135  N         14.1990   15.5910   -3.2900 N.3   150  GLY150     -0.1210
    136  CA        13.3380   15.0360   -2.2320 C.3   150  GLY150      0.1956
    137  C         12.6970   15.9810   -1.2370 C.2   150  GLY150      0.2611
    138  O         11.9570   15.5440   -0.3540 O.2   150  GLY150     -0.2717
    139  N         12.9820   17.2710   -1.3610 N.am  151  ASP151     -0.1973
    140  CA        12.3920   18.2780   -0.4880 C.3   151  ASP151      0.1709
    141  C         12.1920   19.5500   -1.2850 C.2   151  ASP151      0.2293
    142  O         13.0270   19.8820   -2.1340 O.2   151  ASP151     -0.2864
    143  CB        13.2750   18.5620    0.7320 C.3   151  ASP151      0.1436
    144  CG        12.5590   19.3850    1.7780 C.2   151  ASP151      0.3671
    145  OD1       11.8130   18.8020    2.5980 O.co2 151  ASP151     -0.2456
    146  OD2       12.7170   20.6250    1.7700 O.co2 151  ASP151     -0.2456
@<TRIPOS>BOND
     1    38    39    1
     2    41    40    2
     3    61    59   ar
     4   126   124    1
     5    40    39    1
     6    60    59   ar
     7    39    42    1
     8   125   123    1
     9   124   123    1
    10    59    58    1
    11   130   129    2
    12   123   120    1
    13    42    43    1
    14    42    44    1
    15    81    79    1
    16   135   136    1
    17    80    79    1
    18    58    57    1
    19   129   128    1
    20   120   121    1
    21   120   119    1
    22   127   121   am
    23   127   128    1
    24    57    54    1
    25    79    78    1
    26   114   113    2
    27   136   137    1
    28   142   141    2
    29   121   122    2
    30   128   131    1
    31   119   113   am
    32   113   112    1
    33   131   132    1
    34    78    75    1
    35   139   137   am
    36   139   140    1
    37   141   140    1
    38   137   138    2
    39    54    53    1
    40    54    55    1
    41   115   112    1
    42   115   116    1
    43    53    47   am
    44    75    76    1
    45    75    74    1
    46   112   111    1
    47   140   143    1
    48    65    64    2
    49   132   133    1
    50   132   134    1
    51    55    56    2
    52    55    62   am
    53   111   102   am
    54   118   116   am
    55    76    77    2
    56    74    64   am
    57    50    49    1
    58    50    51    1
    59    85    84    2
    60   100   101    1
    61    64    63    1
    62    47    46    1
    63    47    48    2
    64   116   117    2
    65    49    46    1
    66    46    45    1
    67    62    63    1
    68    51    52    1
    69   143   144    1
    70    88    89    2
    71    88    87    1
    72   102   101    1
    73   102   103    2
    74    63    66    1
    75    82    83    1
    76    84    83    1
    77    84    86   am
    78   101   104    1
    79    87    86    1
    80    87    90    1
    81   146   144   ar
    82   144   145   ar
    83    91    90    1
    84   105   104    1
    85   105   106    1
    86    66    67    1
    87    94    95    2
    88    94    93    1
    89    92    93    1
    90    69    67   ar
    91    69    71   ar
    92   107   106    1
    93   107   108    2
    94    67    68   ar
    95   110   108    1
    96    93    96    1
    97    71    72   ar
    98   108   109    1
    99    37    34    1
   100    68    70   ar
   101    33    34    1
   102    36    35    2
   103    72    70   ar
   104    72    73    1
   105    96    97    1
   106    34    35    1
   107    97    98   ar
   108    97    99   ar
   109    31    30    1
   110    32    30    1
   111     7     6    1
   112    30    27    1
   113     8     6    1
   114     6     5    1
   115     5     2    1
   116    23    24    1
   117    23    22    1
   118    27    28    1
   119    27    26    1
   120    24    25    2
   121     4     3    2
   122    16    15    2
   123    28    29    2
   124    22    15   am
   125     3     2    1
   126     3     9   am
   127     2     1    1
   128    15    14    1
   129    10     9    1
   130    10    11    1
   131    11    12    2
   132    11    13   am
   133    13    14    1
   134    14    17    1
   135    17    18    1
   136    18    19    1
   137    19    20    1
   138    20    21    1
