@<TRIPOS>MOLECULE
tmp/3iomA00.pdb
 167 158 0 0 0
SMALL
GASTEIGER

@<TRIPOS>ATOM
      1  N         44.1330  -51.2240   20.6370 N.3    30  SER30      -0.1217
      2  CA        45.0150  -52.3890   20.4960 C.3    30  SER30       0.1889
      3  C         44.5100  -53.5250   21.4020 C.2    30  SER30       0.2288
      4  O         44.3080  -53.3480   22.6180 O.2    30  SER30      -0.2866
      5  CB        46.4800  -52.0800   20.7750 C.3    30  SER30       0.2089
      6  OG        47.0820  -51.4480   19.6570 O.3    30  SER30      -0.2183
      7  N         42.5910  -49.0330   13.1950 N.3    82  ARG82      -0.1245
      8  CA        42.6140  -47.6010   13.3580 C.3    82  ARG82       0.1563
      9  C         43.9650  -47.1930   12.8910 C.2    82  ARG82       0.2260
     10  O         44.8740  -48.0440   12.7630 O.2    82  ARG82      -0.2867
     11  CB        42.4380  -47.2460   14.8210 C.3    82  ARG82       0.0307
     12  CG        43.6420  -47.5990   15.6470 C.3    82  ARG82       0.0489
     13  CD        43.3200  -47.5080   17.1120 C.3    82  ARG82       0.2205
     14  NE        42.9770  -46.1630   17.5980 N.pl3  82  ARG82      -0.0865
     15  CZ        42.6050  -45.9310   18.8450 C.cat  82  ARG82       0.5346
     16  NH1       42.5630  -46.9400   19.6770 N.pl3  82  ARG82       0.1354
     17  NH2       42.2920  -44.7190   19.2770 N.pl3  82  ARG82       0.1354
     18  N         47.3110  -44.9650   13.7620 N.3    84  HIS84      -0.1241
     19  CA        48.0220  -44.3110   14.8530 C.3    84  HIS84       0.1621
     20  C         49.0060  -43.3140   14.2530 C.2    84  HIS84       0.2264
     21  O         49.6100  -43.5490   13.1810 O.2    84  HIS84      -0.2867
     22  CB        48.7760  -45.3470   15.6610 C.3    84  HIS84       0.0745
     23  CG        47.9260  -46.4710   16.2100 C.ar   84  HIS84       0.0817
     24  ND1       47.6700  -47.6310   15.5050 N.ar   84  HIS84      -0.2268
     25  CD2       47.3670  -46.6410   17.4300 C.ar   84  HIS84       0.1154
     26  CE1       46.9660  -48.4600   16.2540 C.ar   84  HIS84       0.1986
     27  NE2       46.7640  -47.8790   17.4310 N.ar   84  HIS84      -0.2212
     28  N         51.9120  -42.9170   14.9220 N.3    86  TYR86      -0.1241
     29  CA        53.2580  -43.4780   14.7350 C.3    86  TYR86       0.1605
     30  C         53.4240  -44.1470   13.3810 C.2    86  TYR86       0.2264
     31  O         54.5210  -44.5410   13.0320 O.2    86  TYR86      -0.2867
     32  CB        53.6350  -44.4730   15.8690 C.3    86  TYR86       0.0534
     33  CG        52.6820  -45.6330   16.1340 C.ar   86  TYR86      -0.0201
     34  CD1       52.5050  -46.6510   15.2330 C.ar   86  TYR86      -0.0009
     35  CD2       52.0130  -45.7160   17.3200 C.ar   86  TYR86      -0.0009
     36  CE1       51.6140  -47.7240   15.5100 C.ar   86  TYR86       0.0417
     37  CE2       51.1580  -46.7760   17.6070 C.ar   86  TYR86       0.0417
     38  CZ        50.9500  -47.7470   16.7200 C.ar   86  TYR86       0.1957
     39  OH        50.0970  -48.7840   17.0550 O.3    86  TYR86      -0.2866
     40  N         41.3570  -48.0620   24.2040 N.3   113  ASN113     -0.1225
     41  CA        42.7500  -48.2790   23.9320 C.3   113  ASN113      0.1785
     42  C         43.3360  -49.3430   24.8720 C.2   113  ASN113      0.2597
     43  O         42.7000  -49.7680   25.8250 O.2   113  ASN113     -0.2718
     44  CB        43.5320  -46.9390   23.9760 C.3   113  ASN113      0.1169
     45  CG        43.4300  -46.2430   25.3280 C.2   113  ASN113      0.2627
     46  OD1       43.1510  -45.0370   25.4010 O.2   113  ASN113     -0.2716
     47  ND2       43.6380  -46.9990   26.4020 N.am  113  ASN113     -0.0877
     48  N         44.5130  -49.8160   24.5480 N.am  114  ALA114     -0.1966
     49  CA        45.3380  -50.5390   25.5040 C.3   114  ALA114      0.1728
     50  C         46.2250  -49.4830   26.0810 C.2   114  ALA114      0.2616
     51  O         46.6630  -48.5850   25.3320 O.2   114  ALA114     -0.2715
     52  CB        46.1540  -51.5120   24.8170 C.3   114  ALA114      0.0334
     53  N         46.4830  -49.5840   27.3810 N.am  115  ALA115     -0.1963
     54  CA        47.3060  -48.6340   28.1190 C.3   115  ALA115      0.1728
     55  C         48.1700  -49.3350   29.1450 C.2   115  ALA115      0.2616
     56  O         47.8250  -50.3860   29.6600 O.2   115  ALA115     -0.2715
     57  CB        46.4320  -47.5910   28.8160 C.3   115  ALA115      0.0334
     58  N         49.2990  -48.7220   29.4610 N.am  116  GLY116     -0.1955
     59  CA        50.1080  -49.1810   30.5430 C.3   116  GLY116      0.1869
     60  C         49.6100  -48.5120   31.7720 C.2   116  GLY116      0.2309
     61  O         49.2740  -47.3530   31.7150 O.2   116  GLY116     -0.2863
     62  N         51.2070  -40.6720   24.2150 N.3   177  LEU177     -0.1245
     63  CA        52.5370  -40.4330   23.6820 C.3   177  LEU177      0.1561
     64  C         52.5650  -40.9300   22.2410 C.2   177  LEU177      0.2260
     65  O         51.6720  -41.6440   21.8050 O.2   177  LEU177     -0.2867
     66  CB        53.6010  -41.1430   24.4780 C.3   177  LEU177      0.0270
     67  CG        54.1400  -40.5010   25.7510 C.3   177  LEU177      0.0019
     68  CD1       53.0040  -40.3160   26.7950 C.3   177  LEU177      0.0001
     69  CD2       55.1480  -41.4250   26.2930 C.3   177  LEU177      0.0001
     70  N         56.1370  -45.3600   18.3270 N.3   180  PRO180     -0.2116
     71  CA        55.5510  -46.6500   18.6960 C.3   180  PRO180      0.1372
     72  C         56.3630  -47.3710   19.7480 C.2   180  PRO180      0.2244
     73  O         55.9430  -48.4560   20.1610 O.2   180  PRO180     -0.2868
     74  CB        55.6000  -47.4640   17.4050 C.3   180  PRO180      0.0268
     75  CG        56.7300  -46.9120   16.6490 C.3   180  PRO180      0.0207
     76  CD        56.9550  -45.4640   17.1010 C.3   180  PRO180      0.0892
     77  N         57.7040  -48.1290   23.4730 N.3   182  TYR182     -0.1227
     78  CA        57.1200  -48.0300   24.8040 C.3   182  TYR182      0.1736
     79  C         58.0720  -47.1690   25.6400 C.2   182  TYR182      0.2595
     80  O         59.1630  -46.7780   25.1960 O.2   182  TYR182     -0.2718
     81  CB        56.9560  -49.4290   25.4050 C.3   182  TYR182      0.0548
     82  CG        55.9540  -50.2900   24.6670 C.ar  182  TYR182     -0.0200
     83  CD1       56.3760  -51.4230   23.9440 C.ar  182  TYR182     -0.0009
     84  CD2       54.6080  -49.9850   24.7130 C.ar  182  TYR182     -0.0009
     85  CE1       55.4760  -52.2280   23.2530 C.ar  182  TYR182      0.0417
     86  CE2       53.6820  -50.7740   24.0410 C.ar  182  TYR182      0.0417
     87  CZ        54.1030  -51.8850   23.3150 C.ar  182  TYR182      0.1957
     88  OH        53.1800  -52.6440   22.6520 O.3   182  TYR182     -0.2866
     89  N         57.6710  -46.8730   26.8510 N.am  183  GLU183     -0.1979
     90  CA        58.4230  -45.8890   27.6270 C.3   183  GLU183      0.1602
     91  C         59.6300  -46.5130   28.3260 C.2   183  GLU183      0.2287
     92  O         59.6350  -47.7120   28.6390 O.2   183  GLU183     -0.2864
     93  CB        57.4780  -45.2550   28.6310 C.3   183  GLU183      0.0415
     94  CG        56.3530  -44.3700   28.0110 C.3   183  GLU183      0.1163
     95  CD        55.2850  -45.2060   27.2010 C.2   183  GLU183      0.3649
     96  OE1       54.7960  -46.2130   27.7160 O.co2 183  GLU183     -0.2457
     97  OE2       54.9370  -44.8740   26.0400 O.co2 183  GLU183     -0.2457
     98  N         49.1100  -44.8330   30.2610 N.3   199  VAL199     -0.1231
     99  CA        49.9490  -44.3650   29.1810 C.3   199  VAL199      0.1692
    100  C         49.6690  -45.1150   27.8890 C.2   199  VAL199      0.2593
    101  O         49.5740  -46.3460   27.8500 O.2   199  VAL199     -0.2718
    102  CB        51.4950  -44.3970   29.5660 C.3   199  VAL199      0.0266
    103  CG1       51.9050  -45.7440   30.0260 C.3   199  VAL199      0.0020
    104  CG2       52.3220  -43.8910   28.3640 C.3   199  VAL199      0.0020
    105  N         49.4880  -44.3780   26.8190 N.am  200  GLY200     -0.1942
    106  CA        49.2470  -45.0910   25.6080 C.3   200  GLY200      0.2014
    107  C         49.7650  -44.3110   24.4520 C.2   200  GLY200      0.2639
    108  O         50.4780  -43.3270   24.6740 O.2   200  GLY200     -0.2714
    109  N         49.3390  -44.7420   23.2580 N.am  201  MET201     -0.1963
    110  CA        49.8100  -44.2850   21.9530 C.3   201  MET201      0.1736
    111  C         48.7390  -43.8700   21.0150 C.2   201  MET201      0.2617
    112  O         49.0020  -43.7810   19.8110 O.2   201  MET201     -0.2715
    113  CB        50.5430  -45.4050   21.2030 C.3   201  MET201      0.0427
    114  CG        51.7510  -45.9370   21.9130 C.3   201  MET201      0.0599
    115  SD        52.4780  -47.3370   21.0250 S.3   201  MET201     -0.1393
    116  CE        53.7200  -47.5450   22.3120 C.3   201  MET201      0.0692
    117  N         47.5560  -43.5670   21.5450 N.am  202  SER202     -0.1950
    118  CA        46.4260  -43.0890   20.7540 C.3   202  SER202      0.1924
    119  C         45.5580  -42.0590   21.4950 C.2   202  SER202      0.2314
    120  O         46.0210  -41.3490   22.4300 O.2   202  SER202     -0.2863
    121  CB        45.5610  -44.2850   20.3590 C.3   202  SER202      0.2116
    122  OG        45.1260  -44.9470   21.5420 O.3   202  SER202     -0.2180
    123  N         46.7720  -53.2340   29.9610 N.3   224  THR224     -0.1203
    124  CA        47.3110  -54.4650   29.3710 C.3   224  THR224      0.1994
    125  C         48.6220  -54.9220   30.0180 C.2   224  THR224      0.2617
    126  O         49.1060  -56.0250   29.7120 O.2   224  THR224     -0.2717
    127  CB        47.5680  -54.3400   27.8580 C.3   224  THR224      0.1784
    128  OG1       48.3150  -53.1400   27.5630 O.3   224  THR224     -0.2211
    129  CG2       46.2420  -54.3230   27.0880 C.3   224  THR224      0.0376
    130  N         49.2060  -54.0310   30.8320 N.am  225  ASN225     -0.1974
    131  CA        50.5310  -54.1780   31.4340 C.3   225  ASN225      0.1688
    132  C         50.6120  -53.0180   32.3530 C.2   225  ASN225      0.2292
    133  O         49.9290  -52.0000   32.1290 O.2   225  ASN225     -0.2864
    134  CB        51.6890  -54.0670   30.4190 C.3   225  ASN225      0.1181
    135  CG        51.5560  -52.8670   29.5100 C.2   225  ASN225      0.2629
    136  OD1       50.6070  -52.7640   28.7340 O.2   225  ASN225     -0.2716
    137  ND2       52.4690  -51.9340   29.6310 N.am  225  ASN225     -0.0877
    138  N         52.9480  -50.0460   33.5760 N.3   227  ALA227     -0.1245
    139  CA        53.8240  -49.2460   32.7320 C.3   227  ALA227      0.1562
    140  C         55.2750  -49.6430   32.9990 C.2   227  ALA227      0.2260
    141  O         55.5590  -50.1800   34.0750 O.2   227  ALA227     -0.2867
    142  CB        53.5720  -47.8000   32.9790 C.3   227  ALA227      0.0290
    143  N         57.7320  -55.1180   28.3220 N.3   235  LEU235     -0.1245
    144  CA        56.5470  -54.7890   27.5650 C.3   235  LEU235      0.1561
    145  C         56.6620  -55.3630   26.1750 C.2   235  LEU235      0.2260
    146  O         57.7310  -55.4210   25.5840 O.2   235  LEU235     -0.2867
    147  CB        56.3190  -53.2720   27.4680 C.3   235  LEU235      0.0270
    148  CG        56.3940  -52.3630   28.6940 C.3   235  LEU235      0.0019
    149  CD1       55.5070  -51.1660   28.4840 C.3   235  LEU235      0.0001
    150  CD2       56.0160  -53.0300   29.9840 C.3   235  LEU235      0.0001
    151  N         54.0740  -55.6940   22.4860 N.3   237  HIS237     -0.1241
    152  CA        52.8870  -55.5540   21.7410 C.3   237  HIS237      0.1621
    153  C         52.1110  -56.8610   21.6900 C.2   237  HIS237      0.2264
    154  O         50.9010  -56.8450   21.6820 O.2   237  HIS237     -0.2867
    155  CB        53.2280  -55.0840   20.3420 C.3   237  HIS237      0.0745
    156  CG        52.0220  -54.6230   19.6000 C.ar  237  HIS237      0.0817
    157  ND1       51.3220  -53.5030   19.9730 N.ar  237  HIS237     -0.2268
    158  CD2       51.3270  -55.1910   18.5850 C.ar  237  HIS237      0.1154
    159  CE1       50.2630  -53.3740   19.1900 C.ar  237  HIS237      0.1986
    160  NE2       50.2460  -54.3880   18.3390 N.ar  237  HIS237     -0.2212
    161  N         50.3500  -57.0250   24.8860 N.3   240  VAL240     -0.1245
    162  CA        49.2140  -56.1010   24.7980 C.3   240  VAL240      0.1561
    163  C         48.0300  -56.7460   24.0440 C.2   240  VAL240      0.2260
    164  O         46.9220  -56.7060   24.5050 O.2   240  VAL240     -0.2867
    165  CB        49.6220  -54.8000   24.0820 C.3   240  VAL240      0.0252
    166  CG1       48.3840  -53.9110   23.7990 C.3   240  VAL240      0.0019
    167  CG2       50.6970  -54.0410   24.9210 C.3   240  VAL240      0.0019
@<TRIPOS>BOND
     1    10     9    2
     2     9     8    1
     3    31    30    2
     4    21    20    2
     5     7     8    1
     6     8    11    1
     7    30    29    1
     8    18    19    1
     9    20    19    1
    10    29    28    1
    11    29    32    1
    12    11    12    1
    13    19    22    1
    14    34    36   ar
    15    34    33   ar
    16    24    23   ar
    17    24    26   ar
    18    36    38   ar
    19    12    13    1
    20    22    23    1
    21    32    33    1
    22    33    35   ar
    23    23    25   ar
    24    26    27   ar
    25    75    76    1
    26    75    74    1
    27    38    39    1
    28    38    37   ar
    29    76    70    1
    30    13    14    1
    31    35    37   ar
    32    74    71    1
    33    25    27   ar
    34    14    15    2
    35    70    71    1
    36   160   158   ar
    37   160   159   ar
    38   158   156   ar
    39    71    72    1
    40    15    17    1
    41    15    16    1
    42   159   157   ar
    43   156   157   ar
    44   156   155    1
    45     6     5    1
    46    72    73    2
    47   112   111    2
    48   155   152    1
    49   121   118    1
    50   121   122    1
    51     2     1    1
    52     2     5    1
    53     2     3    1
    54   118   119    1
    55   118   117    1
    56   111   117   am
    57   111   110    1
    58   115   114    1
    59   115   116    1
    60   113   114    1
    61   113   110    1
    62     3     4    2
    63   119   120    2
    64   154   153    2
    65   153   152    1
    66   152   151    1
    67    65    64    2
    68   110   109    1
    69    64    63    1
    70    88    87    1
    71    85    87   ar
    72    85    83   ar
    73   109   107   am
    74    87    86   ar
    75    77    78    1
    76    63    62    1
    77    63    66    1
    78   166   165    1
    79    41    44    1
    80    41    40    1
    81    41    42    1
    82    83    82   ar
    83    44    45    1
    84    86    84   ar
    85   163   164    2
    86   163   162    1
    87   165   162    1
    88   165   167    1
    89   107   108    2
    90   107   106    1
    91    66    67    1
    92    48    42   am
    93    48    49    1
    94    82    84   ar
    95    82    81    1
    96   162   161    1
    97    78    81    1
    98    78    79    1
    99    52    49    1
   100    42    43    2
   101    80    79    2
   102    45    46    2
   103    45    47   am
   104    51    50    2
   105    49    50    1
   106   146   145    2
   107   106   105    1
   108    79    89   am
   109    67    69    1
   110    67    68    1
   111    97    95   ar
   112    50    53   am
   113   145   144    1
   114   105   100   am
   115    89    90    1
   116   129   127    1
   117    95    96   ar
   118    95    94    1
   119    53    54    1
   120   147   144    1
   121   147   148    1
   122   128   127    1
   123   144   143    1
   124    90    91    1
   125    90    93    1
   126   101   100    2
   127   127   124    1
   128   100    99    1
   129    94    93    1
   130    54    57    1
   131    54    55    1
   132    91    92    2
   133   104   102    1
   134   149   148    1
   135   148   150    1
   136   136   135    2
   137    55    58   am
   138    55    56    2
   139    99   102    1
   140    99    98    1
   141   124   123    1
   142   124   125    1
   143    58    59    1
   144   135   137   am
   145   135   134    1
   146   102   103    1
   147   126   125    2
   148   125   130   am
   149   134   131    1
   150    59    60    1
   151   130   131    1
   152   131   132    1
   153    61    60    2
   154   133   132    2
   155   139   142    1
   156   139   140    1
   157   139   138    1
   158   140   141    2
