@<TRIPOS>MOLECULE
tmp/3iopA00.pdb
 196 183 0 0 0
SMALL
GASTEIGER

@<TRIPOS>ATOM
      1  N        -30.8960  -25.4920   16.0150 N.3    12  LYS12      -0.1245
      2  CA       -32.0500  -24.6540   15.6810 C.3    12  LYS12       0.1561
      3  C        -32.9850  -25.2990   14.6620 C.2    12  LYS12       0.2260
      4  O        -32.5450  -26.0410   13.7760 O.2    12  LYS12      -0.2867
      5  CB       -31.6070  -23.2680   15.1800 C.3    12  LYS12       0.0271
      6  CG       -30.7720  -23.2770   13.9020 C.3    12  LYS12       0.0035
      7  CD       -30.7630  -21.9140   13.2100 C.3    12  LYS12       0.0206
      8  CE       -29.7320  -21.8920   12.0830 C.3    12  LYS12       0.1093
      9  NZ       -30.0420  -20.8900   11.0090 N.3    12  LYS12      -0.1314
     10  N        -34.8740  -25.1360   11.4100 N.3    14  LEU14      -0.1231
     11  CA       -34.6230  -24.4450   10.1470 C.3    14  LEU14       0.1693
     12  C        -35.9360  -24.0970    9.4630 C.2    14  LEU14       0.2593
     13  O        -36.0540  -23.0500    8.8320 O.2    14  LEU14      -0.2718
     14  CB       -33.7310  -25.2880    9.2250 C.3    14  LEU14       0.0284
     15  CG       -32.3000  -25.5570    9.7080 C.3    14  LEU14       0.0019
     16  CD1      -31.6170  -26.6030    8.8360 C.3    14  LEU14       0.0001
     17  CD2      -31.4780  -24.2760    9.7590 C.3    14  LEU14       0.0001
     18  N        -36.9200  -24.9800    9.6070 N.am   15  GLY15      -0.1942
     19  CA       -38.2560  -24.7510    9.0740 C.3    15  GLY15       0.2014
     20  C        -39.3040  -25.6260    9.7340 C.2    15  GLY15       0.2639
     21  O        -39.0020  -26.7190   10.2200 O.2    15  GLY15      -0.2714
     22  N        -40.5410  -25.1350    9.7390 N.am   16  GLU16      -0.1963
     23  CA       -41.6680  -25.8320   10.3470 C.3    16  GLU16       0.1733
     24  C        -42.8260  -25.9680    9.3680 C.2    16  GLU16       0.2616
     25  O        -43.1780  -25.0160    8.6710 O.2    16  GLU16      -0.2715
     26  CB       -42.1460  -25.0860   11.5940 C.3    16  GLU16       0.0429
     27  CG       -41.5080  -25.5420   12.8870 C.3    16  GLU16       0.1163
     28  CD       -41.9320  -24.6900   14.0680 C.2    16  GLU16       0.3649
     29  OE1      -42.8590  -25.1090   14.7960 O.co2  16  GLU16      -0.2457
     30  OE2      -41.3510  -23.5980   14.2580 O.co2  16  GLU16      -0.2457
     31  N        -43.4120  -27.1590    9.3210 N.am   17  GLY17      -0.1955
     32  CA       -44.6080  -27.4040    8.5210 C.3    17  GLY17       0.1869
     33  C        -45.6560  -28.1500    9.3190 C.2    17  GLY17       0.2309
     34  O        -45.4460  -28.4740   10.4920 O.2    17  GLY17      -0.2863
     35  N        -44.1130  -31.8510    9.0120 N.3    20  SER20      -0.1217
     36  CA       -42.7040  -32.0220    9.3560 C.3    20  SER20       0.1889
     37  C        -42.0600  -30.8110   10.0350 C.2    20  SER20       0.2288
     38  O        -42.6310  -29.7200   10.0780 O.2    20  SER20      -0.2866
     39  CB       -41.9000  -32.4110    8.1150 C.3    20  SER20       0.2089
     40  OG       -41.6480  -31.2810    7.3010 O.3    20  SER20      -0.2183
     41  N        -37.8860  -29.3610   10.0840 N.3    22  VAL22      -0.1245
     42  CA       -36.4850  -29.5410    9.7070 C.3    22  VAL22       0.1561
     43  C        -35.5720  -28.8580   10.7240 C.2    22  VAL22       0.2260
     44  O        -35.6510  -27.6440   10.9360 O.2    22  VAL22      -0.2867
     45  CB       -36.1880  -29.0480    8.2650 C.3    22  VAL22       0.0252
     46  CG1      -34.7100  -29.2340    7.9210 C.3    22  VAL22       0.0019
     47  CG2      -37.0640  -29.7910    7.2560 C.3    22  VAL22       0.0019
     48  N        -29.2600  -31.4620    7.8600 N.3    35  ALA35      -0.1245
     49  CA       -30.5990  -30.9420    8.0800 C.3    35  ALA35       0.1562
     50  C        -31.5180  -32.1490    8.1960 C.2    35  ALA35       0.2260
     51  O        -31.7930  -32.8260    7.2010 O.2    35  ALA35      -0.2867
     52  CB       -31.0240  -30.0350    6.9390 C.3    35  ALA35       0.0290
     53  N        -34.9860  -33.8710    8.6750 N.3    37  LYS37      -0.1245
     54  CA       -36.4190  -33.6860    8.5390 C.3    37  LYS37       0.1561
     55  C        -37.1220  -34.6740    9.4640 C.2    37  LYS37       0.2260
     56  O        -36.9670  -35.8890    9.3190 O.2    37  LYS37      -0.2867
     57  CB       -36.8430  -33.8820    7.0780 C.3    37  LYS37       0.0271
     58  CG       -38.3140  -33.6210    6.8070 C.3    37  LYS37       0.0035
     59  CD       -38.5840  -33.4960    5.3200 C.3    37  LYS37       0.0206
     60  CE       -40.0430  -33.1700    5.0550 C.3    37  LYS37       0.1093
     61  NZ       -40.2290  -32.5430    3.7170 N.3    37  LYS37      -0.1314
     62  N        -41.8660  -39.2920   -1.1920 N.3    56  GLU56      -0.1245
     63  CA       -40.8250  -38.3110   -0.8850 C.3    56  GLU56       0.1567
     64  C        -39.4680  -38.9710   -0.6320 C.2    56  GLU56       0.2260
     65  O        -38.4590  -38.5640   -1.2160 O.2    56  GLU56      -0.2867
     66  CB       -41.2160  -37.4350    0.3100 C.3    56  GLU56       0.0388
     67  CG       -40.1400  -36.4210    0.6920 C.3    56  GLU56       0.1160
     68  CD       -40.5210  -35.5230    1.8540 C.2    56  GLU56       0.3649
     69  OE1      -39.6520  -34.7360    2.2870 O.co2  56  GLU56      -0.2457
     70  OE2      -41.6740  -35.5930    2.3320 O.co2  56  GLU56      -0.2457
     71  N        -30.8730  -31.7060   -3.1260 N.3    69  VAL69      -0.1245
     72  CA       -30.7180  -32.2850   -1.7910 C.3    69  VAL69       0.1561
     73  C        -30.3570  -33.7740   -1.8820 C.2    69  VAL69       0.2260
     74  O        -30.7850  -34.4740   -2.8060 O.2    69  VAL69      -0.2867
     75  CB       -32.0150  -32.0840   -0.9330 C.3    69  VAL69       0.0252
     76  CG1      -33.2030  -32.8440   -1.5230 C.3    69  VAL69       0.0019
     77  CG2      -31.7910  -32.4890    0.5170 C.3    69  VAL69       0.0019
     78  N        -30.7940  -35.0850    5.6740 N.3    85  LEU85      -0.1231
     79  CA       -30.5940  -34.3710    4.4130 C.3    85  LEU85       0.1693
     80  C        -29.3390  -33.5060    4.4410 C.2    85  LEU85       0.2593
     81  O        -28.8170  -33.1920    5.5120 O.2    85  LEU85      -0.2718
     82  CB       -31.8200  -33.5070    4.0840 C.3    85  LEU85       0.0284
     83  CG       -33.2220  -34.1130    4.2400 C.3    85  LEU85       0.0019
     84  CD1      -34.2940  -33.0700    3.9490 C.3    85  LEU85       0.0001
     85  CD2      -33.3960  -35.3350    3.3480 C.3    85  LEU85       0.0001
     86  N        -28.8520  -33.1290    3.2610 N.am   86  SER86      -0.1938
     87  CA       -27.7300  -32.1980    3.1690 C.3    86  SER86       0.2055
     88  C        -28.1340  -30.8280    3.6950 C.2    86  SER86       0.2643
     89  O        -29.2600  -30.3670    3.4740 O.2    86  SER86      -0.2714
     90  CB       -27.1810  -32.1010    1.7380 C.3    86  SER86       0.2130
     91  OG       -28.2110  -32.0740    0.7700 O.3    86  SER86      -0.2179
     92  N        -27.2110  -30.1950    4.4090 N.am   87  TYR87      -0.1959
     93  CA       -27.4320  -28.8770    4.9830 C.3    87  TYR87       0.1771
     94  C        -26.9450  -27.7980    4.0170 C.2    87  TYR87       0.2619
     95  O        -25.7960  -27.8260    3.5670 O.2    87  TYR87      -0.2715
     96  CB       -26.7230  -28.7740    6.3440 C.3    87  TYR87       0.0574
     97  CG       -26.7500  -27.4020    6.9910 C.ar   87  TYR87      -0.0198
     98  CD1      -27.9510  -26.7140    7.1750 C.ar   87  TYR87      -0.0009
     99  CD2      -25.5710  -26.8040    7.4420 C.ar   87  TYR87      -0.0009
    100  CE1      -27.9780  -25.4610    7.7750 C.ar   87  TYR87       0.0417
    101  CE2      -25.5870  -25.5480    8.0420 C.ar   87  TYR87       0.0417
    102  CZ       -26.7970  -24.8850    8.2060 C.ar   87  TYR87       0.1957
    103  OH       -26.8250  -23.6450    8.7970 O.3    87  TYR87      -0.2866
    104  N        -27.8340  -26.8640    3.6900 N.am   88  ALA88      -0.1963
    105  CA       -27.5100  -25.7520    2.8010 C.3    88  ALA88       0.1728
    106  C        -27.2850  -24.4870    3.6200 C.2    88  ALA88       0.2616
    107  O        -28.2370  -23.7910    3.9750 O.2    88  ALA88      -0.2715
    108  CB       -28.6210  -25.5430    1.7800 C.3    88  ALA88       0.0334
    109  N        -26.0170  -24.1970    3.8970 N.am   89  LYS89      -0.1963
    110  CA       -25.6160  -23.1580    4.8500 C.3    89  LYS89       0.1728
    111  C        -26.2390  -21.7810    4.6090 C.2    89  LYS89       0.2616
    112  O        -26.6240  -21.0920    5.5560 O.2    89  LYS89      -0.2715
    113  CB       -24.0890  -23.0350    4.8830 C.3    89  LYS89       0.0311
    114  CG       -23.5650  -22.3120    6.1120 C.3    89  LYS89       0.0038
    115  CD       -22.0550  -22.1690    6.0840 C.3    89  LYS89       0.0206
    116  CE       -21.5420  -21.6230    7.4120 C.3    89  LYS89       0.1093
    117  NZ       -21.7140  -22.6140    8.5180 N.3    89  LYS89      -0.1314
    118  N        -26.3420  -21.3860    3.3450 N.am   90  ASN90      -0.1958
    119  CA       -26.7830  -20.0380    3.0100 C.3    90  ASN90       0.1819
    120  C        -28.2960  -19.8500    2.8630 C.2    90  ASN90       0.2622
    121  O        -28.7610  -18.7580    2.5380 O.2    90  ASN90      -0.2715
    122  CB       -26.0050  -19.5140    1.7990 C.3    90  ASN90       0.1195
    123  CG       -24.6040  -19.0610    2.1710 C.2    90  ASN90       0.2630
    124  OD1      -24.4330  -18.2090    3.0430 O.2    90  ASN90      -0.2716
    125  ND2      -23.5990  -19.6340    1.5240 N.am   90  ASN90      -0.0877
    126  N        -29.0550  -20.9080    3.1320 N.am   91  GLY91      -0.1940
    127  CA       -30.5140  -20.8310    3.1710 C.3    91  GLY91       0.2014
    128  C        -31.2030  -20.6830    1.8250 C.2    91  GLY91       0.2638
    129  O        -30.6610  -21.0770    0.7890 O.2    91  GLY91      -0.2714
    130  N        -32.4010  -20.1010    1.8530 N.am   92  GLU92      -0.1977
    131  CA       -33.2610  -19.9840    0.6740 C.3    92  GLU92       0.1602
    132  C        -32.8100  -18.8950   -0.2920 C.2    92  GLU92       0.2287
    133  O        -32.3110  -17.8440    0.1240 O.2    92  GLU92      -0.2864
    134  CB       -34.7020  -19.6870    1.0930 C.3    92  GLU92       0.0415
    135  CG       -35.3140  -20.6910    2.0590 C.3    92  GLU92       0.1163
    136  CD       -36.6160  -20.2000    2.6660 C.2    92  GLU92       0.3649
    137  OE1      -37.0790  -19.0950    2.3000 O.co2  92  GLU92      -0.2457
    138  OE2      -37.1780  -20.9220    3.5150 O.co2  92  GLU92      -0.2457
    139  N        -34.5100  -15.4030    0.2890 N.3    95  LYS95      -0.1245
    140  CA       -33.7940  -14.4760    1.1680 C.3    95  LYS95       0.1561
    141  C        -32.9280  -13.4940    0.3760 C.2    95  LYS95       0.2260
    142  O        -32.9660  -12.2890    0.6280 O.2    95  LYS95      -0.2867
    143  CB       -32.9400  -15.2470    2.1830 C.3    95  LYS95       0.0271
    144  CG       -32.1720  -14.3700    3.1810 C.3    95  LYS95       0.0035
    145  CD       -31.2610  -15.2020    4.0960 C.3    95  LYS95       0.0206
    146  CE       -30.0360  -15.7210    3.3480 C.3    95  LYS95       0.1093
    147  NZ       -29.1520  -16.5800    4.1950 N.3    95  LYS95      -0.1314
    148  N        -40.1400  -23.1600   -6.3360 N.3   133  LYS133     -0.1245
    149  CA       -40.2150  -21.7700   -5.8850 C.3   133  LYS133      0.1561
    150  C        -38.9050  -21.4030   -5.1930 C.2   133  LYS133      0.2260
    151  O        -38.1990  -22.2960   -4.7190 O.2   133  LYS133     -0.2867
    152  CB       -41.4140  -21.5610   -4.9390 C.3   133  LYS133      0.0271
    153  CG       -41.4990  -22.5430   -3.7790 C.3   133  LYS133      0.0035
    154  CD       -42.7660  -22.3260   -2.9600 C.3   133  LYS133      0.0206
    155  CE       -42.8990  -23.3730   -1.8670 C.3   133  LYS133      0.1093
    156  NZ       -44.0720  -23.1210   -0.9820 N.3   133  LYS133     -0.1314
    157  N        -38.1310  -20.3090   -2.3060 N.3   135  GLU135     -0.1231
    158  CA       -37.9460  -20.8120   -0.9390 C.3   135  GLU135      0.1699
    159  C        -37.5640  -22.2970   -0.9010 C.2   135  GLU135      0.2592
    160  O        -37.0210  -22.7750    0.0920 O.2   135  GLU135     -0.2718
    161  CB       -39.1530  -20.4960   -0.0390 C.3   135  GLU135      0.0402
    162  CG       -40.3050  -21.4820   -0.0980 C.3   135  GLU135      0.1161
    163  CD       -41.1760  -21.4600    1.1580 C.2   135  GLU135      0.3649
    164  OE1      -40.6350  -21.2940    2.2750 O.co2 135  GLU135     -0.2457
    165  OE2      -42.4070  -21.6300    1.0330 O.co2 135  GLU135     -0.2457
    166  N        -37.8400  -23.0130   -1.9910 N.am  136  ASN136     -0.1974
    167  CA       -37.4500  -24.4190   -2.1260 C.3   136  ASN136      0.1688
    168  C        -36.0940  -24.6210   -2.8040 C.2   136  ASN136      0.2292
    169  O        -35.5660  -25.7360   -2.8340 O.2   136  ASN136     -0.2864
    170  CB       -38.5330  -25.2140   -2.8620 C.3   136  ASN136      0.1181
    171  CG       -39.7100  -25.5520   -1.9740 C.2   136  ASN136      0.2629
    172  OD1      -39.6550  -25.3910   -0.7510 O.2   136  ASN136     -0.2716
    173  ND2      -40.7840  -26.0300   -2.5830 N.am  136  ASN136     -0.0877
    174  N        -32.4340  -23.8070   -2.3600 N.3   138  LEU138     -0.1245
    175  CA       -31.4990  -23.3840   -1.3370 C.3   138  LEU138      0.1561
    176  C        -30.1330  -23.0800   -1.9310 C.2   138  LEU138      0.2260
    177  O        -29.8940  -23.3190   -3.1160 O.2   138  LEU138     -0.2867
    178  CB       -31.3780  -24.4540   -0.2510 C.3   138  LEU138      0.0270
    179  CG       -32.6750  -25.0180    0.3300 C.3   138  LEU138      0.0019
    180  CD1      -32.3450  -26.1870    1.2180 C.3   138  LEU138      0.0001
    181  CD2      -33.4700  -23.9640    1.0890 C.3   138  LEU138      0.0001
    182  N        -34.7580  -28.5820   -2.7490 N.3   148  THR148     -0.1203
    183  CA       -35.3060  -29.4750   -1.7320 C.3   148  THR148      0.1994
    184  C        -36.8400  -29.5510   -1.8040 C.2   148  THR148      0.2617
    185  O        -37.4460  -29.1200   -2.7940 O.2   148  THR148     -0.2717
    186  CB       -34.8220  -29.0670   -0.3060 C.3   148  THR148      0.1784
    187  OG1      -35.1200  -30.1160    0.6260 O.3   148  THR148     -0.2211
    188  CG2      -35.4710  -27.7510    0.1530 C.3   148  THR148      0.0376
    189  N        -37.4430  -30.1010   -0.7490 N.am  149  ASP149     -0.1973
    190  CA       -38.8950  -30.2910   -0.6230 C.3   149  ASP149      0.1709
    191  C        -39.5080  -31.1380   -1.7390 C.2   149  ASP149      0.2293
    192  O        -40.1010  -30.6150   -2.6880 O.2   149  ASP149     -0.2864
    193  CB       -39.6380  -28.9550   -0.4710 C.3   149  ASP149      0.1436
    194  CG       -41.0730  -29.1340    0.0150 C.2   149  ASP149      0.3671
    195  OD1      -41.4470  -30.2600    0.4110 O.co2 149  ASP149     -0.2456
    196  OD2      -41.8270  -28.1420    0.0060 O.co2 149  ASP149     -0.2456
@<TRIPOS>BOND
     1   148   149    1
     2   149   150    1
     3   149   152    1
     4   150   151    2
     5   152   153    1
     6   153   154    1
     7    71    72    1
     8   177   176    2
     9   154   155    1
    10   170   167    1
    11   170   171    1
    12   169   168    2
    13    74    73    2
    14   168   167    1
    15   185   184    2
    16   182   183    1
    17   192   191    2
    18   173   171   am
    19   174   175    1
    20   157   158    1
    21   167   166    1
    22   166   159   am
    23   171   172    2
    24   176   175    1
    25    73    72    1
    26   155   156    1
    27   184   183    1
    28   184   189   am
    29    72    75    1
    30   191   190    1
    31   183   186    1
    32    76    75    1
    33   175   178    1
    34    65    64    2
    35    62    63    1
    36   158   159    1
    37   158   161    1
    38    75    77    1
    39   159   160    2
    40    63    64    1
    41    63    66    1
    42   189   190    1
    43   190   193    1
    44   193   194    1
    45   186   188    1
    46   186   187    1
    47   132   133    2
    48   132   131    1
    49   178   179    1
    50   162   161    1
    51   162   163    1
    52   196   194   ar
    53   194   195   ar
    54   139   140    1
    55    66    67    1
    56   179   181    1
    57   179   180    1
    58   141   142    2
    59   141   140    1
    60   131   134    1
    61   131   130    1
    62    67    68    1
    63    91    90    1
    64   129   128    2
    65   165   163   ar
    66   134   135    1
    67   163   164   ar
    68   140   143    1
    69   125   123   am
    70    90    87    1
    71   108   105    1
    72   122   123    1
    73   122   119    1
    74   128   130   am
    75   128   127    1
    76    68    69   ar
    77    68    70   ar
    78   135   136    1
    79   123   124    2
    80   143   144    1
    81   137   136   ar
    82   121   120    2
    83   136   138   ar
    84   105   106    1
    85   105   104    1
    86   120   119    1
    87   120   126   am
    88   119   118    1
    89   126   127    1
    90    87    86    1
    91    87    88    1
    92   144   145    1
    93    86    80   am
    94   118   111   am
    95   146   145    1
    96   146   147    1
    97    85    83    1
    98    89    88    2
    99    95    94    2
   100   106   109   am
   101   106   107    2
   102   104    94   am
   103    88    92   am
   104    61    60    1
   105   109   110    1
   106    84    83    1
   107    94    93    1
   108    82    83    1
   109    82    79    1
   110    92    93    1
   111    79    80    1
   112    79    78    1
   113    80    81    2
   114   111   110    1
   115   111   112    2
   116   110   113    1
   117   113   114    1
   118    93    96    1
   119    60    59    1
   120    59    58    1
   121   115   114    1
   122   115   116    1
   123    96    97    1
   124    58    57    1
   125    52    49    1
   126    97    98   ar
   127    97    99   ar
   128    57    54    1
   129    98   100   ar
   130    51    50    2
   131    47    45    1
   132    40    39    1
   133   116   117    1
   134    99   101   ar
   135   100   102   ar
   136    48    49    1
   137    46    45    1
   138   101   102   ar
   139    49    50    1
   140    39    36    1
   141   102   103    1
   142    45    42    1
   143    32    33    1
   144    32    31    1
   145    54    53    1
   146    54    55    1
   147    25    24    2
   148    13    12    2
   149    16    15    1
   150    35    36    1
   151    19    18    1
   152    19    20    1
   153    14    15    1
   154    14    11    1
   155    56    55    2
   156    33    34    2
   157    31    24   am
   158    36    37    1
   159    24    23    1
   160    12    18   am
   161    12    11    1
   162    42    41    1
   163    42    43    1
   164    15    17    1
   165    20    22   am
   166    20    21    2
   167    22    23    1
   168    37    38    2
   169    11    10    1
   170    23    26    1
   171    43    44    2
   172     9     8    1
   173    26    27    1
   174     8     7    1
   175    27    28    1
   176     7     6    1
   177     4     3    2
   178     6     5    1
   179    28    30   ar
   180    28    29   ar
   181     3     2    1
   182     5     2    1
   183     2     1    1
