@<TRIPOS>MOLECULE
tmp/3ioqA00.pdb
 142 141 0 0 0
SMALL
GASTEIGER

@<TRIPOS>ATOM
      1  N         24.8510  -29.2830   17.6670 N.3    19  GLN19      -0.1245
      2  CA        24.7540  -30.7330   17.6350 C.3    19  GLN19       0.1566
      3  C         25.9930  -31.4170   17.0350 C.2    19  GLN19       0.2260
      4  O         26.1850  -32.6280   17.2260 O.2    19  GLN19      -0.2867
      5  CB        23.4990  -31.1630   16.8740 C.3    19  GLN19       0.0367
      6  CG        23.5170  -30.8350   15.3910 C.3    19  GLN19       0.0905
      7  CD        22.2260  -31.2390   14.7150 C.2    19  GLN19       0.2608
      8  OE1       21.2260  -30.5060   14.7340 O.2    19  GLN19      -0.2717
      9  NE2       22.2380  -32.4230   14.1170 N.am   19  GLN19      -0.0878
     10  N         23.5340  -36.8240   13.8900 N.3    23  GLY23      -0.1225
     11  CA        22.1690  -36.5660   13.4040 C.3    23  GLY23       0.1811
     12  C         21.1640  -36.5920   14.5410 C.2    23  GLY23       0.2280
     13  O         20.2090  -37.3720   14.5460 O.2    23  GLY23      -0.2866
     14  N         19.2820  -33.9410   15.8170 N.3    25  CYS25      -0.1221
     15  CA        18.4520  -32.7150   15.9030 C.3    25  CYS25       0.1808
     16  C         17.1840  -32.9640   16.7310 C.2    25  CYS25       0.2601
     17  O         16.7110  -32.0810   17.4460 O.2    25  CYS25      -0.2717
     18  CB        18.0470  -32.2260   14.5090 C.3    25  CYS25       0.0970
     19  SG        16.9940  -33.3870   13.6060 S.3    25  CYS25      -0.0800
     20  N         16.6630  -34.1920   16.6400 N.am   26  TRP26      -0.1976
     21  CA        15.4400  -34.5730   17.3300 C.3    26  TRP26       0.1640
     22  C         15.5740  -34.4590   18.8610 C.2    26  TRP26       0.2290
     23  O         14.5760  -34.2260   19.5290 O.2    26  TRP26      -0.2864
     24  CB        15.0200  -35.9940   16.9420 C.3    26  TRP26       0.0576
     25  CG        16.0660  -37.0290   17.2910 C.ar   26  TRP26       0.0006
     26  CD1       17.1990  -37.3590   16.5850 C.ar   26  TRP26       0.0946
     27  CD2       16.0460  -37.8700   18.4450 C.ar   26  TRP26       0.0152
     28  NE1       17.8860  -38.3650   17.2520 N.ar   26  TRP26      -0.2442
     29  CE2       17.2030  -38.6840   18.3980 C.ar   26  TRP26       0.0810
     30  CE3       15.1650  -38.0010   19.5300 C.ar   26  TRP26       0.0012
     31  CZ2       17.4940  -39.6330   19.3880 C.ar   26  TRP26       0.0191
     32  CZ3       15.4660  -38.9500   20.5300 C.ar   26  TRP26       0.0001
     33  CH2       16.6070  -39.7570   20.4330 C.ar   26  TRP26       0.0015
     34  N         17.0310  -43.4340   16.8910 N.3    61  TYR61      -0.1241
     35  CA        18.2690  -44.0580   16.4190 C.3    61  TYR61       0.1605
     36  C         19.5230  -43.2770   16.7070 C.2    61  TYR61       0.2264
     37  O         20.4720  -43.3000   15.9170 O.2    61  TYR61      -0.2867
     38  CB        18.1790  -44.3210   14.9170 C.3    61  TYR61       0.0534
     39  CG        17.1420  -45.3430   14.6030 C.ar   61  TYR61      -0.0201
     40  CD1       15.8120  -44.9730   14.4060 C.ar   61  TYR61      -0.0009
     41  CD2       17.4880  -46.6950   14.5130 C.ar   61  TYR61      -0.0009
     42  CE1       14.8330  -45.9380   14.1250 C.ar   61  TYR61       0.0417
     43  CE2       16.5300  -47.6530   14.2260 C.ar   61  TYR61       0.0417
     44  CZ        15.2100  -47.2710   14.0390 C.ar   61  TYR61       0.1957
     45  OH        14.2600  -48.2310   13.7470 O.3    61  TYR61      -0.2866
     46  N         21.7400  -41.3390   14.2010 N.3    64  ARG64      -0.1231
     47  CA        21.1580  -41.6620   12.8950 C.3    64  ARG64       0.1694
     48  C         19.7070  -41.2180   12.7790 C.2    64  ARG64       0.2593
     49  O         18.9570  -41.7230   11.9640 O.2    64  ARG64      -0.2718
     50  CB        21.3140  -43.1580   12.5930 C.3    64  ARG64       0.0321
     51  CG        22.7700  -43.5780   12.3810 C.3    64  ARG64       0.0489
     52  CD        23.2760  -43.1420   11.0130 C.3    64  ARG64       0.2205
     53  NE        23.6890  -41.7380   10.9730 N.pl3  64  ARG64      -0.0865
     54  CZ        24.8580  -41.3090   10.5010 C.cat  64  ARG64       0.5346
     55  NH1       25.7480  -42.1670   10.0140 N.pl3  64  ARG64       0.1354
     56  NH2       25.1390  -40.0140   10.5080 N.pl3  64  ARG64       0.1354
     57  N         19.3040  -40.2580   13.6080 N.am   65  GLY65      -0.1942
     58  CA        17.9730  -39.7000   13.4820 C.3    65  GLY65       0.2014
     59  C         16.9700  -40.2120   14.4900 C.2    65  GLY65       0.2639
     60  O         17.1830  -41.2410   15.1630 O.2    65  GLY65      -0.2714
     61  N         15.8590  -39.4930   14.6060 N.am   66  GLY66      -0.1939
     62  CA        14.9020  -39.8230   15.6440 C.3    66  GLY66       0.2014
     63  C         13.5890  -39.0750   15.5560 C.2    66  GLY66       0.2639
     64  O         13.2930  -38.4050   14.5580 O.2    66  GLY66      -0.2714
     65  N         12.7980  -39.2070   16.6140 N.am   67  PHE67      -0.1960
     66  CA        11.4020  -38.8070   16.5660 C.3    67  PHE67       0.1756
     67  C         11.0580  -37.9070   17.7500 C.2    67  PHE67       0.2461
     68  O         10.9580  -38.3950   18.8780 O.2    67  PHE67      -0.2730
     69  CB        10.5350  -40.0690   16.5950 C.3    67  PHE67       0.0574
     70  CG        10.8460  -41.0150   15.4760 C.ar   67  PHE67      -0.0200
     71  CD1       10.3390  -40.7840   14.1920 C.ar   67  PHE67      -0.0042
     72  CD2       11.6790  -42.1140   15.6920 C.ar   67  PHE67      -0.0042
     73  CE1       10.6280  -41.6620   13.1360 C.ar   67  PHE67      -0.0003
     74  CE2       11.9920  -42.9930   14.6210 C.ar   67  PHE67      -0.0003
     75  CZ        11.4670  -42.7610   13.3560 C.ar   67  PHE67      -0.0000
     76  N         10.8990  -36.5870   17.5040 N.am   68  PRO68      -0.2727
     77  CA        10.5650  -35.6630   18.5960 C.3    68  PRO68       0.1402
     78  C          9.3490  -36.1000   19.4150 C.2    68  PRO68       0.2269
     79  O          9.3490  -35.9610   20.6430 O.2    68  PRO68      -0.2865
     80  CB        10.3220  -34.3310   17.8480 C.3    68  PRO68       0.0296
     81  CG        11.3090  -34.4130   16.6980 C.3    68  PRO68       0.0237
     82  CD        11.1220  -35.8690   16.2330 C.3    68  PRO68       0.0939
     83  N          9.3260  -28.9710   12.5260 N.3   133  VAL133     -0.1245
     84  CA        10.2220  -29.5740   11.5450 C.3   133  VAL133      0.1561
     85  C         10.3760  -28.6410   10.3650 C.2   133  VAL133      0.2260
     86  O          9.4650  -27.8440   10.0980 O.2   133  VAL133     -0.2867
     87  CB         9.7150  -30.9500   11.0960 C.3   133  VAL133      0.0252
     88  CG1        9.7720  -31.9250   12.2850 C.3   133  VAL133      0.0019
     89  CG2        8.2700  -30.8680   10.5320 C.3   133  VAL133      0.0019
     90  N         10.7090  -32.4080    4.7290 N.3   157  ILE157     -0.1231
     91  CA        11.1990  -32.1420    6.0880 C.3   157  ILE157      0.1692
     92  C         12.2590  -33.1440    6.5130 C.2   157  ILE157      0.2592
     93  O         12.1530  -34.3460    6.2150 O.2   157  ILE157     -0.2718
     94  CB        10.0340  -32.0720    7.1010 C.3   157  ILE157      0.0266
     95  CG1        9.2090  -33.3740    7.0310 C.3   157  ILE157      0.0019
     96  CG2        9.1970  -30.8260    6.8090 C.3   157  ILE157      0.0020
     97  CD1        8.1710  -33.5380    8.0940 C.3   157  ILE157      0.0001
     98  N         13.3130  -32.6480    7.1560 N.am  158  ASP158     -0.1960
     99  CA        14.4480  -33.4920    7.5060 C.3   158  ASP158      0.1840
    100  C         15.1870  -33.0630    8.7820 C.2   158  ASP158      0.2622
    101  O         16.2040  -33.6460    9.1100 O.2   158  ASP158     -0.2715
    102  CB        15.4530  -33.5550    6.3310 C.3   158  ASP158      0.1450
    103  CG        15.9960  -32.1750    5.9360 C.2   158  ASP158      0.3671
    104  OD1       15.8980  -31.2240    6.7430 O.co2 158  ASP158     -0.2456
    105  OD2       16.5120  -32.0270    4.8100 O.co2 158  ASP158     -0.2456
    106  N         14.6790  -32.0550    9.5010 N.am  159  HIS159     -0.1959
    107  CA        15.4600  -31.4310   10.5780 C.3   159  HIS159      0.1787
    108  C         14.4800  -30.8460   11.6030 C.2   159  HIS159      0.2620
    109  O         13.6210  -30.0280   11.2690 O.2   159  HIS159     -0.2715
    110  CB        16.3620  -30.3350    9.9650 C.3   159  HIS159      0.0785
    111  CG        17.2790  -29.6580   10.9390 C.ar  159  HIS159      0.0821
    112  ND1       18.3030  -30.3170   11.5830 N.ar  159  HIS159     -0.2267
    113  CD2       17.3570  -28.3620   11.3360 C.ar  159  HIS159      0.1154
    114  CE1       18.9510  -29.4690   12.3630 C.ar  159  HIS159      0.1986
    115  NE2       18.4040  -28.2720   12.2240 N.ar  159  HIS159     -0.2212
    116  N         14.6010  -31.3030   12.8450 N.am  160  ALA160     -0.1977
    117  CA        13.7530  -30.8570   13.9340 C.3   160  ALA160      0.1597
    118  C         14.4090  -29.6250   14.5620 C.2   160  ALA160      0.2287
    119  O         15.6380  -29.5860   14.7740 O.2   160  ALA160     -0.2864
    120  CB        13.6020  -31.9940   14.9850 C.3   160  ALA160      0.0319
    121  N         22.6860  -25.5500   15.3210 N.3   177  TRP177     -0.1241
    122  CA        23.9130  -25.5230   14.5180 C.3   177  TRP177      0.1605
    123  C         24.9350  -24.5000   15.0440 C.2   177  TRP177      0.2264
    124  O         25.7990  -24.0110   14.2990 O.2   177  TRP177     -0.2867
    125  CB        23.5640  -25.2230   13.0650 C.3   177  TRP177      0.0550
    126  CG        22.8830  -26.3570   12.3180 C.ar  177  TRP177      0.0003
    127  CD1       22.7150  -27.6690   12.7260 C.ar  177  TRP177      0.0946
    128  CD2       22.3270  -26.2720   10.9980 C.ar  177  TRP177      0.0152
    129  NE1       22.0650  -28.3900   11.7240 N.ar  177  TRP177     -0.2442
    130  CE2       21.8340  -27.5550   10.6590 C.ar  177  TRP177      0.0810
    131  CE3       22.2210  -25.2350   10.0610 C.ar  177  TRP177      0.0012
    132  CZ2       21.2160  -27.8180    9.4270 C.ar  177  TRP177      0.0191
    133  CZ3       21.6010  -25.4930    8.8260 C.ar  177  TRP177      0.0001
    134  CH2       21.1030  -26.7750    8.5280 C.ar  177  TRP177      0.0015
    135  N          4.6690  -30.7510   11.0150 N.3   205  ASP205     -0.1239
    136  CA         4.6440  -31.7090   12.1160 C.3   205  ASP205      0.1674
    137  C          5.1600  -31.0840   13.4060 C.2   205  ASP205      0.2266
    138  O          6.3660  -31.0160   13.6290 O.2   205  ASP205     -0.2867
    139  CB         5.4950  -32.9380   11.7670 C.3   205  ASP205      0.1410
    140  CG         5.4130  -34.0370   12.8210 C.2   205  ASP205      0.3668
    141  OD1        4.4750  -34.0370   13.6560 O.co2 205  ASP205     -0.2456
    142  OD2        6.3090  -34.9100   12.7990 O.co2 205  ASP205     -0.2456
@<TRIPOS>BOND
     1    90    91    1
     2   105   103   ar
     3   103   102    1
     4   103   104   ar
     5    91    92    1
     6    91    94    1
     7    93    92    2
     8   102    99    1
     9    92    98   am
    10    96    94    1
    11    95    94    1
    12    95    97    1
    13    98    99    1
    14    99   100    1
    15   134   133   ar
    16   134   132   ar
    17   100   101    2
    18   100   106   am
    19   133   131   ar
    20   132   130   ar
    21   106   107    1
    22   110   107    1
    23   110   111    1
    24    55    54    1
    25   131   128   ar
    26    86    85    2
    27    85    84    1
    28    54    56    1
    29    54    53    2
    30    89    87    1
    31   107   108    1
    32   130   128   ar
    33   130   129   ar
    34   111   113   ar
    35   111   112   ar
    36    53    52    1
    37   128   126   ar
    38    52    51    1
    39   135   136    1
    40    87    84    1
    41    87    88    1
    42   109   108    2
    43   113   115   ar
    44    84    83    1
    45   112   114   ar
    46   108   116   am
    47   129   127   ar
    48   139   136    1
    49   139   140    1
    50    49    48    2
    51   136   137    1
    52   115   114   ar
    53   126   127   ar
    54   126   125    1
    55    51    50    1
    56    50    47    1
    57    48    47    1
    58    48    57   am
    59   142   140   ar
    60   140   141   ar
    61   116   117    1
    62    47    46    1
    63   125   122    1
    64    73    75   ar
    65    73    71   ar
    66    75    74   ar
    67    11    10    1
    68    11    12    1
    69   137   138    2
    70    58    57    1
    71    58    59    1
    72    19    18    1
    73    45    44    1
    74   117   118    1
    75   117   120    1
    76    44    42   ar
    77    44    43   ar
    78     9     7   am
    79    42    40   ar
    80    71    70   ar
    81    43    41   ar
    82   124   123    2
    83    40    39   ar
    84    59    61   am
    85    59    60    2
    86    18    15    1
    87    41    39   ar
    88   122   123    1
    89   122   121    1
    90    12    13    2
    91    64    63    2
    92   118   119    2
    93    39    38    1
    94    61    62    1
    95    74    72   ar
    96     7     8    2
    97     7     6    1
    98    38    35    1
    99     6     5    1
   100    70    72   ar
   101    70    69    1
   102    63    62    1
   103    63    65   am
   104    14    15    1
   105    15    16    1
   106    37    36    2
   107    82    81    1
   108    82    76    1
   109    35    36    1
   110    35    34    1
   111    66    69    1
   112    66    65    1
   113    66    67    1
   114    26    28   ar
   115    26    25   ar
   116    20    16   am
   117    20    21    1
   118    81    80    1
   119    16    17    2
   120     5     2    1
   121    24    25    1
   122    24    21    1
   123     3     4    2
   124     3     2    1
   125    28    29   ar
   126    25    27   ar
   127    21    22    1
   128    76    67   am
   129    76    77    1
   130     2     1    1
   131    67    68    2
   132    80    77    1
   133    29    27   ar
   134    29    31   ar
   135    27    30   ar
   136    77    78    1
   137    22    23    2
   138    31    33   ar
   139    78    79    2
   140    30    32   ar
   141    33    32   ar
