@<TRIPOS>MOLECULE
tmp/3ip6A00.pdb
 86 83 0 0 0
SMALL
GASTEIGER

@<TRIPOS>ATOM
      1  N         16.6610   18.3400   21.3030 N.3    77  PHE77      -0.1227
      2  CA        17.7970   19.1100   20.7820 C.3    77  PHE77       0.1736
      3  C         19.0470   18.2320   20.7140 C.2    77  PHE77       0.2595
      4  O         19.6980   18.1210   19.6620 O.2    77  PHE77      -0.2718
      5  CB        18.0560   20.3330   21.6740 C.3    77  PHE77       0.0547
      6  CG        19.3140   21.1170   21.3280 C.ar   77  PHE77      -0.0202
      7  CD1       19.3760   21.9080   20.1840 C.ar   77  PHE77      -0.0042
      8  CD2       20.4190   21.0730   22.1610 C.ar   77  PHE77      -0.0042
      9  CE1       20.5240   22.6370   19.8750 C.ar   77  PHE77      -0.0003
     10  CE2       21.5710   21.8060   21.8650 C.ar   77  PHE77      -0.0003
     11  CZ        21.6280   22.5820   20.7160 C.ar   77  PHE77      -0.0000
     12  N         19.3680   17.6030   21.8430 N.am   78  ASN78      -0.1960
     13  CA        20.5600   16.7790   21.9780 C.3    78  ASN78       0.1819
     14  C         20.3550   15.3730   21.4300 C.2    78  ASN78       0.2622
     15  O         19.3300   14.7450   21.6830 O.2    78  ASN78      -0.2715
     16  CB        20.9610   16.7030   23.4470 C.3    78  ASN78       0.1195
     17  CG        21.1990   18.0720   24.0660 C.2    78  ASN78       0.2630
     18  OD1       22.2760   18.6750   23.9220 O.2    78  ASN78      -0.2716
     19  ND2       20.2080   18.5580   24.7920 N.am   78  ASN78      -0.0877
     20  N         21.3320   14.8740   20.6770 N.am   79  SER79      -0.1950
     21  CA        21.2380   13.5140   20.1260 C.3    79  SER79       0.1924
     22  C         21.1480   12.4780   21.2290 C.2    79  SER79       0.2314
     23  O         20.4050   11.5070   21.0990 O.2    79  SER79      -0.2863
     24  CB        22.4320   13.1870   19.2190 C.3    79  SER79       0.2116
     25  OG        22.2820   13.7560   17.9300 O.3    79  SER79      -0.2180
     26  N         17.0060   19.5360   15.3840 N.3   100  ALA100     -0.1231
     27  CA        18.3860   19.8440   15.7810 C.3   100  ALA100      0.1694
     28  C         19.2930   18.6430   16.0440 C.2   100  ALA100      0.2592
     29  O         20.5050   18.8010   16.0700 O.2   100  ALA100     -0.2718
     30  CB        18.3920   20.7690   17.0010 C.3   100  ALA100      0.0304
     31  N         18.7320   17.4620   16.2890 N.am  101  ALA101     -0.1966
     32  CA        19.5600   16.2970   16.5970 C.3   101  ALA101      0.1728
     33  C         20.1520   15.7170   15.3210 C.2   101  ALA101      0.2616
     34  O         19.4110   15.3270   14.4120 O.2   101  ALA101     -0.2715
     35  CB        18.7570   15.2420   17.3450 C.3   101  ALA101      0.0334
     36  N         21.4890   15.6580   15.2710 N.am  102  THR102     -0.1951
     37  CA        22.2160   15.4030   14.0270 C.3   102  THR102      0.1897
     38  C         22.9930   14.0920   13.9850 C.2   102  THR102      0.2313
     39  O         23.5460   13.7410   12.9480 O.2   102  THR102     -0.2863
     40  CB        23.2120   16.5450   13.7370 C.3   102  THR102      0.1794
     41  OG1       24.0530   16.7390   14.8790 O.3   102  THR102     -0.2208
     42  CG2       22.4770   17.8210   13.4500 C.3   102  THR102      0.0378
     43  N         26.6810   13.2190   20.2070 N.3   150  TYR150     -0.1241
     44  CA        26.8360   14.2890   19.2320 C.3   150  TYR150      0.1605
     45  C         28.2920   14.6950   19.0420 C.2   150  TYR150      0.2264
     46  O         28.7900   14.7630   17.9250 O.2   150  TYR150     -0.2867
     47  CB        26.0630   15.5310   19.6730 C.3   150  TYR150      0.0534
     48  CG        26.3940   16.7320   18.8200 C.ar  150  TYR150     -0.0201
     49  CD1       26.1570   16.7090   17.4570 C.ar  150  TYR150     -0.0009
     50  CD2       26.9600   17.8820   19.3740 C.ar  150  TYR150     -0.0009
     51  CE1       26.4580   17.7900   16.6600 C.ar  150  TYR150      0.0417
     52  CE2       27.2540   18.9800   18.5830 C.ar  150  TYR150      0.0417
     53  CZ        27.0040   18.9210   17.2300 C.ar  150  TYR150      0.1957
     54  OH        27.2900   20.0060   16.4470 O.3   150  TYR150     -0.2866
     55  N         29.0980   21.6210   22.0100 N.3   202  LEU202     -0.1245
     56  CA        28.1270   22.7170   22.0680 C.3   202  LEU202      0.1561
     57  C         28.7740   24.0390   22.4740 C.2   202  LEU202      0.2260
     58  O         29.9850   24.1090   22.6820 O.2   202  LEU202     -0.2867
     59  CB        26.9620   22.3430   23.0000 C.3   202  LEU202      0.0270
     60  CG        26.2940   21.0010   22.6780 C.3   202  LEU202      0.0019
     61  CD1       25.2920   20.5910   23.7670 C.3   202  LEU202      0.0001
     62  CD2       25.6130   21.0700   21.3230 C.3   202  LEU202      0.0001
     63  N         27.3310   22.7870   14.1220 N.3   226  ASP226     -0.1225
     64  CA        25.9930   23.3370   14.3050 C.3   226  ASP226      0.1805
     65  C         25.5120   23.3060   15.7660 C.2   226  ASP226      0.2598
     66  O         24.3480   23.6040   16.0610 O.2   226  ASP226     -0.2718
     67  CB        24.9900   22.6860   13.3240 C.3   226  ASP226      0.1424
     68  CG        24.9330   21.1700   13.4410 C.2   226  ASP226      0.3668
     69  OD1       25.6320   20.5850   14.2940 O.co2 226  ASP226     -0.2456
     70  OD2       24.1960   20.5530   12.6400 O.co2 226  ASP226     -0.2456
     71  N         26.4260   23.0140   16.6850 N.am  227  GLY227     -0.1957
     72  CA        26.1190   23.1020   18.1050 C.3   227  GLY227      0.1869
     73  C         26.4660   24.4240   18.7700 C.2   227  GLY227      0.2309
     74  O         26.2040   24.6110   19.9660 O.2   227  GLY227     -0.2863
     75  N         17.9090   27.4750   15.2260 N.3   275  TYR275     -0.1241
     76  CA        16.9200   26.4000   15.1240 C.3   275  TYR275      0.1605
     77  C         15.4740   26.8470   15.2450 C.2   275  TYR275      0.2264
     78  O         14.5690   26.0160   15.1280 O.2   275  TYR275     -0.2867
     79  CB        17.2130   25.2680   16.1220 C.3   275  TYR275      0.0534
     80  CG        18.5050   24.5810   15.8020 C.ar  275  TYR275     -0.0201
     81  CD1       18.5870   23.6680   14.7480 C.ar  275  TYR275     -0.0009
     82  CD2       19.6570   24.8550   16.5380 C.ar  275  TYR275     -0.0009
     83  CE1       19.7760   23.0590   14.4360 C.ar  275  TYR275      0.0417
     84  CE2       20.8590   24.2420   16.2260 C.ar  275  TYR275      0.0417
     85  CZ        20.9080   23.3520   15.1830 C.ar  275  TYR275      0.1957
     86  OH        22.0700   22.7210   14.8300 O.3   275  TYR275     -0.2866
@<TRIPOS>BOND
     1    70    68   ar
     2    39    38    2
     3    67    68    1
     4    67    64    1
     5    68    69   ar
     6    42    40    1
     7    40    37    1
     8    40    41    1
     9    38    37    1
    10    37    36    1
    11    63    64    1
    12    64    65    1
    13    34    33    2
    14    83    81   ar
    15    83    85   ar
    16    81    80   ar
    17    86    85    1
    18    76    75    1
    19    76    77    1
    20    76    79    1
    21    78    77    2
    22    85    84   ar
    23    36    33   am
    24    33    32    1
    25    26    27    1
    26    65    66    2
    27    65    71   am
    28    27    28    1
    29    27    30    1
    30    80    79    1
    31    80    82   ar
    32    28    29    2
    33    28    31   am
    34    84    82   ar
    35    31    32    1
    36    54    53    1
    37    32    35    1
    38    51    53   ar
    39    51    49   ar
    40    71    72    1
    41    53    52   ar
    42    49    48   ar
    43    46    45    2
    44    25    24    1
    45    72    73    1
    46    52    50   ar
    47    73    74    2
    48    48    50   ar
    49    48    47    1
    50    45    44    1
    51    24    21    1
    52    44    47    1
    53    44    43    1
    54     4     3    2
    55     9     7   ar
    56     9    11   ar
    57    21    20    1
    58    21    22    1
    59     7     6   ar
    60    20    14   am
    61     3     2    1
    62     3    12   am
    63    11    10   ar
    64     2     1    1
    65     2     5    1
    66    23    22    2
    67    62    60    1
    68     6     5    1
    69     6     8   ar
    70    14    15    2
    71    14    13    1
    72    12    13    1
    73    10     8   ar
    74    13    16    1
    75    55    56    1
    76    56    57    1
    77    56    59    1
    78    57    58    2
    79    60    59    1
    80    60    61    1
    81    16    17    1
    82    18    17    2
    83    17    19   am
