@<TRIPOS>MOLECULE
tmp/3ip7A00.pdb
 86 83 0 0 0
SMALL
GASTEIGER

@<TRIPOS>ATOM
      1  N        -17.9670   -2.8660   15.6640 N.3    77  PHE77      -0.1227
      2  CA       -19.2070   -3.5730   15.9620 C.3    77  PHE77       0.1736
      3  C        -20.0720   -3.6750   14.6950 C.2    77  PHE77       0.2595
      4  O        -20.3930   -4.7720   14.2510 O.2    77  PHE77      -0.2718
      5  CB       -19.9630   -2.8580   17.0940 C.3    77  PHE77       0.0547
      6  CG       -21.3190   -3.4620   17.4330 C.ar   77  PHE77      -0.0202
      7  CD1      -21.4100   -4.7040   18.0390 C.ar   77  PHE77      -0.0042
      8  CD2      -22.4920   -2.7590   17.1770 C.ar   77  PHE77      -0.0042
      9  CE1      -22.6410   -5.2620   18.3590 C.ar   77  PHE77      -0.0003
     10  CE2      -23.7460   -3.3020   17.5100 C.ar   77  PHE77      -0.0003
     11  CZ       -23.8150   -4.5620   18.1010 C.ar   77  PHE77      -0.0000
     12  N        -20.4090   -2.5370   14.1060 N.am   78  ASN78      -0.1960
     13  CA       -21.3140   -2.4980   12.9520 C.3    78  ASN78       0.1819
     14  C        -20.5750   -2.8690   11.6810 C.2    78  ASN78       0.2622
     15  O        -19.4500   -2.4250   11.4540 O.2    78  ASN78      -0.2715
     16  CB       -21.8770   -1.0970   12.7990 C.3    78  ASN78       0.1195
     17  CG       -22.6290   -0.6350   14.0390 C.2    78  ASN78       0.2630
     18  OD1      -23.8220   -0.9250   14.2110 O.2    78  ASN78      -0.2716
     19  ND2      -21.9470    0.0890   14.9040 N.am   78  ASN78      -0.0877
     20  N        -21.2110   -3.6780   10.8480 N.am   79  SER79      -0.1950
     21  CA       -20.6590   -4.0130    9.5420 C.3    79  SER79       0.1924
     22  C        -20.3780   -2.7720    8.6800 C.2    79  SER79       0.2314
     23  O        -19.3420   -2.6790    8.0100 O.2    79  SER79      -0.2863
     24  CB       -21.6010   -4.9890    8.8180 C.3    79  SER79       0.2116
     25  OG       -21.4540   -6.2930    9.3480 O.3    79  SER79      -0.2180
     26  N        -17.8020   -8.8400   16.2200 N.3   100  ALA100     -0.1231
     27  CA       -19.2490   -8.6560   16.0620 C.3   100  ALA100      0.1694
     28  C        -19.7820   -8.3680   14.6530 C.2   100  ALA100      0.2592
     29  O        -20.9990   -8.5360   14.4350 O.2   100  ALA100     -0.2718
     30  CB       -19.7280   -7.5810   16.9950 C.3   100  ALA100      0.0304
     31  N        -18.9600   -7.8420   13.7510 N.am  101  ALA101     -0.1966
     32  CA       -19.4680   -7.5150   12.4020 C.3   101  ALA101      0.1728
     33  C        -19.6520   -8.8010   11.6330 C.2   101  ALA101      0.2616
     34  O        -18.7050   -9.5870   11.4880 O.2   101  ALA101     -0.2715
     35  CB       -18.5560   -6.5300   11.6480 C.3   101  ALA101      0.0334
     36  N        -20.8840   -9.0420   11.1740 N.am  102  THR102     -0.1951
     37  CA       -21.2700  -10.3360   10.5990 C.3   102  THR102      0.1897
     38  C        -21.5270  -10.2790    9.0850 C.2   102  THR102      0.2313
     39  O        -21.7760  -11.3020    8.4560 O.2   102  THR102     -0.2863
     40  CB       -22.5470  -10.8660   11.2560 C.3   102  THR102      0.1794
     41  OG1      -23.5350   -9.8320   11.1820 O.3   102  THR102     -0.2208
     42  CG2      -22.2930  -11.2720   12.7360 C.3   102  THR102      0.0378
     43  N        -25.5140   -4.2400    7.3830 N.3   150  TYR150     -0.1241
     44  CA       -25.8080   -5.3950    8.2030 C.3   150  TYR150      0.1605
     45  C        -27.2640   -5.8140    8.1480 C.2   150  TYR150      0.2264
     46  O        -27.5820   -7.0020    8.0430 O.2   150  TYR150     -0.2867
     47  CB       -25.5350   -5.0930    9.6770 C.3   150  TYR150      0.0534
     48  CG       -26.1780   -6.0800   10.6250 C.ar  150  TYR150     -0.0201
     49  CD1      -25.7930   -7.4280   10.6290 C.ar  150  TYR150     -0.0009
     50  CD2      -27.2000   -5.6890   11.5030 C.ar  150  TYR150     -0.0009
     51  CE1      -26.3610   -8.3270   11.4860 C.ar  150  TYR150      0.0417
     52  CE2      -27.7910   -6.6040   12.3710 C.ar  150  TYR150      0.0417
     53  CZ       -27.3640   -7.9270   12.3570 C.ar  150  TYR150      0.1957
     54  OH       -27.9000   -8.8540   13.2070 O.3   150  TYR150     -0.2866
     55  N        -30.9180   -3.7800   14.6500 N.3   202  LEU202     -0.1245
     56  CA       -30.4220   -3.7700   16.0350 C.3   202  LEU202      0.1561
     57  C        -31.5390   -3.6560   17.0600 C.2   202  LEU202      0.2260
     58  O        -32.7140   -3.6220   16.6980 O.2   202  LEU202     -0.2867
     59  CB       -29.3740   -2.6660   16.2410 C.3   202  LEU202      0.0270
     60  CG       -28.2370   -2.6390   15.2140 C.3   202  LEU202      0.0019
     61  CD1      -27.2490   -1.5060   15.5330 C.3   202  LEU202      0.0001
     62  CD2      -27.5160   -3.9940   15.1150 C.3   202  LEU202      0.0001
     63  N        -28.4340  -11.4770   15.7550 N.3   226  ASP226     -0.1225
     64  CA       -27.4560  -11.1280   16.7760 C.3   226  ASP226      0.1805
     65  C        -27.5430   -9.6820   17.2760 C.2   226  ASP226      0.2598
     66  O        -27.1240   -9.3800   18.3970 O.2   226  ASP226     -0.2718
     67  CB       -26.0610  -11.4180   16.2220 C.3   226  ASP226      0.1424
     68  CG       -25.6820  -10.4880   15.0940 C.2   226  ASP226      0.3668
     69  OD1      -24.9610   -9.5030   15.3690 O.co2 226  ASP226     -0.2456
     70  OD2      -26.1210  -10.7010   13.9230 O.co2 226  ASP226     -0.2456
     71  N        -28.1090   -8.7880   16.4730 N.am  227  GLY227     -0.1957
     72  CA       -28.1740   -7.3850   16.8550 C.3   227  GLY227      0.1869
     73  C        -29.1310   -7.0530   17.9940 C.2   227  GLY227      0.2309
     74  O        -29.1580   -5.9130   18.4610 O.2   227  GLY227     -0.2863
     75  N        -21.2690  -10.1040   23.4520 N.3   275  TYR275     -0.1241
     76  CA       -20.0420   -9.9380   22.6540 C.3   275  TYR275      0.1605
     77  C        -18.7840   -9.7220   23.5260 C.2   275  TYR275      0.2264
     78  O        -17.6750   -9.6420   23.0060 O.2   275  TYR275     -0.2867
     79  CB       -20.2360   -8.8400   21.5810 C.3   275  TYR275      0.0534
     80  CG       -20.9950   -9.2950   20.3030 C.ar  275  TYR275     -0.0201
     81  CD1      -20.4140  -10.2020   19.4260 C.ar  275  TYR275     -0.0009
     82  CD2      -22.2580   -8.7970   19.9690 C.ar  275  TYR275     -0.0009
     83  CE1      -21.0590  -10.6300   18.2600 C.ar  275  TYR275      0.0417
     84  CE2      -22.9200   -9.2190   18.7900 C.ar  275  TYR275      0.0417
     85  CZ       -22.3000  -10.1440   17.9370 C.ar  275  TYR275      0.1957
     86  OH       -22.8790  -10.6140   16.7450 O.3   275  TYR275     -0.2866
@<TRIPOS>BOND
     1    43    44    1
     2    23    22    2
     3    46    45    2
     4    45    44    1
     5    44    47    1
     6    39    38    2
     7    22    21    1
     8    24    25    1
     9    24    21    1
    10    38    37    1
    11    21    20    1
    12    47    48    1
    13    37    36    1
    14    37    40    1
    15    48    49   ar
    16    48    50   ar
    17    49    51   ar
    18    20    14   am
    19    36    33   am
    20    41    40    1
    21    40    42    1
    22    15    14    2
    23    51    53   ar
    24    34    33    2
    25    50    52   ar
    26    33    32    1
    27    35    32    1
    28    14    13    1
    29    53    52   ar
    30    53    54    1
    31    32    31    1
    32    16    13    1
    33    16    17    1
    34    13    12    1
    35    31    28   am
    36    70    68   ar
    37    17    18    2
    38    17    19   am
    39    12     3   am
    40     4     3    2
    41    29    28    2
    42    55    56    1
    43    28    27    1
    44     3     2    1
    45    68    69   ar
    46    68    67    1
    47    62    60    1
    48    60    61    1
    49    60    59    1
    50     1     2    1
    51    63    64    1
    52     2     5    1
    53    56    59    1
    54    56    57    1
    55    27    26    1
    56    27    30    1
    57    67    64    1
    58    71    72    1
    59    71    65   am
    60    58    57    2
    61    86    85    1
    62    64    65    1
    63    72    73    1
    64     5     6    1
    65     8     6   ar
    66     8    10   ar
    67    65    66    2
    68     6     7   ar
    69    10    11   ar
    70    85    83   ar
    71    85    84   ar
    72    73    74    2
    73     7     9   ar
    74    11     9   ar
    75    83    81   ar
    76    84    82   ar
    77    81    80   ar
    78    82    80   ar
    79    80    79    1
    80    79    76    1
    81    76    75    1
    82    76    77    1
    83    78    77    2
