@<TRIPOS>MOLECULE
tmp/3ip8A00.pdb
 130 124 0 0 0
SMALL
GASTEIGER

@<TRIPOS>ATOM
      1  N         -0.7250   21.2300   11.7570 N.3     7  VAL7       -0.1231
      2  CA        -0.0660   20.6700   12.9370 C.3     7  VAL7        0.1678
      3  C         -0.9940   20.7320   14.1450 C.2     7  VAL7        0.2434
      4  O         -1.7810   21.6500   14.2700 O.2     7  VAL7       -0.2733
      5  CB         1.2550   21.4100   13.2540 C.3     7  VAL7        0.0265
      6  CG1        2.2270   21.2680   12.0870 C.3     7  VAL7        0.0020
      7  CG2        1.0060   22.9010   13.5640 C.3     7  VAL7        0.0020
      8  N         -0.9070   19.7550   15.0460 N.am    8  PRO8       -0.2718
      9  CA        -1.7830   19.7720   16.2230 C.3     8  PRO8        0.1520
     10  C         -1.6960   21.0010   17.1460 C.2     8  PRO8        0.2440
     11  O         -2.7460   21.4940   17.5290 O.2     8  PRO8       -0.2731
     12  CB        -1.4310   18.4600   16.9430 C.3     8  PRO8        0.0310
     13  CG        -1.0780   17.5310   15.7930 C.3     8  PRO8        0.0237
     14  CD        -0.2940   18.4290   14.8310 C.3     8  PRO8        0.0939
     15  N         -0.4930   21.4880   17.5010 N.am    9  PRO9       -0.2727
     16  CA        -0.4670   22.5780   18.5040 C.3     9  PRO9        0.1402
     17  C         -1.0250   23.9100   18.0200 C.2     9  PRO9        0.2269
     18  O         -0.9130   24.2370   16.8370 O.2     9  PRO9       -0.2865
     19  CB         1.0190   22.7170   18.8390 C.3     9  PRO9        0.0296
     20  CG         1.6290   21.3670   18.4380 C.3     9  PRO9        0.0237
     21  CD         0.8600   21.0140   17.1850 C.3     9  PRO9        0.0939
     22  N         -5.1240   21.4170   19.1900 N.3    34  LEU34      -0.1245
     23  CA        -5.4520   20.1940   19.9030 C.3    34  LEU34       0.1561
     24  C         -5.1770   20.3770   21.3960 C.2    34  LEU34       0.2260
     25  O         -4.0990   20.8400   21.7940 O.2    34  LEU34      -0.2867
     26  CB        -4.6100   19.0360   19.3540 C.3    34  LEU34       0.0270
     27  CG        -4.8120   17.6590   19.9900 C.3    34  LEU34       0.0019
     28  CD1       -6.2430   17.1470   19.7670 C.3    34  LEU34       0.0001
     29  CD2       -3.8240   16.6720   19.3900 C.3    34  LEU34       0.0001
     30  N         -3.8630   14.5770   23.6630 N.3    37  VAL37      -0.1245
     31  CA        -3.5770   13.4820   22.7540 C.3    37  VAL37       0.1561
     32  C         -4.4430   12.3190   23.2070 C.2    37  VAL37       0.2260
     33  O         -3.9640   11.3220   23.7370 O.2    37  VAL37      -0.2867
     34  CB        -2.0730   13.1490   22.7360 C.3    37  VAL37       0.0252
     35  CG1       -1.7800   12.1050   21.6740 C.3    37  VAL37       0.0019
     36  CG2       -1.2650   14.4130   22.4300 C.3    37  VAL37       0.0019
     37  N         -9.1000   14.6780   19.9670 N.3    42  TYR42      -0.1241
     38  CA        -9.1550   14.7270   18.5070 C.3    42  TYR42       0.1605
     39  C        -10.5260   15.1670   18.0140 C.2    42  TYR42       0.2264
     40  O        -10.6200   15.9380   17.0650 O.2    42  TYR42      -0.2867
     41  CB        -8.8390   13.3700   17.8760 C.3    42  TYR42       0.0534
     42  CG        -7.6390   12.6780   18.4630 C.ar   42  TYR42      -0.0201
     43  CD1       -6.4830   13.3880   18.7630 C.ar   42  TYR42      -0.0009
     44  CD2       -7.6690   11.3170   18.7300 C.ar   42  TYR42      -0.0009
     45  CE1       -5.3780   12.7450   19.3170 C.ar   42  TYR42       0.0417
     46  CE2       -6.5800   10.6770   19.2840 C.ar   42  TYR42       0.0417
     47  CZ        -5.4390   11.3870   19.5700 C.ar   42  TYR42       0.1957
     48  OH        -4.3770   10.7110   20.1480 O.3    42  TYR42      -0.2866
     49  N         -0.1660   16.7420    9.6360 N.3    67  MET67      -0.1230
     50  CA         0.9770   16.2400   10.3870 C.3    67  MET67       0.1702
     51  C          0.5820   15.8430   11.8080 C.2    67  MET67       0.2593
     52  O          1.1170   16.3430   12.7980 O.2    67  MET67      -0.2718
     53  CB         2.0940   17.2900   10.3550 C.3    67  MET67       0.0401
     54  CG         2.6570   17.4680    8.9360 C.3    67  MET67       0.0596
     55  SD         3.8130   16.1300    8.4750 S.3    67  MET67      -0.1393
     56  CE         5.2520   16.5600    9.4960 C.3    67  MET67       0.0692
     57  N         -0.3700   14.9250   11.8840 N.am   68  GLY68      -0.1942
     58  CA        -0.7550   14.3310   13.1510 C.3    68  GLY68       0.2014
     59  C         -0.9910   12.8520   12.9090 C.2    68  GLY68       0.2640
     60  O         -1.7360   12.5160   11.9950 O.2    68  GLY68      -0.2714
     61  N         -0.3090   11.9940   13.6610 N.am   69  THR69      -0.1936
     62  CA        -0.4520   10.5390   13.5090 C.3    69  THR69       0.2028
     63  C         -1.7860   10.0640   14.1080 C.2    69  THR69       0.2643
     64  O         -2.6820    9.5680   13.3950 O.2    69  THR69      -0.2714
     65  CB         0.7290    9.7780   14.1610 C.3    69  THR69       0.1808
     66  OG1        1.8840   10.6350   14.1700 O.3    69  THR69      -0.2208
     67  CG2        1.0550    8.5220   13.3710 C.3    69  THR69       0.0379
     68  N         -1.9470   10.2320   15.4180 N.am   70  SER70      -0.1935
     69  CA        -3.1480    9.7300   16.0490 C.3    70  SER70       0.2055
     70  C         -4.3940   10.4640   15.5760 C.2    70  SER70       0.2642
     71  O         -5.4270    9.8470   15.4730 O.2    70  SER70      -0.2714
     72  CB        -3.0420    9.7260   17.5840 C.3    70  SER70       0.2130
     73  OG        -2.6410   10.9970   18.0640 O.3    70  SER70      -0.2179
     74  N         -4.3020   11.7540   15.2560 N.am   71  LEU71      -0.1977
     75  CA        -5.4400   12.4540   14.6630 C.3    71  LEU71       0.1596
     76  C         -5.9440   11.7800   13.4000 C.2    71  LEU71       0.2287
     77  O         -7.1390   11.8430   13.0760 O.2    71  LEU71      -0.2864
     78  CB        -5.0260   13.8910   14.3080 C.3    71  LEU71       0.0297
     79  CG        -5.3600   14.9300   15.3620 C.3    71  LEU71       0.0022
     80  CD1       -4.6830   16.2350   15.0000 C.3    71  LEU71       0.0001
     81  CD2       -6.8620   15.0880   15.4910 C.3    71  LEU71       0.0001
     82  N          0.0580   12.1470    8.2640 N.3    98  MET98      -0.1245
     83  CA         1.1910   11.5290    8.9420 C.3    98  MET98       0.1570
     84  C          0.9910   10.0090    9.1400 C.2    98  MET98       0.2261
     85  O          1.9810    9.2470    9.1910 O.2    98  MET98      -0.2867
     86  CB         1.4110   12.2730   10.2640 C.3    98  MET98       0.0387
     87  CG         2.6390   11.8530   11.0400 C.3    98  MET98       0.0595
     88  SD         2.9100   12.9510   12.4560 S.3    98  MET98      -0.1393
     89  CE         3.9030   14.2120   11.6850 C.3    98  MET98       0.0692
     90  N          2.0700    7.4870   23.8100 N.3   120  TYR120     -0.1241
     91  CA         0.6250    7.5840   24.0760 C.3   120  TYR120      0.1605
     92  C          0.1160    6.7710   25.2500 C.2   120  TYR120      0.2264
     93  O          0.7960    5.8550   25.7250 O.2   120  TYR120     -0.2867
     94  CB        -0.1870    7.1040   22.8750 C.3   120  TYR120      0.0534
     95  CG         0.2080    7.6530   21.5260 C.ar  120  TYR120     -0.0201
     96  CD1        0.3130    9.0270   21.3080 C.ar  120  TYR120     -0.0009
     97  CD2        0.3740    6.7980   20.4490 C.ar  120  TYR120     -0.0009
     98  CE1        0.6500    9.5210   20.0310 C.ar  120  TYR120      0.0417
     99  CE2        0.7110    7.2850   19.1830 C.ar  120  TYR120      0.0417
    100  CZ         0.8390    8.6420   18.9930 C.ar  120  TYR120      0.1957
    101  OH         1.1590    9.1300   17.7410 O.3   120  TYR120     -0.2866
    102  N         -0.0330   17.8670   24.6920 N.3   150  VAL150     -0.1245
    103  CA         0.3330   18.1040   23.2960 C.3   150  VAL150      0.1561
    104  C          1.7010   18.7990   23.1980 C.2   150  VAL150      0.2260
    105  O          2.6670   18.2540   22.6650 O.2   150  VAL150     -0.2867
    106  CB        -0.7420   18.9520   22.6090 C.3   150  VAL150      0.0252
    107  CG1       -0.3040   19.3260   21.1950 C.3   150  VAL150      0.0019
    108  CG2       -2.0660   18.2060   22.6000 C.3   150  VAL150      0.0019
    109  N          5.0180   17.0890   24.5270 N.3   153  MET153     -0.1245
    110  CA         5.7750   16.0860   23.7630 C.3   153  MET153      0.1570
    111  C          7.1740   16.5620   23.3970 C.2   153  MET153      0.2261
    112  O          8.1250   15.7750   23.3760 O.2   153  MET153     -0.2867
    113  CB         5.0030   15.7250   22.4780 C.3   153  MET153      0.0387
    114  CG         3.6770   15.0230   22.6960 C.3   153  MET153      0.0595
    115  SD         3.8430   13.4560   23.5940 S.3   153  MET153     -0.1393
    116  CE         2.1210   12.9410   23.5740 C.3   153  MET153      0.0692
    117  N          4.5400    9.6020   17.4410 N.3   182  CYS182     -0.1221
    118  CA         4.1100   10.8830   18.0130 C.3   182  CYS182      0.1808
    119  C          4.9060   11.9990   17.3550 C.2   182  CYS182      0.2602
    120  O          6.1290   12.1070   17.5110 O.2   182  CYS182     -0.2717
    121  CB         4.1730   10.9730   19.5370 C.3   182  CYS182      0.0970
    122  SG         3.7080   12.6350   20.0800 S.3   182  CYS182     -0.0800
    123  N          4.1960   12.7910   16.5760 N.am  183  GLY183     -0.1942
    124  CA         4.8230   13.8220   15.7870 C.3   183  GLY183      0.2014
    125  C          5.2400   15.0290   16.5950 C.2   183  GLY183      0.2639
    126  O          5.8210   15.9460   16.0380 O.2   183  GLY183     -0.2714
    127  N          4.9830   15.0230   17.9040 N.am  184  GLY184     -0.1954
    128  CA         5.4280   16.1140   18.7540 C.3   184  GLY184      0.1869
    129  C          6.7920   15.8270   19.3590 C.2   184  GLY184      0.2309
    130  O          7.4360   16.7040   19.9310 O.2   184  GLY184     -0.2863
@<TRIPOS>BOND
     1    82    83    1
     2    55    54    1
     3    55    56    1
     4    54    53    1
     5    83    84    1
     6    83    86    1
     7    84    85    2
     8    49    50    1
     9    86    87    1
    10    53    50    1
    11    50    51    1
    12    87    88    1
    13    89    88    1
    14     1     2    1
    15    51    57   am
    16    51    52    2
    17    57    58    1
    18    60    59    2
    19     6     5    1
    20    59    58    1
    21    59    61   am
    22     2     5    1
    23     2     3    1
    24    77    76    2
    25     5     7    1
    26    67    65    1
    27    64    63    2
    28    76    75    1
    29    62    61    1
    30    62    63    1
    31    62    65    1
    32    63    68   am
    33     3     4    2
    34     3     8   am
    35    65    66    1
    36    78    75    1
    37    78    79    1
    38    75    74    1
    39    14     8    1
    40    14    13    1
    41    80    79    1
    42     8     9    1
    43    74    70   am
    44    79    81    1
    45    68    69    1
    46    71    70    2
    47    70    69    1
    48   124   123    1
    49   124   125    1
    50    13    12    1
    51   126   125    2
    52    69    72    1
    53     9    12    1
    54     9    10    1
    55   123   119   am
    56   125   127   am
    57    18    17    2
    58    40    39    2
    59    10    15   am
    60    10    11    2
    61    21    15    1
    62    21    20    1
    63   119   120    2
    64   119   118    1
    65   117   118    1
    66    15    16    1
    67    72    73    1
    68   101   100    1
    69    41    42    1
    70    41    38    1
    71   127   128    1
    72   118   121    1
    73    39    38    1
    74    17    16    1
    75    20    19    1
    76    42    44   ar
    77    42    43   ar
    78    16    19    1
    79    38    37    1
    80    44    46   ar
    81   128   129    1
    82    43    45   ar
    83   100    99   ar
    84   100    98   ar
    85    99    97   ar
    86    22    23    1
    87    46    47   ar
    88    45    47   ar
    89    26    23    1
    90    26    27    1
    91   129   130    2
    92    29    27    1
    93   121   122    1
    94    47    48    1
    95    28    27    1
    96    23    24    1
    97    98    96   ar
    98    97    95   ar
    99   107   106    1
   100    96    95   ar
   101    24    25    2
   102    95    94    1
   103    35    34    1
   104    36    34    1
   105   113   114    1
   106   113   110    1
   107   108   106    1
   108   106   103    1
   109   105   104    2
   110   114   115    1
   111    34    31    1
   112    31    32    1
   113    31    30    1
   114    94    91    1
   115   104   103    1
   116    32    33    2
   117   103   102    1
   118   112   111    2
   119   111   110    1
   120   116   115    1
   121   110   109    1
   122    90    91    1
   123    91    92    1
   124    92    93    2
