@<TRIPOS>MOLECULE
tmp/3ip9A00.pdb
 90 87 0 0 0
SMALL
GASTEIGER

@<TRIPOS>ATOM
      1  N         16.7000   18.4200   21.3720 N.3    77  PHE77      -0.1227
      2  CA        17.8390   19.1710   20.8490 C.3    77  PHE77       0.1736
      3  C         19.0830   18.2900   20.7890 C.2    77  PHE77       0.2595
      4  O         19.7530   18.2110   19.7530 O.2    77  PHE77      -0.2718
      5  CB        18.1190   20.4040   21.7120 C.3    77  PHE77       0.0547
      6  CG        19.3910   21.1140   21.3580 C.ar   77  PHE77      -0.0202
      7  CD1       19.5010   21.8180   20.1650 C.ar   77  PHE77      -0.0042
      8  CD2       20.4740   21.0950   22.2250 C.ar   77  PHE77      -0.0042
      9  CE1       20.6760   22.4790   19.8400 C.ar   77  PHE77      -0.0003
     10  CE2       21.6520   21.7510   21.9040 C.ar   77  PHE77      -0.0003
     11  CZ        21.7530   22.4430   20.7110 C.ar   77  PHE77      -0.0000
     12  N         19.3860   17.6480   21.9170 N.am   78  ASN78      -0.1960
     13  CA        20.5530   16.7830   22.0530 C.3    78  ASN78       0.1819
     14  C         20.3020   15.3880   21.4910 C.2    78  ASN78       0.2622
     15  O         19.2530   14.7970   21.7200 O.2    78  ASN78      -0.2715
     16  CB        20.9540   16.6760   23.5230 C.3    78  ASN78       0.1195
     17  CG        21.2810   18.0310   24.1370 C.2    78  ASN78       0.2630
     18  OD1       22.4010   18.5290   24.0090 O.2    78  ASN78      -0.2716
     19  ND2       20.3020   18.6330   24.7990 N.am   78  ASN78      -0.0877
     20  N         21.2730   14.8690   20.7530 N.am   79  SER79      -0.1936
     21  CA        21.1580   13.5340   20.1870 C.3    79  SER79       0.2055
     22  C         21.1030   12.4920   21.2960 C.2    79  SER79       0.2643
     23  O         20.4050   11.4900   21.1750 O.2    79  SER79      -0.2714
     24  CB        22.3380   13.2490   19.2570 C.3    79  SER79       0.2130
     25  OG        22.2260   13.9780   18.0440 O.3    79  SER79      -0.2179
     26  N         21.8370   12.7400   22.3800 N.am   80  GLY80      -0.1954
     27  CA        21.8630   11.8290   23.5160 C.3    80  GLY80       0.1869
     28  C         20.5460   11.7710   24.2750 C.2    80  GLY80       0.2309
     29  O         20.3030   10.8400   25.0520 O.2    80  GLY80      -0.2863
     30  N         17.0600   19.5920   15.4330 N.3   100  ALA100     -0.1231
     31  CA        18.4540   19.9000   15.7470 C.3   100  ALA100      0.1694
     32  C         19.3740   18.7170   16.0390 C.2   100  ALA100      0.2592
     33  O         20.5880   18.8660   15.9770 O.2   100  ALA100     -0.2718
     34  CB        18.5230   20.9010   16.9100 C.3   100  ALA100      0.0304
     35  N         18.8260   17.5520   16.3680 N.am  101  ALA101     -0.1966
     36  CA        19.6980   16.4210   16.7020 C.3   101  ALA101      0.1728
     37  C         20.3170   15.8420   15.4280 C.2   101  ALA101      0.2616
     38  O         19.6010   15.4390   14.5150 O.2   101  ALA101     -0.2715
     39  CB        18.9380   15.3580   17.4740 C.3   101  ALA101      0.0334
     40  N         21.6490   15.7950   15.3770 N.am  102  THR102     -0.1951
     41  CA        22.3550   15.4770   14.1340 C.3   102  THR102      0.1897
     42  C         23.1490   14.1640   14.1290 C.2   102  THR102      0.2313
     43  O         23.7340   13.8010   13.1110 O.2   102  THR102     -0.2863
     44  CB        23.3070   16.6300   13.7370 C.3   102  THR102      0.1794
     45  OG1       24.1760   16.9310   14.8330 O.3   102  THR102     -0.2208
     46  CG2       22.5080   17.8850   13.3830 C.3   102  THR102      0.0378
     47  N         27.3700   12.5370   20.3630 N.3   150  TYR150     -0.1241
     48  CA        27.2720   13.6680   19.4390 C.3   150  TYR150      0.1605
     49  C         28.6390   14.2790   19.1750 C.2   150  TYR150      0.2264
     50  O         29.1050   14.3190   18.0390 O.2   150  TYR150     -0.2867
     51  CB        26.3440   14.7710   19.9540 C.3   150  TYR150      0.0534
     52  CG        26.5610   16.0770   19.2090 C.ar  150  TYR150     -0.0201
     53  CD1       26.2420   16.1890   17.8620 C.ar  150  TYR150     -0.0009
     54  CD2       27.1180   17.1860   19.8450 C.ar  150  TYR150     -0.0009
     55  CE1       26.4520   17.3710   17.1650 C.ar  150  TYR150      0.0417
     56  CE2       27.3320   18.3720   19.1570 C.ar  150  TYR150      0.0417
     57  CZ        26.9990   18.4610   17.8200 C.ar  150  TYR150      0.1957
     58  OH        27.2040   19.6400   17.1350 O.3   150  TYR150     -0.2866
     59  N         29.2260   21.3760   22.1470 N.3   202  LEU202     -0.1245
     60  CA        28.2490   22.4620   22.1930 C.3   202  LEU202      0.1561
     61  C         28.8650   23.8120   22.5840 C.2   202  LEU202      0.2260
     62  O         30.0770   23.9220   22.7670 O.2   202  LEU202     -0.2867
     63  CB        27.1040   22.0810   23.1350 C.3   202  LEU202      0.0270
     64  CG        26.4190   20.7570   22.7650 C.3   202  LEU202      0.0019
     65  CD1       25.4870   20.2860   23.8790 C.3   202  LEU202      0.0001
     66  CD2       25.6680   20.8830   21.4380 C.3   202  LEU202      0.0001
     67  N         27.2660   22.7000   14.1950 N.3   226  ASP226     -0.1225
     68  CA        26.0390   23.4500   14.4080 C.3   226  ASP226      0.1805
     69  C         25.6020   23.5190   15.8610 C.2   226  ASP226      0.2598
     70  O         24.5500   24.0710   16.1660 O.2   226  ASP226     -0.2718
     71  CB        24.9080   22.9330   13.5090 C.3   226  ASP226      0.1424
     72  CG        24.7130   21.4350   13.6040 C.2   226  ASP226      0.3668
     73  OD1       25.2690   20.7950   14.5320 O.co2 226  ASP226     -0.2456
     74  OD2       23.9850   20.8950   12.7350 O.co2 226  ASP226     -0.2456
     75  N         26.4210   22.9750   16.7570 N.am  227  GLY227     -0.1957
     76  CA        26.1160   23.0100   18.1700 C.3   227  GLY227      0.1869
     77  C         26.4490   24.3310   18.8420 C.2   227  GLY227      0.2309
     78  O         26.1210   24.5240   20.0110 O.2   227  GLY227     -0.2863
     79  N         17.9760   27.4820   15.1700 N.3   275  TYR275     -0.1241
     80  CA        17.0020   26.3940   15.0550 C.3   275  TYR275      0.1605
     81  C         15.5350   26.8160   15.1640 C.2   275  TYR275      0.2264
     82  O         14.6390   25.9840   15.0030 O.2   275  TYR275     -0.2867
     83  CB        17.3200   25.2900   16.0630 C.3   275  TYR275      0.0534
     84  CG        18.6060   24.5870   15.7310 C.ar  275  TYR275     -0.0201
     85  CD1       18.6660   23.6860   14.6750 C.ar  275  TYR275     -0.0009
     86  CD2       19.7690   24.8350   16.4600 C.ar  275  TYR275     -0.0009
     87  CE1       19.8390   23.0470   14.3550 C.ar  275  TYR275      0.0417
     88  CE2       20.9500   24.1960   16.1470 C.ar  275  TYR275      0.0417
     89  CZ        20.9760   23.3040   15.0960 C.ar  275  TYR275      0.1957
     90  OH        22.1450   22.6630   14.7750 O.3   275  TYR275     -0.2866
@<TRIPOS>BOND
     1    74    72   ar
     2    43    42    2
     3    46    44    1
     4    71    72    1
     5    71    68    1
     6    72    73   ar
     7    44    41    1
     8    44    45    1
     9    42    41    1
    10    41    40    1
    11    67    68    1
    12    87    85   ar
    13    87    89   ar
    14    68    69    1
    15    38    37    2
    16    85    84   ar
    17    90    89    1
    18    82    81    2
    19    80    81    1
    20    80    79    1
    21    80    83    1
    22    89    88   ar
    23    40    37   am
    24    37    36    1
    25    30    31    1
    26    84    83    1
    27    84    86   ar
    28    31    32    1
    29    31    34    1
    30    69    70    2
    31    69    75   am
    32    33    32    2
    33    32    35   am
    34    88    86   ar
    35    35    36    1
    36    36    39    1
    37    75    76    1
    38    58    57    1
    39    55    57   ar
    40    55    53   ar
    41    57    56   ar
    42    53    52   ar
    43    50    49    2
    44    25    24    1
    45    76    77    1
    46    77    78    2
    47    56    54   ar
    48    49    48    1
    49    52    54   ar
    50    52    51    1
    51    24    21    1
    52    48    51    1
    53    48    47    1
    54     4     3    2
    55     9     7   ar
    56     9    11   ar
    57     7     6   ar
    58    21    20    1
    59    21    22    1
    60    11    10   ar
    61    20    14   am
    62     3     2    1
    63     3    12   am
    64     2     1    1
    65     2     5    1
    66    23    22    2
    67    22    26   am
    68     6     5    1
    69     6     8   ar
    70    66    64    1
    71    14    15    2
    72    14    13    1
    73    10     8   ar
    74    12    13    1
    75    13    16    1
    76    59    60    1
    77    60    61    1
    78    60    63    1
    79    26    27    1
    80    61    62    2
    81    64    63    1
    82    64    65    1
    83    27    28    1
    84    16    17    1
    85    18    17    2
    86    17    19   am
    87    28    29    2
