@<TRIPOS>MOLECULE
tmp/3ipbA00.pdb
 87 82 0 0 0
SMALL
GASTEIGER

@<TRIPOS>ATOM
      1  N         22.6710   34.7500   33.9810 N.3     6  LYS6       -0.1245
      2  CA        23.6010   35.9400   33.8610 C.3     6  LYS6        0.1561
      3  C         24.2970   36.0800   35.2000 C.2     6  LYS6        0.2260
      4  O         23.6040   36.0980   36.2610 O.2     6  LYS6       -0.2867
      5  CB        22.8690   37.2000   33.4020 C.3     6  LYS6        0.0271
      6  CG        23.7840   38.4440   33.3920 C.3     6  LYS6        0.0035
      7  CD        23.5660   39.4280   32.2340 C.3     6  LYS6        0.0206
      8  CE        24.8260   40.3000   32.1520 C.3     6  LYS6        0.1093
      9  NZ        25.0680   40.9300   30.8170 N.3     6  LYS6       -0.1314
     10  N         27.4070   38.1730   37.4520 N.3     8  LEU8       -0.1245
     11  CA        28.1880   39.3750   37.6400 C.3     8  LEU8        0.1561
     12  C         29.0470   39.1540   38.8920 C.2     8  LEU8        0.2260
     13  O         28.7110   38.4960   39.9010 O.2     8  LEU8       -0.2867
     14  CB        27.3120   40.6020   37.7280 C.3     8  LEU8        0.0270
     15  CG        26.3070   40.8420   36.5710 C.3     8  LEU8        0.0019
     16  CD1       25.5010   41.9980   36.9510 C.3     8  LEU8        0.0001
     17  CD2       27.1120   41.0300   35.3460 C.3     8  LEU8        0.0001
     18  N         15.0930   34.4450   33.0040 N.3    97  THR97      -0.1218
     19  CA        16.4710   34.8450   33.2160 C.3    97  THR97       0.1862
     20  C         16.7840   34.8110   34.6570 C.2    97  THR97       0.2287
     21  O         16.1200   35.4970   35.4920 O.2    97  THR97      -0.2866
     22  CB        16.7900   36.2660   32.6050 C.3    97  THR97       0.1770
     23  OG1       16.5910   36.2200   31.2170 O.3    97  THR97      -0.2211
     24  CG2       18.2780   36.6190   32.9060 C.3    97  THR97       0.0375
     25  N         19.6140   35.7700   37.2430 N.3    99  ALA99      -0.1231
     26  CA        20.7470   36.6620   37.3550 C.3    99  ALA99       0.1694
     27  C         21.3010   36.3480   38.7100 C.2    99  ALA99       0.2592
     28  O         20.5310   36.0910   39.6530 O.2    99  ALA99      -0.2718
     29  CB        20.3040   38.1270   37.2600 C.3    99  ALA99       0.0304
     30  N         22.6320   36.3790   38.8440 N.am  100  ALA100     -0.1966
     31  CA        23.2300   36.2720   40.1200 C.3   100  ALA100      0.1728
     32  C         24.3620   37.3160   40.1930 C.2   100  ALA100      0.2616
     33  O         25.0720   37.5010   39.1710 O.2   100  ALA100     -0.2715
     34  CB        23.8370   34.8650   40.2970 C.3   100  ALA100      0.0334
     35  N         24.5590   37.8350   41.3830 N.am  101  LEU101     -0.1977
     36  CA        25.5670   38.8430   41.7310 C.3   101  LEU101      0.1596
     37  C         26.3900   38.2400   42.8400 C.2   101  LEU101      0.2287
     38  O         25.8940   37.9940   43.9350 O.2   101  LEU101     -0.2864
     39  CB        24.8650   40.1170   42.2250 C.3   101  LEU101      0.0297
     40  CG        25.9050   41.2460   42.6300 C.3   101  LEU101      0.0022
     41  CD1       26.6700   41.7110   41.4370 C.3   101  LEU101      0.0001
     42  CD2       25.2450   42.4580   43.3370 C.3   101  LEU101      0.0001
     43  N         28.8180   36.6000   50.0300 N.3   106  SER106     -0.1202
     44  CA        27.4940   37.0310   49.7530 C.3   106  SER106      0.2020
     45  C         27.1260   36.7910   48.3290 C.2   106  SER106      0.2619
     46  O         27.9430   36.8910   47.3930 O.2   106  SER106     -0.2717
     47  CB        27.2890   38.5280   50.0750 C.3   106  SER106      0.2103
     48  OG        26.0000   38.9650   49.9970 O.3   106  SER106     -0.2182
     49  N         25.8700   36.3980   48.0800 N.am  107  TYR107     -0.1961
     50  CA        25.3770   36.5510   46.7370 C.3   107  TYR107      0.1771
     51  C         23.8990   36.9360   46.7340 C.2   107  TYR107      0.2620
     52  O         23.1780   36.7930   47.7420 O.2   107  TYR107     -0.2715
     53  CB        25.5870   35.3120   45.8610 C.3   107  TYR107      0.0574
     54  CG        24.7960   34.1190   46.2730 C.ar  107  TYR107     -0.0198
     55  CD1       23.4830   33.9170   45.8940 C.ar  107  TYR107     -0.0009
     56  CD2       25.2870   33.2780   47.2780 C.ar  107  TYR107     -0.0009
     57  CE1       22.7760   32.7310   46.3310 C.ar  107  TYR107      0.0417
     58  CE2       24.5850   32.1780   47.7100 C.ar  107  TYR107      0.0417
     59  CZ        23.3760   31.8970   47.2520 C.ar  107  TYR107      0.1957
     60  OH        22.7890   30.7640   47.7870 O.3   107  TYR107     -0.2866
     61  N         23.4860   37.4600   45.5860 N.am  108  SER108     -0.1936
     62  CA        22.1200   37.8260   45.3290 C.3   108  SER108      0.2055
     63  C         21.6770   37.1410   44.0730 C.2   108  SER108      0.2644
     64  O         22.4710   36.9210   43.1150 O.2   108  SER108     -0.2714
     65  CB        21.9820   39.3460   45.2350 C.3   108  SER108      0.2130
     66  OG        20.6740   39.6750   44.8740 O.3   108  SER108     -0.2179
     67  N         20.4110   36.7210   44.0510 N.am  109  THR109     -0.1936
     68  CA        19.8580   36.1610   42.8630 C.3   109  THR109      0.2028
     69  C         18.4500   36.6810   42.5660 C.2   109  THR109      0.2642
     70  O         17.6980   36.9340   43.4890 O.2   109  THR109     -0.2714
     71  CB        19.8180   34.6300   42.8890 C.3   109  THR109      0.1808
     72  OG1       19.4350   34.2440   41.6280 O.3   109  THR109     -0.2208
     73  CG2       18.9150   34.0050   43.8530 C.3   109  THR109      0.0379
     74  N         18.1970   37.0130   41.3230 N.am  110  THR110     -0.1950
     75  CA        16.9040   37.4650   40.8850 C.3   110  THR110      0.1897
     76  C         16.4370   36.7300   39.6680 C.2   110  THR110      0.2313
     77  O         17.2120   36.3420   38.8450 O.2   110  THR110     -0.2863
     78  CB        16.9700   38.9740   40.5880 C.3   110  THR110      0.1794
     79  OG1       17.7510   39.5680   41.6130 O.3   110  THR110     -0.2208
     80  CG2       15.5880   39.5540   40.6270 C.3   110  THR110      0.0378
     81  N         14.0200   37.1450   36.2150 N.3   112  VAL112     -0.1245
     82  CA        13.2670   38.0300   35.3620 C.3   112  VAL112      0.1561
     83  C         12.4850   37.0850   34.4470 C.2   112  VAL112      0.2260
     84  O         13.0570   36.2470   33.7470 O.2   112  VAL112     -0.2867
     85  CB        14.1520   39.0110   34.5140 C.3   112  VAL112      0.0252
     86  CG1       13.2430   39.8860   33.6250 C.3   112  VAL112      0.0019
     87  CG2       15.1610   39.8060   35.4380 C.3   112  VAL112      0.0019
@<TRIPOS>BOND
     1     9     8    1
     2    23    22    1
     3     8     7    1
     4     7     6    1
     5    22    24    1
     6    22    19    1
     7    18    19    1
     8    19    20    1
     9     6     5    1
    10     5     2    1
    11    86    85    1
    12    84    83    2
    13     2     1    1
    14     2     3    1
    15    83    82    1
    16    85    82    1
    17    85    87    1
    18    20    21    2
    19     3     4    2
    20    17    15    1
    21    82    81    1
    22    15    16    1
    23    15    14    1
    24    25    26    1
    25    29    26    1
    26    26    27    1
    27    10    11    1
    28    11    14    1
    29    11    12    1
    30    27    30   am
    31    27    28    2
    32    30    31    1
    33    77    76    2
    34    12    13    2
    35    33    32    2
    36    76    75    1
    37    31    32    1
    38    31    34    1
    39    32    35   am
    40    78    80    1
    41    78    75    1
    42    78    79    1
    43    75    74    1
    44    74    69   am
    45    35    36    1
    46    41    40    1
    47    72    71    1
    48    36    39    1
    49    36    37    1
    50    39    40    1
    51    69    68    1
    52    69    70    2
    53    40    42    1
    54    37    38    2
    55    68    71    1
    56    68    67    1
    57    71    73    1
    58    64    63    2
    59    67    63   am
    60    63    62    1
    61    66    65    1
    62    65    62    1
    63    62    61    1
    64    61    51   am
    65    53    54    1
    66    53    50    1
    67    55    54   ar
    68    55    57   ar
    69    54    56   ar
    70    57    59   ar
    71    51    50    1
    72    51    52    2
    73    50    49    1
    74    59    58   ar
    75    59    60    1
    76    56    58   ar
    77    46    45    2
    78    49    45   am
    79    45    44    1
    80    44    43    1
    81    44    47    1
    82    48    47    1
