@<TRIPOS>MOLECULE
tmp/3ipcA00.pdb
 99 94 0 0 0
SMALL
GASTEIGER

@<TRIPOS>ATOM
      1  N        -21.8610   23.0750  -27.8370 N.3    15  ASN15      -0.1240
      2  CA       -21.4260   23.2970  -26.4630 C.3    15  ASN15       0.1653
      3  C        -20.0520   23.9170  -26.3520 C.2    15  ASN15       0.2266
      4  O        -19.3890   23.8090  -25.3190 O.2    15  ASN15      -0.2867
      5  CB       -21.5190   21.9930  -25.6910 C.3    15  ASN15       0.1155
      6  CG       -22.9230   21.4650  -25.6990 C.2    15  ASN15       0.2627
      7  OD1      -23.8530   22.1770  -25.3040 O.2    15  ASN15      -0.2716
      8  ND2      -23.1070   20.2540  -26.2090 N.am   15  ASN15      -0.0877
      9  N        -18.9730   25.6940  -23.1840 N.3    18  PHE18      -0.1241
     10  CA       -18.5210   24.8300  -22.0970 C.3    18  PHE18       0.1605
     11  C        -17.1180   24.3150  -22.3850 C.2    18  PHE18       0.2264
     12  O        -16.3130   24.1580  -21.4660 O.2    18  PHE18      -0.2867
     13  CB       -19.5040   23.6850  -21.8630 C.3    18  PHE18       0.0534
     14  CG       -20.7890   24.1260  -21.2450 C.ar   18  PHE18      -0.0203
     15  CD1      -20.8850   24.2860  -19.8770 C.ar   18  PHE18      -0.0042
     16  CD2      -21.8840   24.4370  -22.0310 C.ar   18  PHE18      -0.0042
     17  CE1      -22.0630   24.7040  -19.2900 C.ar   18  PHE18      -0.0003
     18  CE2      -23.0680   24.8670  -21.4500 C.ar   18  PHE18      -0.0003
     19  CZ       -23.1540   24.9930  -20.0720 C.ar   18  PHE18      -0.0000
     20  N        -16.6060   16.8740  -21.2850 N.3    77  ALA77      -0.1231
     21  CA       -17.7170   17.6100  -20.6780 C.3    77  ALA77       0.1694
     22  C        -18.9670   16.7350  -20.6220 C.2    77  ALA77       0.2592
     23  O        -19.5850   16.5750  -19.5650 O.2    77  ALA77      -0.2718
     24  CB       -18.0000   18.8950  -21.4570 C.3    77  ALA77       0.0304
     25  N        -19.3410   16.1810  -21.7690 N.am   78  ASN78      -0.1960
     26  CA       -20.5640   15.4090  -21.9050 C.3    78  ASN78       0.1819
     27  C        -20.3570   13.9870  -21.4200 C.2    78  ASN78       0.2622
     28  O        -19.3260   13.3770  -21.6970 O.2    78  ASN78      -0.2715
     29  CB       -20.9910   15.4090  -23.3730 C.3    78  ASN78       0.1195
     30  CG       -21.1350   16.8120  -23.9320 C.2    78  ASN78       0.2630
     31  OD1      -20.2440   17.3220  -24.6180 O.2    78  ASN78      -0.2716
     32  ND2      -22.2600   17.4530  -23.6330 N.am   78  ASN78      -0.0877
     33  N        -21.3490   13.4640  -20.6990 N.am   79  SER79      -0.1950
     34  CA       -21.2540   12.1000  -20.1830 C.3    79  SER79       0.1924
     35  C        -21.1820   11.0700  -21.2960 C.2    79  SER79       0.2314
     36  O        -20.4310   10.0990  -21.1950 O.2    79  SER79      -0.2863
     37  CB       -22.4170   11.7860  -19.2550 C.3    79  SER79       0.2116
     38  OG       -22.2480   12.4630  -18.0190 O.3    79  SER79      -0.2180
     39  N        -17.0010   18.0900  -15.4130 N.3   100  ALA100     -0.1231
     40  CA       -18.3710   18.4210  -15.7830 C.3   100  ALA100      0.1694
     41  C        -19.3000   17.2560  -16.1330 C.2   100  ALA100      0.2592
     42  O        -20.5090   17.4710  -16.2370 O.2   100  ALA100     -0.2718
     43  CB       -18.3640   19.4410  -16.9330 C.3   100  ALA100      0.0304
     44  N        -18.7760   16.0450  -16.3290 N.am  101  ALA101     -0.1966
     45  CA       -19.6570   14.9190  -16.6420 C.3   101  ALA101      0.1728
     46  C        -20.2650   14.3660  -15.3650 C.2   101  ALA101      0.2616
     47  O        -19.5400   13.9710  -14.4490 O.2   101  ALA101     -0.2715
     48  CB       -18.9090   13.8270  -17.4070 C.3   101  ALA101      0.0334
     49  N        -21.5940   14.3190  -15.3310 N.am  102  THR102     -0.1951
     50  CA       -22.3380   14.0820  -14.0890 C.3   102  THR102      0.1897
     51  C        -23.1130   12.7570  -14.0490 C.2   102  THR102      0.2313
     52  O        -23.6520   12.3930  -13.0070 O.2   102  THR102     -0.2863
     53  CB       -23.3390   15.2170  -13.8260 C.3   102  THR102      0.1794
     54  OG1      -24.1120   15.4100  -15.0100 O.3   102  THR102     -0.2208
     55  CG2      -22.6310   16.5310  -13.4990 C.3   102  THR102      0.0378
     56  N        -27.1790   11.3380  -20.1800 N.3   150  TYR150     -0.1241
     57  CA       -27.1240   12.4970  -19.2760 C.3   150  TYR150      0.1605
     58  C        -28.5170   13.0840  -19.0330 C.2   150  TYR150      0.2264
     59  O        -28.9860   13.1610  -17.8990 O.2   150  TYR150     -0.2867
     60  CB       -26.2340   13.6280  -19.7960 C.3   150  TYR150      0.0534
     61  CG       -26.5010   14.9280  -19.0500 C.ar  150  TYR150     -0.0201
     62  CD1      -26.1880   15.0520  -17.6990 C.ar  150  TYR150     -0.0009
     63  CD2      -27.1020   16.0120  -19.6860 C.ar  150  TYR150     -0.0009
     64  CE1      -26.4590   16.2140  -17.0050 C.ar  150  TYR150      0.0417
     65  CE2      -27.3590   17.1800  -19.0090 C.ar  150  TYR150      0.0417
     66  CZ       -27.0400   17.2790  -17.6660 C.ar  150  TYR150      0.1957
     67  OH       -27.2950   18.4440  -16.9730 O.3   150  TYR150     -0.2866
     68  N        -29.3360   20.1110  -22.2120 N.3   202  LEU202     -0.1245
     69  CA       -28.3120   21.1410  -22.3130 C.3   202  LEU202      0.1561
     70  C        -28.9050   22.4950  -22.6990 C.2   202  LEU202      0.2260
     71  O        -30.1210   22.6280  -22.8730 O.2   202  LEU202     -0.2867
     72  CB       -27.2420   20.6980  -23.3190 C.3   202  LEU202      0.0270
     73  CG       -26.5910   19.3460  -22.9860 C.3   202  LEU202      0.0019
     74  CD1      -25.6420   18.8880  -24.0930 C.3   202  LEU202      0.0001
     75  CD2      -25.8560   19.4140  -21.6440 C.3   202  LEU202      0.0001
     76  N        -27.3720   21.4390  -14.4120 N.3   226  ASP226     -0.1225
     77  CA       -26.0680   22.0270  -14.6700 C.3   226  ASP226      0.1805
     78  C        -25.8370   22.2850  -16.1570 C.2   226  ASP226      0.2598
     79  O        -24.9210   23.0190  -16.5280 O.2   226  ASP226     -0.2718
     80  CB       -24.9860   21.0940  -14.1410 C.3   226  ASP226      0.1424
     81  CG       -24.8950   19.8200  -14.9480 C.2   226  ASP226      0.3668
     82  OD1      -23.9320   19.6750  -15.7240 O.co2 226  ASP226     -0.2456
     83  OD2      -25.8170   18.9880  -14.8470 O.co2 226  ASP226     -0.2456
     84  N        -26.6580   21.6880  -17.0070 N.am  227  GLY227     -0.1957
     85  CA       -26.5080   21.8380  -18.4410 C.3   227  GLY227      0.1869
     86  C        -26.7620   23.2330  -18.9700 C.2   227  GLY227      0.2309
     87  O        -26.4130   23.5260  -20.1090 O.2   227  GLY227     -0.2863
     88  N        -18.1550   26.0160  -15.0670 N.3   275  TYR275     -0.1241
     89  CA       -17.2010   24.9270  -14.9450 C.3   275  TYR275      0.1605
     90  C        -15.7380   25.3600  -15.0770 C.2   275  TYR275      0.2264
     91  O        -14.8310   24.5390  -14.9120 O.2   275  TYR275     -0.2867
     92  CB       -17.5310   23.8220  -15.9520 C.3   275  TYR275      0.0534
     93  CG       -18.7060   22.9540  -15.5540 C.ar  275  TYR275     -0.0201
     94  CD1      -18.6100   22.1190  -14.4540 C.ar  275  TYR275     -0.0009
     95  CD2      -19.8970   22.9410  -16.2800 C.ar  275  TYR275     -0.0009
     96  CE1      -19.6510   21.2960  -14.0700 C.ar  275  TYR275      0.0417
     97  CE2      -20.9540   22.1070  -15.9000 C.ar  275  TYR275      0.0417
     98  CZ       -20.8120   21.2850  -14.7930 C.ar  275  TYR275      0.1957
     99  OH       -21.8190   20.4340  -14.3970 O.3   275  TYR275     -0.2866
@<TRIPOS>BOND
     1     1     2    1
     2     2     3    1
     3     2     5    1
     4     3     4    2
     5     8     6   am
     6     6     5    1
     7     6     7    2
     8    31    30    2
     9    74    73    1
    10    30    32   am
    11    30    29    1
    12    29    26    1
    13    72    73    1
    14    72    69    1
    15     9    10    1
    16    73    75    1
    17    71    70    2
    18    70    69    1
    19    11    10    1
    20    11    12    2
    21    69    68    1
    22    10    13    1
    23    16    18   ar
    24    16    14   ar
    25    26    25    1
    26    26    27    1
    27    13    14    1
    28    25    22   am
    29    28    27    2
    30    24    21    1
    31    18    19   ar
    32    27    33   am
    33    35    36    2
    34    35    34    1
    35    20    21    1
    36    14    15   ar
    37    33    34    1
    38    21    22    1
    39    22    23    2
    40    34    37    1
    41    56    57    1
    42    87    86    2
    43    19    17   ar
    44    15    17   ar
    45    60    57    1
    46    60    61    1
    47    63    61   ar
    48    63    65   ar
    49    57    58    1
    50    37    38    1
    51    61    62   ar
    52    58    59    2
    53    65    66   ar
    54    86    85    1
    55    85    84    1
    56    62    64   ar
    57    66    64   ar
    58    66    67    1
    59    48    45    1
    60    84    78   am
    61    43    40    1
    62    45    44    1
    63    45    46    1
    64    79    78    2
    65    44    41   am
    66    95    97   ar
    67    95    93   ar
    68    42    41    2
    69    78    77    1
    70    41    40    1
    71    92    93    1
    72    92    89    1
    73    97    98   ar
    74    40    39    1
    75    82    81   ar
    76    93    94   ar
    77    46    49   am
    78    46    47    2
    79    49    50    1
    80    90    89    1
    81    90    91    2
    82    88    89    1
    83    54    53    1
    84    81    83   ar
    85    81    80    1
    86    98    99    1
    87    98    96   ar
    88    77    76    1
    89    77    80    1
    90    94    96   ar
    91    50    51    1
    92    50    53    1
    93    51    52    2
    94    53    55    1
