@<TRIPOS>MOLECULE
tmp/3ipeA00.pdb
 87 82 0 0 0
SMALL
GASTEIGER

@<TRIPOS>ATOM
      1  N          1.2070   -7.6870    2.6600 N.3     6  LYS6       -0.1245
      2  CA         2.1600   -6.5880    2.6030 C.3     6  LYS6        0.1561
      3  C          2.8210   -6.4250    3.9690 C.2     6  LYS6        0.2260
      4  O          2.1390   -6.3740    4.9870 O.2     6  LYS6       -0.2867
      5  CB         1.4910   -5.2820    2.1900 C.3     6  LYS6        0.0271
      6  CG         2.4620   -4.1180    2.1010 C.3     6  LYS6        0.0035
      7  CD         2.0220   -3.0700    1.1080 C.3     6  LYS6        0.0206
      8  CE         3.1230   -2.0740    0.8210 C.3     6  LYS6        0.1093
      9  NZ         2.6180   -1.0490   -0.1340 N.3     6  LYS6       -0.1314
     10  N          5.8610   -4.3560    6.2690 N.3     8  LEU8       -0.1245
     11  CA         6.7000   -3.1780    6.3870 C.3     8  LEU8        0.1561
     12  C          7.5280   -3.2390    7.6640 C.2     8  LEU8        0.2260
     13  O          7.1270   -3.8090    8.6830 O.2     8  LEU8       -0.2867
     14  CB         5.8360   -1.9270    6.3970 C.3     8  LEU8        0.0270
     15  CG         4.9200   -1.7140    5.1960 C.3     8  LEU8        0.0019
     16  CD1        4.0130   -0.5500    5.4950 C.3     8  LEU8        0.0001
     17  CD2        5.7180   -1.4460    3.9490 C.3     8  LEU8        0.0001
     18  N         -6.3750   -7.8010    1.6730 N.3    97  THR97      -0.1218
     19  CA        -4.9840   -7.4630    1.9060 C.3    97  THR97       0.1862
     20  C         -4.6840   -7.5410    3.3850 C.2    97  THR97       0.2287
     21  O         -5.3170   -6.8710    4.1880 O.2    97  THR97      -0.2866
     22  CB        -4.6220   -6.0880    1.3570 C.3    97  THR97       0.1770
     23  OG1       -4.8500   -6.0880   -0.0570 O.3    97  THR97      -0.2211
     24  CG2       -3.1310   -5.7780    1.6370 C.3    97  THR97       0.0375
     25  N         -1.9520   -6.7070    5.9460 N.3    99  ALA99      -0.1231
     26  CA        -0.7650   -5.8800    6.1210 C.3    99  ALA99       0.1694
     27  C         -0.2020   -6.0760    7.5080 C.2    99  ALA99       0.2592
     28  O         -0.9600   -6.2560    8.4570 O.2    99  ALA99      -0.2718
     29  CB        -1.0940   -4.4330    5.8760 C.3    99  ALA99       0.0304
     30  N          1.1230   -6.0730    7.6110 N.am  100  ALA100     -0.1966
     31  CA         1.7890   -6.1460    8.9020 C.3   100  ALA100      0.1728
     32  C          2.9050   -5.1270    8.9680 C.2   100  ALA100      0.2616
     33  O          3.6140   -4.9140    7.9770 O.2   100  ALA100     -0.2715
     34  CB         2.3180   -7.5480    9.1640 C.3   100  ALA100      0.0334
     35  N          3.0400   -4.5080   10.1400 N.am  101  LEU101     -0.1977
     36  CA         4.0780   -3.5170   10.4200 C.3   101  LEU101      0.1596
     37  C          4.9120   -4.1010   11.5630 C.2   101  LEU101      0.2287
     38  O          4.3570   -4.4220   12.6210 O.2   101  LEU101     -0.2864
     39  CB         3.4400   -2.1920   10.8400 C.3   101  LEU101      0.0297
     40  CG         4.4390   -1.0760   11.1590 C.3   101  LEU101      0.0022
     41  CD1        5.3660   -0.6950    9.9770 C.3   101  LEU101      0.0001
     42  CD2        3.6920    0.1450   11.6880 C.3   101  LEU101      0.0001
     43  N          7.3450   -5.7640   18.7680 N.3   106  SER106     -0.1202
     44  CA         5.9470   -5.4150   18.5300 C.3   106  SER106      0.2020
     45  C          5.5940   -5.6590   17.0890 C.2   106  SER106      0.2619
     46  O          6.4260   -5.5690   16.2150 O.2   106  SER106     -0.2717
     47  CB         5.7070   -3.9360   18.8460 C.3   106  SER106      0.2103
     48  OG         4.3390   -3.5950   18.7610 O.3   106  SER106     -0.2182
     49  N          4.3330   -5.9480   16.8220 N.am  107  TYR107     -0.1961
     50  CA         3.8670   -5.8290   15.4590 C.3   107  TYR107      0.1771
     51  C          2.4150   -5.4910   15.4640 C.2   107  TYR107      0.2620
     52  O          1.6920   -5.7000   16.4460 O.2   107  TYR107     -0.2715
     53  CB         4.0640   -7.0970   14.6380 C.3   107  TYR107      0.0574
     54  CG         3.3220   -8.2830   15.1570 C.ar  107  TYR107     -0.0198
     55  CD1        2.0270   -8.5950   14.7170 C.ar  107  TYR107     -0.0009
     56  CD2        3.9090   -9.0960   16.1110 C.ar  107  TYR107     -0.0009
     57  CE1        1.3370   -9.7250   15.2400 C.ar  107  TYR107      0.0417
     58  CE2        3.2650  -10.1770   16.6070 C.ar  107  TYR107      0.0417
     59  CZ         1.9930  -10.4990   16.1880 C.ar  107  TYR107      0.1957
     60  OH         1.4220  -11.6100   16.7560 O.3   107  TYR107     -0.2866
     61  N          1.9800   -4.9730   14.3290 N.am  108  SER108     -0.1936
     62  CA         0.5820   -4.7600   14.1370 C.3   108  SER108      0.2055
     63  C          0.1700   -5.3830   12.8520 C.2   108  SER108      0.2644
     64  O          0.9720   -5.5610   11.9340 O.2   108  SER108     -0.2714
     65  CB         0.2630   -3.2890   14.1170 C.3   108  SER108      0.2130
     66  OG         0.7840   -2.7120   12.9730 O.3   108  SER108     -0.2179
     67  N         -1.1030   -5.7150   12.7790 N.am  109  THR109     -0.1936
     68  CA        -1.6330   -6.2400   11.5700 C.3   109  THR109      0.2028
     69  C         -2.9980   -5.6710   11.3400 C.2   109  THR109      0.2642
     70  O         -3.7680   -5.4650   12.2850 O.2   109  THR109     -0.2714
     71  CB        -1.6270   -7.7590   11.5580 C.3   109  THR109      0.1808
     72  OG1       -2.0070   -8.2000   10.2680 O.3   109  THR109     -0.2208
     73  CG2       -2.5240   -8.4030   12.6370 C.3   109  THR109      0.0379
     74  N         -3.2830   -5.3570   10.0850 N.am  110  THR110     -0.1950
     75  CA        -4.6040   -4.8900    9.6970 C.3   110  THR110      0.1897
     76  C         -5.0300   -5.6510    8.4490 C.2   110  THR110      0.2313
     77  O         -4.2130   -6.2720    7.7820 O.2   110  THR110     -0.2863
     78  CB        -4.6720   -3.3280    9.5180 C.3   110  THR110      0.1794
     79  OG1       -6.0480   -2.8940    9.4780 O.3   110  THR110     -0.2208
     80  CG2       -3.9320   -2.8570    8.2990 C.3   110  THR110      0.0378
     81  N         -7.4310   -5.0690    4.9290 N.3   112  VAL112     -0.1245
     82  CA        -8.2170   -4.2300    4.0600 C.3   112  VAL112      0.1561
     83  C         -8.9910   -5.1920    3.1860 C.2   112  VAL112      0.2260
     84  O         -8.4010   -5.9940    2.4670 O.2   112  VAL112     -0.2867
     85  CB        -7.3480   -3.2910    3.2150 C.3   112  VAL112      0.0252
     86  CG1       -8.2340   -2.4100    2.3220 C.3   112  VAL112      0.0019
     87  CG2       -6.4200   -2.4620    4.1360 C.3   112  VAL112      0.0019
@<TRIPOS>BOND
     1     9     8    1
     2    23    22    1
     3     8     7    1
     4     7     6    1
     5    22    24    1
     6    22    19    1
     7    18    19    1
     8    19    20    1
     9     6     5    1
    10     5     2    1
    11    86    85    1
    12    84    83    2
    13     2     1    1
    14     2     3    1
    15    83    82    1
    16    85    82    1
    17    85    87    1
    18    20    21    2
    19    17    15    1
    20     3     4    2
    21    82    81    1
    22    15    16    1
    23    15    14    1
    24    29    26    1
    25    25    26    1
    26    26    27    1
    27    10    11    1
    28    11    14    1
    29    11    12    1
    30    27    30   am
    31    27    28    2
    32    30    31    1
    33    12    13    2
    34    77    76    2
    35    33    32    2
    36    80    78    1
    37    76    75    1
    38    31    32    1
    39    31    34    1
    40    32    35   am
    41    79    78    1
    42    78    75    1
    43    75    74    1
    44    41    40    1
    45    74    69   am
    46    35    36    1
    47    72    71    1
    48    36    39    1
    49    36    37    1
    50    39    40    1
    51    40    42    1
    52    69    68    1
    53    69    70    2
    54    71    68    1
    55    71    73    1
    56    37    38    2
    57    68    67    1
    58    64    63    2
    59    67    63   am
    60    63    62    1
    61    66    65    1
    62    65    62    1
    63    62    61    1
    64    61    51   am
    65    53    54    1
    66    53    50    1
    67    55    54   ar
    68    55    57   ar
    69    54    56   ar
    70    57    59   ar
    71    50    51    1
    72    50    49    1
    73    51    52    2
    74    56    58   ar
    75    59    58   ar
    76    59    60    1
    77    46    45    2
    78    49    45   am
    79    45    44    1
    80    44    43    1
    81    44    47    1
    82    48    47    1
