@<TRIPOS>MOLECULE
tmp/3ipiA01.pdb
 107 102 0 0 0
SMALL
GASTEIGER

@<TRIPOS>ATOM
      1  N         56.2590   10.8980   38.6010 N.3    33  VAL33      -0.1231
      2  CA        57.5240   11.4490   38.1300 C.3    33  VAL33       0.1692
      3  C         57.3530   12.4440   36.9840 C.2    33  VAL33       0.2592
      4  O         58.1470   13.3750   36.8460 O.2    33  VAL33      -0.2718
      5  CB        58.5070   10.3290   37.7020 C.3    33  VAL33       0.0266
      6  CG1       58.6770    9.3410   38.8410 C.3    33  VAL33       0.0020
      7  CG2       58.0080    9.6200   36.4500 C.3    33  VAL33       0.0020
      8  N         56.3180   12.2550   36.1700 N.am   34  CYS34      -0.1970
      9  CA        56.0650   13.1550   35.0460 C.3    34  CYS34       0.1712
     10  C         55.3510   14.4200   35.5090 C.2    34  CYS34       0.2296
     11  O         55.4780   15.4770   34.8960 O.2    34  CYS34      -0.2864
     12  CB        55.2250   12.4520   33.9750 C.3    34  CYS34       0.0983
     13  SG        56.0560   11.0540   33.1830 S.3    34  CYS34      -0.0798
     14  N         55.9510   16.5640   37.6630 N.3    36  SER36      -0.1217
     15  CA        56.9100   17.2840   38.4950 C.3    36  SER36       0.1889
     16  C         56.9450   18.7810   38.2100 C.2    36  SER36       0.2288
     17  O         57.6280   19.5360   38.9030 O.2    36  SER36      -0.2866
     18  CB        58.3090   16.6950   38.3070 C.3    36  SER36       0.2089
     19  OG        58.3660   15.3610   38.7840 O.3    36  SER36      -0.2183
     20  N         58.1580   20.0150   35.5900 N.3    38  GLY38      -0.1210
     21  CA        59.3250   20.2780   34.7700 C.3    38  GLY38       0.1956
     22  C         58.9490   20.8690   33.4240 C.2    38  GLY38       0.2612
     23  O         57.7800   20.8600   33.0340 O.2    38  GLY38      -0.2717
     24  N         59.9420   21.3750   32.7020 N.am   39  LYS39      -0.1965
     25  CA        59.6950   21.9870   31.4040 C.3    39  LYS39       0.1728
     26  C         60.0330   21.0830   30.2190 C.2    39  LYS39       0.2616
     27  O         60.0560   21.5400   29.0810 O.2    39  LYS39      -0.2715
     28  CB        60.4800   23.2970   31.3010 C.3    39  LYS39       0.0311
     29  CG        60.1090   24.3150   32.3720 C.3    39  LYS39       0.0038
     30  CD        58.6470   24.7180   32.2620 C.3    39  LYS39       0.0206
     31  CE        58.2330   25.6240   33.4140 C.3    39  LYS39       0.1093
     32  NZ        56.7950   26.0060   33.3270 N.3    39  LYS39      -0.1314
     33  N         60.2930   19.8050   30.4850 N.am   40  ARG40      -0.1963
     34  CA        60.6220   18.8550   29.4230 C.3    40  ARG40       0.1729
     35  C         61.7150   19.4200   28.5080 C.2    40  ARG40       0.2616
     36  O         61.6390   19.3140   27.2800 O.2    40  ARG40      -0.2715
     37  CB        59.3750   18.5590   28.5950 C.3    40  ARG40       0.0348
     38  CG        58.1280   18.2530   29.4110 C.3    40  ARG40       0.0492
     39  CD        58.2120   16.9170   30.1110 C.3    40  ARG40       0.2205
     40  NE        56.9040   16.4940   30.6150 N.pl3  40  ARG40      -0.0865
     41  CZ        56.4020   16.8180   31.8020 C.cat  40  ARG40       0.5346
     42  NH1       57.0950   17.5780   32.6400 N.pl3  40  ARG40       0.1354
     43  NH2       55.1990   16.3750   32.1510 N.pl3  40  ARG40       0.1354
     44  N         62.7400   20.0020   29.1120 N.am   41  ILE41      -0.1963
     45  CA        63.8270   20.6130   28.3570 C.3    41  ILE41       0.1727
     46  C         64.5450   19.7050   27.3600 C.2    41  ILE41       0.2616
     47  O         64.7030   20.0620   26.1900 O.2    41  ILE41      -0.2715
     48  CB        64.8840   21.2100   29.3140 C.3    41  ILE41       0.0290
     49  CG1       64.2370   22.2760   30.2040 C.3    41  ILE41       0.0022
     50  CG2       66.0300   21.8260   28.5150 C.3    41  ILE41       0.0023
     51  CD1       63.6770   23.4590   29.4320 C.3    41  ILE41       0.0001
     52  N         64.9850   18.5390   27.8170 N.am   42  ARG42      -0.1977
     53  CA        65.7220   17.6250   26.9480 C.3    42  ARG42       0.1597
     54  C         64.9480   17.1700   25.7090 C.2    42  ARG42       0.2287
     55  O         65.4530   17.2690   24.5900 O.2    42  ARG42      -0.2864
     56  CB        66.2250   16.4390   27.7730 C.3    42  ARG42       0.0334
     57  CG        67.1810   16.8790   28.9030 C.3    42  ARG42       0.0492
     58  CD        67.4950   15.7410   29.8710 C.3    42  ARG42       0.2205
     59  NE        68.3210   16.1620   31.0070 N.pl3  42  ARG42      -0.0865
     60  CZ        67.8770   16.8460   32.0630 C.cat  42  ARG42       0.5346
     61  NH1       66.6030   17.2030   32.1520 N.pl3  42  ARG42       0.1354
     62  NH2       68.7130   17.1670   33.0470 N.pl3  42  ARG42       0.1354
     63  N         63.5400   11.4160   27.5520 N.3    68  GLU68      -0.1245
     64  CA        62.8920   11.8640   28.7800 C.3    68  GLU68       0.1567
     65  C         62.7130   10.6820   29.7290 C.2    68  GLU68       0.2260
     66  O         62.8610   10.8200   30.9470 O.2    68  GLU68      -0.2867
     67  CB        61.5440   12.5210   28.4630 C.3    68  GLU68       0.0388
     68  CG        60.8160   13.1070   29.6730 C.3    68  GLU68       0.1160
     69  CD        61.4520   14.3790   30.2370 C.2    68  GLU68       0.3649
     70  OE1       62.5350   14.7960   29.7750 O.co2  68  GLU68      -0.2457
     71  OE2       60.8510   14.9730   31.1610 O.co2  68  GLU68      -0.2457
     72  N         65.8860   10.1140   31.4220 N.3    69  HIS69      -0.1226
     73  CA        66.1150   11.1270   32.4440 C.3    69  HIS69       0.1752
     74  C         65.3140   10.7970   33.6930 C.2    69  HIS69       0.2596
     75  O         65.8350   10.8540   34.8120 O.2    69  HIS69      -0.2718
     76  CB        65.7100   12.5170   31.9510 C.3    69  HIS69       0.0759
     77  CG        65.7600   13.5700   33.0180 C.ar   69  HIS69       0.0818
     78  ND1       66.9310   13.9180   33.6620 N.ar   69  HIS69      -0.2268
     79  CD2       64.7870   14.3250   33.5700 C.ar   69  HIS69       0.1154
     80  CE1       66.6700   14.8450   34.5660 C.ar   69  HIS69       0.1986
     81  NE2       65.3790   15.1120   34.5330 N.ar   69  HIS69      -0.2212
     82  N         64.0430   10.4600   33.5000 N.am   70  SER70      -0.1952
     83  CA        63.1880   10.1330   34.6330 C.3    70  SER70       0.1924
     84  C         63.7080    8.9160   35.3860 C.2    70  SER70       0.2314
     85  O         63.6820    8.8820   36.6140 O.2    70  SER70      -0.2863
     86  CB        61.7540    9.8830   34.1660 C.3    70  SER70       0.2116
     87  OG        61.1740   11.0900   33.7060 O.3    70  SER70      -0.2180
     88  N         66.5030   10.0050   37.6280 N.3    73  LEU73      -0.1245
     89  CA        66.0520   10.7810   38.7840 C.3    73  LEU73       0.1561
     90  C         65.5150    9.8580   39.8640 C.2    73  LEU73       0.2260
     91  O         65.7730   10.0540   41.0550 O.2    73  LEU73      -0.2867
     92  CB        64.9430   11.7600   38.3880 C.3    73  LEU73       0.0270
     93  CG        65.3020   12.9610   37.5130 C.3    73  LEU73       0.0019
     94  CD1       64.0570   13.8170   37.3170 C.3    73  LEU73       0.0001
     95  CD2       66.4130   13.7690   38.1640 C.3    73  LEU73       0.0001
     96  N         74.2870   24.2190   32.7060 N.3   188  TYR188     -0.1241
     97  CA        73.0900   23.8610   33.4500 C.3   188  TYR188      0.1605
     98  C         73.4190   23.2340   34.8040 C.2   188  TYR188      0.2264
     99  O         72.8880   23.6530   35.8340 O.2   188  TYR188     -0.2867
    100  CB        72.2480   22.8780   32.6300 C.3   188  TYR188      0.0534
    101  CG        71.0720   22.3010   33.3830 C.ar  188  TYR188     -0.0201
    102  CD1       69.9540   23.0820   33.6830 C.ar  188  TYR188     -0.0009
    103  CD2       71.0830   20.9740   33.8090 C.ar  188  TYR188     -0.0009
    104  CE1       68.8720   22.5500   34.3890 C.ar  188  TYR188      0.0417
    105  CE2       70.0100   20.4310   34.5160 C.ar  188  TYR188      0.0417
    106  CZ        68.9100   21.2210   34.8000 C.ar  188  TYR188      0.1957
    107  OH        67.8470   20.6730   35.4820 O.3   188  TYR188     -0.2866
@<TRIPOS>BOND
     1    55    54    2
     2    54    53    1
     3    47    46    2
     4    53    56    1
     5    53    52    1
     6    36    35    2
     7    46    52   am
     8    46    45    1
     9    63    64    1
    10    56    57    1
    11    45    44    1
    12    45    48    1
    13    67    64    1
    14    67    68    1
    15    35    44   am
    16    35    34    1
    17    50    48    1
    18    37    38    1
    19    37    34    1
    20    64    65    1
    21    57    58    1
    22    27    26    2
    23    48    49    1
    24    38    39    1
    25    34    33    1
    26    51    49    1
    27    68    69    1
    28    65    66    2
    29    70    69   ar
    30    58    59    1
    31    39    40    1
    32    26    33   am
    33    26    25    1
    34    69    71   ar
    35    40    41    2
    36    59    60    2
    37    28    25    1
    38    28    29    1
    39    25    24    1
    40    72    73    1
    41    41    43    1
    42    41    42    1
    43    76    73    1
    44    76    77    1
    45    60    61    1
    46    60    62    1
    47    30    29    1
    48    30    31    1
    49    73    74    1
    50   100   101    1
    51   100    97    1
    52    24    22   am
    53    96    97    1
    54    77    79   ar
    55    77    78   ar
    56    23    22    2
    57    13    12    1
    58    32    31    1
    59   101   102   ar
    60   101   103   ar
    61    22    21    1
    62    97    98    1
    63    82    74   am
    64    82    83    1
    65    79    81   ar
    66    78    80   ar
    67   102   104   ar
    68    74    75    2
    69    87    86    1
    70   103   105   ar
    71    12     9    1
    72    86    83    1
    73   104   106   ar
    74   105   106   ar
    75    81    80   ar
    76    83    84    1
    77    21    20    1
    78   106   107    1
    79    98    99    2
    80    11    10    2
    81     9    10    1
    82     9     8    1
    83    84    85    2
    84     8     3   am
    85     7     5    1
    86     4     3    2
    87     3     2    1
    88    94    93    1
    89    93    95    1
    90    93    92    1
    91    88    89    1
    92    14    15    1
    93     5     2    1
    94     5     6    1
    95     2     1    1
    96    16    15    1
    97    16    17    2
    98    18    15    1
    99    18    19    1
   100    92    89    1
   101    89    90    1
   102    90    91    2
