@<TRIPOS>MOLECULE
tmp/3ipiA00.pdb
 82 73 0 0 0
SMALL
GASTEIGER

@<TRIPOS>ATOM
      1  N         53.8380   11.9020   26.1460 N.3    15  ILE15      -0.1245
      2  CA        53.9830   11.4130   27.5150 C.3    15  ILE15       0.1561
      3  C         52.6530   10.8490   28.0120 C.2    15  ILE15       0.2260
      4  O         52.6000    9.7620   28.5890 O.2    15  ILE15      -0.2867
      5  CB        54.4660   12.5450   28.4560 C.3    15  ILE15       0.0252
      6  CG1       55.9260   12.8890   28.1300 C.3    15  ILE15       0.0019
      7  CG2       54.3560   12.1150   29.9260 C.3    15  ILE15       0.0019
      8  CD1       56.4800   14.0560   28.9200 C.3    15  ILE15       0.0001
      9  N         51.8450    7.6670   26.2970 N.3    18  SER18      -0.1202
     10  CA        52.7670    6.6720   26.8410 C.3    18  SER18       0.2020
     11  C         52.2330    6.0940   28.1510 C.2    18  SER18       0.2618
     12  O         52.3080    4.8860   28.3940 O.2    18  SER18      -0.2717
     13  CB        54.1340    7.3260   27.0800 C.3    18  SER18       0.2103
     14  OG        54.9800    6.4890   27.8410 O.3    18  SER18      -0.2182
     15  N         51.6900    6.9700   28.9890 N.am   19  ILE19      -0.1979
     16  CA        51.1390    6.5670   30.2760 C.3    19  ILE19       0.1595
     17  C         49.9330    5.6490   30.1150 C.2    19  ILE19       0.2287
     18  O         49.7650    4.7210   30.9020 O.2    19  ILE19      -0.2864
     19  CB        50.7520    7.8080   31.1150 C.3    19  ILE19       0.0276
     20  CG1       52.0270    8.5340   31.5560 C.3    19  ILE19       0.0022
     21  CG2       49.9150    7.3980   32.3270 C.3    19  ILE19       0.0022
     22  CD1       51.7920    9.8450   32.2730 C.3    19  ILE19       0.0001
     23  N         54.8110    6.3580   37.4720 N.3    30  VAL30      -0.1245
     24  CA        55.2220    7.1080   36.2920 C.3    30  VAL30       0.1561
     25  C         54.4760    8.4350   36.2250 C.2    30  VAL30       0.2260
     26  O         55.0640    9.4700   35.9230 O.2    30  VAL30      -0.2867
     27  CB        54.9680    6.3070   34.9960 C.3    30  VAL30       0.0252
     28  CG1       55.3870    7.1300   33.7790 C.3    30  VAL30       0.0019
     29  CG2       55.7500    5.0000   35.0400 C.3    30  VAL30       0.0019
     30  N         56.2590   10.8980   38.6010 N.3    33  VAL33      -0.1231
     31  CA        57.5240   11.4490   38.1300 C.3    33  VAL33       0.1692
     32  C         57.3530   12.4440   36.9840 C.2    33  VAL33       0.2592
     33  O         58.1470   13.3750   36.8460 O.2    33  VAL33      -0.2718
     34  CB        58.5070   10.3290   37.7020 C.3    33  VAL33       0.0266
     35  CG1       58.6770    9.3410   38.8410 C.3    33  VAL33       0.0020
     36  CG2       58.0080    9.6200   36.4500 C.3    33  VAL33       0.0020
     37  N         56.3180   12.2550   36.1700 N.am   34  CYS34      -0.1970
     38  CA        56.0650   13.1550   35.0460 C.3    34  CYS34       0.1712
     39  C         55.3510   14.4200   35.5090 C.2    34  CYS34       0.2296
     40  O         55.4780   15.4770   34.8960 O.2    34  CYS34      -0.2864
     41  CB        55.2250   12.4520   33.9750 C.3    34  CYS34       0.0983
     42  SG        56.0560   11.0540   33.1830 S.3    34  CYS34      -0.0798
     43  N         60.8200   11.1390   23.5980 N.3    65  LEU65      -0.1245
     44  CA        60.2440   10.4520   24.7510 C.3    65  LEU65       0.1561
     45  C         61.2720    9.5070   25.3700 C.2    65  LEU65       0.2260
     46  O         61.3820    9.4090   26.5900 O.2    65  LEU65      -0.2867
     47  CB        58.9960    9.6650   24.3380 C.3    65  LEU65       0.0270
     48  CG        57.7900   10.5060   23.8940 C.3    65  LEU65       0.0019
     49  CD1       56.6520    9.5890   23.4550 C.3    65  LEU65       0.0001
     50  CD2       57.3470   11.4040   25.0370 C.3    65  LEU65       0.0001
     51  N         63.5400   11.4160   27.5520 N.3    68  GLU68      -0.1245
     52  CA        62.8920   11.8640   28.7800 C.3    68  GLU68       0.1567
     53  C         62.7130   10.6820   29.7290 C.2    68  GLU68       0.2260
     54  O         62.8610   10.8200   30.9470 O.2    68  GLU68      -0.2867
     55  CB        61.5440   12.5210   28.4630 C.3    68  GLU68       0.0388
     56  CG        60.8160   13.1070   29.6730 C.3    68  GLU68       0.1160
     57  CD        61.4520   14.3790   30.2370 C.2    68  GLU68       0.3649
     58  OE1       62.5350   14.7960   29.7750 O.co2  68  GLU68      -0.2457
     59  OE2       60.8510   14.9730   31.1610 O.co2  68  GLU68      -0.2457
     60  N         64.0430   10.4600   33.5000 N.3    70  SER70      -0.1217
     61  CA        63.1880   10.1330   34.6330 C.3    70  SER70       0.1889
     62  C         63.7080    8.9160   35.3860 C.2    70  SER70       0.2288
     63  O         63.6820    8.8820   36.6140 O.2    70  SER70      -0.2866
     64  CB        61.7540    9.8830   34.1660 C.3    70  SER70       0.2089
     65  OG        61.1740   11.0900   33.7060 O.3    70  SER70      -0.2183
     66  N         61.2690    2.0330   33.0450 N.3   107  LEU107     -0.1245
     67  CA        61.4270    3.1870   32.1690 C.3   107  LEU107      0.1561
     68  C         62.6300    3.0680   31.2330 C.2   107  LEU107      0.2260
     69  O         62.5540    3.4590   30.0670 O.2   107  LEU107     -0.2867
     70  CB        61.5100    4.4750   33.0020 C.3   107  LEU107      0.0270
     71  CG        60.1700    4.9190   33.6150 C.3   107  LEU107      0.0019
     72  CD1       60.3710    6.1560   34.4670 C.3   107  LEU107      0.0001
     73  CD2       59.1580    5.2020   32.4850 C.3   107  LEU107      0.0001
     74  N         61.6420    0.6700   28.5930 N.3   110  LYS110     -0.1245
     75  CA        60.6550    1.3040   27.7330 C.3   110  LYS110      0.1561
     76  C         61.3550    2.2490   26.7600 C.2   110  LYS110      0.2260
     77  O         60.9880    2.3190   25.5930 O.2   110  LYS110     -0.2867
     78  CB        59.6320    2.0590   28.5820 C.3   110  LYS110      0.0271
     79  CG        58.3910    2.4960   27.8030 C.3   110  LYS110      0.0035
     80  CD        57.2970    2.9580   28.7460 C.3   110  LYS110      0.0206
     81  CE        56.0130    3.3330   28.0020 C.3   110  LYS110      0.1093
     82  NZ        54.8950    3.6330   28.9590 N.3   110  LYS110     -0.1314
@<TRIPOS>BOND
     1    49    48    1
     2    43    44    1
     3    48    47    1
     4    48    50    1
     5    47    44    1
     6    44    45    1
     7    45    46    2
     8    77    76    2
     9     1     2    1
    10     9    10    1
    11    76    75    1
    12    10    13    1
    13    10    11    1
    14    13    14    1
    15     2     3    1
    16     2     5    1
    17    51    52    1
    18    75    78    1
    19    75    74    1
    20    79    78    1
    21    79    80    1
    22    81    80    1
    23    81    82    1
    24     3     4    2
    25     6     5    1
    26     6     8    1
    27    11    12    2
    28    11    15   am
    29     5     7    1
    30    55    52    1
    31    55    56    1
    32    52    53    1
    33    15    16    1
    34    56    57    1
    35    53    54    2
    36    58    57   ar
    37    69    68    2
    38    17    16    1
    39    17    18    2
    40    57    59   ar
    41    16    19    1
    42    19    20    1
    43    19    21    1
    44    68    67    1
    45    20    22    1
    46    67    70    1
    47    67    66    1
    48    73    71    1
    49    70    71    1
    50    42    41    1
    51    60    61    1
    52    71    72    1
    53    65    64    1
    54    28    27    1
    55    41    38    1
    56    64    61    1
    57    61    62    1
    58    40    39    2
    59    27    29    1
    60    27    24    1
    61    38    39    1
    62    38    37    1
    63    62    63    2
    64    26    25    2
    65    37    32   am
    66    25    24    1
    67    24    23    1
    68    36    34    1
    69    33    32    2
    70    32    31    1
    71    34    31    1
    72    34    35    1
    73    31    30    1
