@<TRIPOS>MOLECULE
tmp/3ipkA00.pdb
 104 97 0 0 0
SMALL
GASTEIGER

@<TRIPOS>ATOM
      1  N          9.8160   30.7810   21.6650 N.3   201  THR201     -0.1203
      2  CA         8.9470   31.7050   22.3750 C.3   201  THR201      0.1994
      3  C          9.3360   33.1620   22.1390 C.2   201  THR201      0.2618
      4  O          8.6560   34.0700   22.6110 O.2   201  THR201     -0.2717
      5  CB         8.9700   31.4190   23.8870 C.3   201  THR201      0.1784
      6  OG1       10.3260   31.2820   24.3260 O.3   201  THR201     -0.2211
      7  CG2        8.2110   30.1480   24.1950 C.3   201  THR201      0.0376
      8  N         10.4210   33.3820   21.4000 N.am  202  VAL202     -0.1965
      9  CA        10.8950   34.7360   21.1180 C.3   202  VAL202      0.1727
     10  C         10.0780   35.4010   20.0130 C.2   202  VAL202      0.2616
     11  O          9.7080   36.5710   20.1170 O.2   202  VAL202     -0.2715
     12  CB        12.3780   34.7370   20.6820 C.3   202  VAL202      0.0290
     13  CG1       12.8750   36.1730   20.5320 C.3   202  VAL202      0.0023
     14  CG2       13.2180   33.9790   21.6890 C.3   202  VAL202      0.0023
     15  N          9.8060   34.6510   18.9530 N.am  203  SER203     -0.1950
     16  CA         9.0330   35.1750   17.8360 C.3   203  SER203      0.1924
     17  C          8.2290   34.0630   17.1710 C.2   203  SER203      0.2314
     18  O          8.6220   32.9010   17.2010 O.2   203  SER203     -0.2863
     19  CB         9.9680   35.8240   16.8130 C.3   203  SER203      0.2116
     20  OG         9.2420   36.3340   15.7090 O.3   203  SER203     -0.2180
     21  N          9.0710   48.5930   25.9630 N.3   311  ALA311     -0.1231
     22  CA         7.8000   47.8800   25.9270 C.3   311  ALA311      0.1694
     23  C          7.7650   46.5280   26.6360 C.2   311  ALA311      0.2592
     24  O          8.7670   46.0580   27.1750 O.2   311  ALA311     -0.2718
     25  CB         7.3680   47.7050   24.4690 C.3   311  ALA311      0.0304
     26  N          6.5860   45.9130   26.6160 N.am  312  SER312     -0.1952
     27  CA         6.3650   44.6070   27.2290 C.3   312  SER312      0.1924
     28  C          6.8260   44.5640   28.6900 C.2   312  SER312      0.2314
     29  O          7.4880   43.6140   29.1210 O.2   312  SER312     -0.2863
     30  CB         7.0830   43.5260   26.4050 C.3   312  SER312      0.2116
     31  OG         6.6860   42.2200   26.7930 O.3   312  SER312     -0.2180
     32  N          5.8040   43.6070   31.6310 N.3   314  ASN314     -0.1240
     33  CA         4.8250   42.7900   32.3380 C.3   314  ASN314      0.1653
     34  C          4.8440   42.9230   33.8510 C.2   314  ASN314      0.2266
     35  O          5.9070   42.9810   34.4840 O.2   314  ASN314     -0.2867
     36  CB         5.0160   41.3010   32.0220 C.3   314  ASN314      0.1155
     37  CG         5.0130   41.0050   30.5380 C.2   314  ASN314      0.2627
     38  OD1        6.0620   40.9840   29.8980 O.2   314  ASN314     -0.2716
     39  ND2        3.8310   40.7720   29.9840 N.am  314  ASN314     -0.0877
     40  N         -3.0370   40.3840   28.8520 N.3   364  MET364     -0.1245
     41  CA        -1.8120   40.3570   28.0540 C.3   364  MET364      0.1570
     42  C         -1.8280   39.3320   26.9360 C.2   364  MET364      0.2261
     43  O         -1.1670   39.5170   25.9120 O.2   364  MET364     -0.2867
     44  CB        -0.5880   40.1220   28.9530 C.3   364  MET364      0.0387
     45  CG        -0.4880   38.7340   29.5750 C.3   364  MET364      0.0595
     46  SD         0.4250   37.5440   28.5540 S.3   364  MET364     -0.1393
     47  CE         2.1480   37.9630   28.9640 C.3   364  MET364      0.0692
     48  N          0.0950   42.2270   24.7170 N.3   375  ASP375     -0.1225
     49  CA         1.5360   41.9850   24.7410 C.3   375  ASP375      0.1805
     50  C          2.1140   41.2500   23.5290 C.2   375  ASP375      0.2598
     51  O          2.5450   40.0960   23.6220 O.2   375  ASP375     -0.2718
     52  CB         1.9100   41.2560   26.0400 C.3   375  ASP375      0.1424
     53  CG         3.4120   41.1900   26.2640 C.2   375  ASP375      0.3668
     54  OD1        4.1470   41.9970   25.6580 O.co2 375  ASP375     -0.2456
     55  OD2        3.8590   40.3370   27.0550 O.co2 375  ASP375     -0.2456
     56  N          2.1290   41.9440   22.3940 N.am  376  SER376     -0.1938
     57  CA         2.6680   41.4160   21.1420 C.3   376  SER376      0.2055
     58  C          3.0920   42.6260   20.3110 C.2   376  SER376      0.2643
     59  O          2.4790   43.6900   20.4040 O.2   376  SER376     -0.2714
     60  CB         1.6090   40.6100   20.3890 C.3   376  SER376      0.2130
     61  OG         0.5910   41.4590   19.8950 O.3   376  SER376     -0.2179
     62  N          4.1360   42.4710   19.5040 N.am  377  SER377     -0.1949
     63  CA         4.6360   43.5820   18.6980 C.3   377  SER377      0.1924
     64  C          3.6130   44.1930   17.7450 C.2   377  SER377      0.2314
     65  O          3.7530   45.3500   17.3440 O.2   377  SER377     -0.2863
     66  CB         5.8740   43.1480   17.9090 C.3   377  SER377      0.2116
     67  OG         5.5900   42.0410   17.0720 O.3   377  SER377     -0.2180
     68  N         -0.6480   47.5920   22.2490 N.3   382  SER382     -0.1217
     69  CA         0.5780   47.1170   22.8970 C.3   382  SER382      0.1889
     70  C          1.1590   48.2280   23.7680 C.2   382  SER382      0.2288
     71  O          1.9680   47.9750   24.6630 O.2   382  SER382     -0.2866
     72  CB         1.6220   46.6760   21.8570 C.3   382  SER382      0.2089
     73  OG         2.2680   47.7890   21.2710 O.3   382  SER382     -0.2183
     74  N         12.8960   38.1350   28.9810 N.3   431  TRP431     -0.1241
     75  CA        13.1880   38.4400   27.5900 C.3   431  TRP431      0.1605
     76  C         12.8220   39.9080   27.4360 C.2   431  TRP431      0.2264
     77  O         11.7650   40.3280   27.8950 O.2   431  TRP431     -0.2867
     78  CB        12.3250   37.6580   26.5990 C.3   431  TRP431      0.0550
     79  CG        12.5130   38.2210   25.2100 C.ar  431  TRP431      0.0003
     80  CD1       13.5370   37.9500   24.3490 C.ar  431  TRP431      0.0946
     81  CD2       11.7470   39.2730   24.5980 C.ar  431  TRP431      0.0152
     82  NE1       13.4640   38.7710   23.2450 N.ar  431  TRP431     -0.2442
     83  CE2       12.3760   39.5920   23.3730 C.ar  431  TRP431      0.0810
     84  CE3       10.5960   39.9840   24.9720 C.ar  431  TRP431      0.0012
     85  CZ2       11.8930   40.5940   22.5150 C.ar  431  TRP431      0.0191
     86  CZ3       10.1150   40.9840   24.1190 C.ar  431  TRP431      0.0001
     87  CH2       10.7660   41.2760   22.9050 C.ar  431  TRP431      0.0015
     88  N         13.8580   43.7980   24.9310 N.3   433  SER433     -0.1217
     89  CA        14.5890   44.4290   23.8490 C.3   433  SER433      0.1889
     90  C         14.3610   45.9270   23.9050 C.2   433  SER433      0.2288
     91  O         13.3100   46.3910   24.3410 O.2   433  SER433     -0.2866
     92  CB        14.1180   43.9060   22.4960 C.3   433  SER433      0.2089
     93  OG        12.7780   44.2840   22.2700 O.3   433  SER433     -0.2183
     94  N          5.3680   52.3190   20.6280 N.3   439  ARG439     -0.1245
     95  CA         4.0320   51.7260   20.5910 C.3   439  ARG439      0.1563
     96  C          2.8800   52.7260   20.6120 C.2   439  ARG439      0.2260
     97  O          1.7220   52.3420   20.4330 O.2   439  ARG439     -0.2867
     98  CB         3.8710   50.7220   21.7470 C.3   439  ARG439      0.0307
     99  CG         4.9990   49.6890   21.8440 C.3   439  ARG439      0.0489
    100  CD         5.2990   49.0370   20.4920 C.3   439  ARG439      0.2205
    101  NE         6.4320   48.1070   20.5570 N.pl3 439  ARG439     -0.0865
    102  CZ         6.3360   46.8070   20.8280 C.cat 439  ARG439      0.5346
    103  NH1        5.1530   46.2590   21.0660 N.pl3 439  ARG439      0.1354
    104  NH2        7.4260   46.0520   20.8520 N.pl3 439  ARG439      0.1354
@<TRIPOS>BOND
     1    20    19    1
     2    19    16    1
     3    67    66    1
     4    17    18    2
     5    17    16    1
     6    65    64    2
     7    64    63    1
     8    16    15    1
     9    66    63    1
    10    63    62    1
    11    15    10   am
    12    62    58   am
    13    61    60    1
    14    10    11    2
    15    10     9    1
    16    58    59    2
    17    58    57    1
    18    60    57    1
    19    97    96    2
    20   100   101    1
    21   100    99    1
    22    13    12    1
    23   101   102    2
    24    95    96    1
    25    95    94    1
    26    95    98    1
    27    12     9    1
    28    12    14    1
    29   102   104    1
    30   102   103    1
    31     9     8    1
    32    57    56    1
    33    73    72    1
    34     8     3   am
    35     1     2    1
    36    98    99    1
    37    72    69    1
    38     3     2    1
    39     3     4    2
    40    68    69    1
    41    93    92    1
    42     2     5    1
    43    56    50   am
    44    92    89    1
    45    85    87   ar
    46    85    83   ar
    47    69    70    1
    48    87    86   ar
    49    82    83   ar
    50    82    80   ar
    51    83    81   ar
    52    50    51    2
    53    50    49    1
    54    70    71    2
    55    89    90    1
    56    89    88    1
    57     5     7    1
    58     5     6    1
    59    90    91    2
    60    86    84   ar
    61    80    79   ar
    62    25    22    1
    63    81    84   ar
    64    81    79   ar
    65    48    49    1
    66    49    52    1
    67    79    78    1
    68    54    53   ar
    69    43    42    2
    70    22    21    1
    71    22    23    1
    72    52    53    1
    73    53    55   ar
    74    30    31    1
    75    30    27    1
    76    78    75    1
    77    26    23   am
    78    26    27    1
    79    23    24    2
    80    42    41    1
    81    27    28    1
    82    76    75    1
    83    76    77    2
    84    75    74    1
    85    41    40    1
    86    41    44    1
    87    46    47    1
    88    46    45    1
    89    28    29    2
    90    44    45    1
    91    38    37    2
    92    39    37   am
    93    37    36    1
    94    32    33    1
    95    36    33    1
    96    33    34    1
    97    34    35    2
