@<TRIPOS>MOLECULE
tmp/3ipoB00.pdb
 128 129 0 0 0
SMALL
GASTEIGER

@<TRIPOS>ATOM
      1  N        -13.4880   64.7270  -26.5800 N.3   156  TRP156     -0.1241
      2  CA       -14.7910   64.8430  -27.1830 C.3   156  TRP156      0.1605
      3  C        -14.5560   64.9660  -28.6880 C.2   156  TRP156      0.2264
      4  O        -13.7630   65.8150  -29.1010 O.2   156  TRP156     -0.2867
      5  CB       -15.5420   66.0900  -26.6680 C.3   156  TRP156      0.0550
      6  CG       -16.6250   66.4420  -27.6140 C.ar  156  TRP156      0.0003
      7  CD1      -16.4810   67.1040  -28.8110 C.ar  156  TRP156      0.0946
      8  CD2      -18.0140   66.0860  -27.5150 C.ar  156  TRP156      0.0152
      9  NE1      -17.6950   67.1820  -29.4440 N.ar  156  TRP156     -0.2442
     10  CE2      -18.6530   66.5730  -28.6780 C.ar  156  TRP156      0.0810
     11  CE3      -18.7780   65.4180  -26.5570 C.ar  156  TRP156      0.0012
     12  CZ2      -20.0350   66.4250  -28.9080 C.ar  156  TRP156      0.0191
     13  CZ3      -20.1670   65.2660  -26.7870 C.ar  156  TRP156      0.0001
     14  CH2      -20.7730   65.7710  -27.9520 C.ar  156  TRP156      0.0015
     15  N        -20.6310   57.3550  -24.1200 N.3   179  GLU179     -0.1245
     16  CA       -21.7660   58.0500  -23.5420 C.3   179  GLU179      0.1567
     17  C        -22.5580   58.6640  -24.6630 C.2   179  GLU179      0.2260
     18  O        -22.0390   58.8210  -25.7580 O.2   179  GLU179     -0.2867
     19  CB       -21.3140   59.1110  -22.5310 C.3   179  GLU179      0.0388
     20  CG       -20.4990   60.2370  -23.1530 C.3   179  GLU179      0.1160
     21  CD       -20.2030   61.3820  -22.1940 C.2   179  GLU179      0.3649
     22  OE1      -20.4710   61.2520  -20.9580 O.co2 179  GLU179     -0.2457
     23  OE2      -19.6910   62.4080  -22.6930 O.co2 179  GLU179     -0.2457
     24  N        -26.7770   62.0720  -21.5270 N.3   184  TRP184     -0.1241
     25  CA       -25.3240   62.0100  -21.4180 C.3   184  TRP184      0.1605
     26  C        -24.8830   61.0730  -20.3080 C.2   184  TRP184      0.2264
     27  O        -24.0120   61.3990  -19.4870 O.2   184  TRP184     -0.2867
     28  CB       -24.6750   63.4060  -21.3760 C.3   184  TRP184      0.0550
     29  CG       -24.9130   64.0910  -22.6960 C.ar  184  TRP184      0.0003
     30  CD1      -25.8080   65.0780  -22.9360 C.ar  184  TRP184      0.0946
     31  CD2      -24.3160   63.7670  -23.9680 C.ar  184  TRP184      0.0152
     32  NE1      -25.7720   65.4360  -24.2540 N.ar  184  TRP184     -0.2442
     33  CE2      -24.8860   64.6380  -24.9240 C.ar  184  TRP184      0.0810
     34  CE3      -23.3370   62.8420  -24.3860 C.ar  184  TRP184      0.0012
     35  CZ2      -24.5270   64.6240  -26.2860 C.ar  184  TRP184      0.0191
     36  CZ3      -22.9730   62.8160  -25.7560 C.ar  184  TRP184      0.0001
     37  CH2      -23.5740   63.7100  -26.6860 C.ar  184  TRP184      0.0015
     38  N        -10.4330   65.5510  -17.2240 N.3   215  TYR215     -0.1241
     39  CA       -11.7640   64.9600  -17.0140 C.3   215  TYR215      0.1605
     40  C        -12.3520   64.1330  -18.1930 C.2   215  TYR215      0.2264
     41  O        -13.1520   63.2520  -17.9560 O.2   215  TYR215     -0.2867
     42  CB       -12.7650   65.9540  -16.3930 C.3   215  TYR215      0.0534
     43  CG       -13.1410   67.2130  -17.1630 C.ar  215  TYR215     -0.0201
     44  CD1      -13.9140   68.1680  -16.5480 C.ar  215  TYR215     -0.0009
     45  CD2      -12.7240   67.4640  -18.4790 C.ar  215  TYR215     -0.0009
     46  CE1      -14.3130   69.3180  -17.2120 C.ar  215  TYR215      0.0417
     47  CE2      -13.1000   68.6270  -19.1420 C.ar  215  TYR215      0.0417
     48  CZ       -13.9040   69.5520  -18.4930 C.ar  215  TYR215      0.1957
     49  OH       -14.3340   70.7270  -19.0660 O.3   215  TYR215     -0.2866
     50  N        -24.8780   76.2140  -15.2240 N.3   306  GLY306     -0.1210
     51  CA       -23.5220   75.8760  -15.5930 C.3   306  GLY306      0.1956
     52  C        -23.4900   75.3690  -16.9930 C.2   306  GLY306      0.2612
     53  O        -22.4130   75.0910  -17.5360 O.2   306  GLY306     -0.2717
     54  N        -24.6720   75.2400  -17.5980 N.am  307  TYR307     -0.1962
     55  CA       -24.7940   74.5620  -18.8760 C.3   307  TYR307      0.1771
     56  C        -25.8070   75.2930  -19.7370 C.2   307  TYR307      0.2620
     57  O        -26.8230   75.7800  -19.2390 O.2   307  TYR307     -0.2715
     58  CB       -25.2370   73.1140  -18.6710 C.3   307  TYR307      0.0574
     59  CG       -24.2220   72.2330  -17.9650 C.ar  307  TYR307     -0.0198
     60  CD1      -23.3020   71.4430  -18.7000 C.ar  307  TYR307     -0.0009
     61  CD2      -24.1490   72.1880  -16.5590 C.ar  307  TYR307     -0.0009
     62  CE1      -22.3590   70.6220  -18.0520 C.ar  307  TYR307      0.0417
     63  CE2      -23.2120   71.3590  -15.9070 C.ar  307  TYR307      0.0417
     64  CZ       -22.3250   70.5880  -16.6640 C.ar  307  TYR307      0.1957
     65  OH       -21.4080   69.7770  -16.0330 O.3   307  TYR307     -0.2866
     66  N        -25.4910   75.3710  -21.0250 N.am  308  SER308     -0.1936
     67  CA       -26.3570   75.9060  -22.0820 C.3   308  SER308      0.2055
     68  C        -27.7020   75.2550  -22.1540 C.2   308  SER308      0.2643
     69  O        -28.7070   75.9080  -22.4180 O.2   308  SER308     -0.2714
     70  CB       -25.7460   75.4940  -23.4150 C.3   308  SER308      0.2130
     71  OG       -25.2330   76.5960  -24.0380 O.3   308  SER308     -0.2179
     72  N        -27.6750   73.9330  -22.0150 N.am  309  TYR309     -0.1973
     73  CA       -28.7820   73.0880  -22.4430 C.3   309  TYR309      0.1639
     74  C        -29.4200   72.5120  -21.2200 C.2   309  TYR309      0.2290
     75  O        -30.1820   71.5470  -21.3140 O.2   309  TYR309     -0.2864
     76  CB       -28.2880   71.9560  -23.3580 C.3   309  TYR309      0.0560
     77  CG       -27.1270   71.1720  -22.7840 C.ar  309  TYR309     -0.0198
     78  CD1      -25.7980   71.5320  -23.0720 C.ar  309  TYR309     -0.0009
     79  CD2      -27.3600   70.0670  -21.9640 C.ar  309  TYR309     -0.0009
     80  CE1      -24.7280   70.7940  -22.5440 C.ar  309  TYR309      0.0417
     81  CE2      -26.3220   69.3270  -21.4310 C.ar  309  TYR309      0.0417
     82  CZ       -25.0040   69.6800  -21.7100 C.ar  309  TYR309      0.1957
     83  OH       -23.9850   68.9100  -21.1550 O.3   309  TYR309     -0.2866
     84  N        -18.1800   75.8020  -14.7980 N.3   328  SER328     -0.1202
     85  CA       -18.5420   74.4180  -15.0420 C.3   328  SER328      0.2020
     86  C        -17.5420   73.6460  -15.8360 C.2   328  SER328      0.2619
     87  O        -17.6450   72.4220  -15.8990 O.2   328  SER328     -0.2717
     88  CB       -19.9190   74.3040  -15.7160 C.3   328  SER328      0.2103
     89  OG       -19.9400   75.0060  -16.9260 O.3   328  SER328     -0.2182
     90  N        -16.5780   74.3280  -16.4370 N.am  329  THR329     -0.1952
     91  CA       -15.6000   73.6320  -17.2780 C.3   329  THR329      0.1897
     92  C        -14.1730   73.6350  -16.6950 C.2   329  THR329      0.2313
     93  O        -13.2570   73.1720  -17.3630 O.2   329  THR329     -0.2863
     94  CB       -15.4970   74.2300  -18.7160 C.3   329  THR329      0.1794
     95  OG1      -15.4500   75.6630  -18.6310 O.3   329  THR329     -0.2208
     96  CG2      -16.6740   73.7500  -19.6310 C.3   329  THR329      0.0378
     97  N        -23.1730   66.2380  -15.7790 N.3   367  THR367     -0.1218
     98  CA       -23.4040   65.0480  -16.5630 C.3   367  THR367      0.1862
     99  C        -22.3850   63.9410  -16.2830 C.2   367  THR367      0.2287
    100  O        -22.4690   62.8760  -16.9210 O.2   367  THR367     -0.2866
    101  CB       -23.4440   65.3280  -18.0680 C.3   367  THR367      0.1770
    102  OG1      -22.1220   65.6150  -18.5350 O.3   367  THR367     -0.2211
    103  CG2      -24.3910   66.4960  -18.4090 C.3   367  THR367      0.0375
    104  N        -18.6110   64.2580  -15.9560 N.3   369  TRP369     -0.1227
    105  CA       -17.2000   64.4090  -16.3200 C.3   369  TRP369      0.1737
    106  C        -16.3260   64.8390  -15.1450 C.2   369  TRP369      0.2595
    107  O        -15.3720   64.1430  -14.7800 O.2   369  TRP369     -0.2718
    108  CB       -17.0690   65.4270  -17.4610 C.3   369  TRP369      0.0564
    109  CG       -17.3140   64.8620  -18.8410 C.ar  369  TRP369      0.0003
    110  CD1      -18.2980   63.9970  -19.2140 C.ar  369  TRP369      0.0946
    111  CD2      -16.5350   65.1230  -20.0170 C.ar  369  TRP369      0.0152
    112  NE1      -18.1760   63.6950  -20.5450 N.ar  369  TRP369     -0.2442
    113  CE2      -17.1180   64.3880  -21.0720 C.ar  369  TRP369      0.0810
    114  CE3      -15.4110   65.9280  -20.2870 C.ar  369  TRP369      0.0012
    115  CZ2      -16.6260   64.4340  -22.3780 C.ar  369  TRP369      0.0191
    116  CZ3      -14.9140   65.9680  -21.5910 C.ar  369  TRP369      0.0001
    117  CH2      -15.5140   65.2170  -22.6160 C.ar  369  TRP369      0.0015
    118  N        -16.6460   65.9740  -14.5360 N.am  370  ARG370     -0.1980
    119  CA       -15.8890   66.4240  -13.3700 C.3   370  ARG370      0.1597
    120  C        -15.9290   65.3890  -12.2590 C.2   370  ARG370      0.2287
    121  O        -14.9070   65.1430  -11.5790 O.2   370  ARG370     -0.2864
    122  CB       -16.3710   67.7880  -12.8710 C.3   370  ARG370      0.0334
    123  CG       -16.2280   68.8950  -13.9020 C.3   370  ARG370      0.0492
    124  CD       -16.9290   70.1250  -13.3900 C.3   370  ARG370      0.2205
    125  NE       -18.3100   70.0920  -13.8050 N.pl3 370  ARG370     -0.0865
    126  CZ       -19.2000   71.0040  -13.4660 C.cat 370  ARG370      0.5346
    127  NH1      -18.8750   72.0140  -12.6600 N.pl3 370  ARG370      0.1354
    128  NH2      -20.4270   70.8940  -13.9180 N.pl3 370  ARG370      0.1354
@<TRIPOS>BOND
     1     9     7   ar
     2     9    10   ar
     3     4     3    2
     4    12    10   ar
     5    12    14   ar
     6     7     6   ar
     7     3     2    1
     8    10     8   ar
     9    14    13   ar
    10     6     8   ar
    11     6     5    1
    12     8    11   ar
    13     2     5    1
    14     2     1    1
    15    13    11   ar
    16    37    35   ar
    17    37    36   ar
    18    35    33   ar
    19    18    17    2
    20    36    34   ar
    21    33    32   ar
    22    33    31   ar
    23    17    16    1
    24    34    31   ar
    25    32    30   ar
    26    15    16    1
    27    71    70    1
    28    31    29   ar
    29    16    19    1
    30    70    67    1
    31    76    77    1
    32    76    73    1
    33    20    19    1
    34    20    21    1
    35    78    77   ar
    36    78    80   ar
    37    30    29   ar
    38    77    79   ar
    39    29    28    1
    40    23    21   ar
    41   117   115   ar
    42   117   116   ar
    43    80    82   ar
    44    73    72    1
    45    73    74    1
    46    69    68    2
    47   115   113   ar
    48    21    22   ar
    49    68    67    1
    50    68    72   am
    51    67    66    1
    52    79    81   ar
    53    82    81   ar
    54    82    83    1
    55   116   114   ar
    56    24    25    1
    57    25    28    1
    58    25    26    1
    59    75    74    2
    60   113   112   ar
    61   113   111   ar
    62    66    56   am
    63   112   110   ar
    64    26    27    2
    65   114   111   ar
    66   111   109   ar
    67    56    57    2
    68    56    55    1
    69    96    94    1
    70   110   109   ar
    71    47    48   ar
    72    47    45   ar
    73    49    48    1
    74    55    58    1
    75    55    54    1
    76   109   108    1
    77    94    95    1
    78    94    91    1
    79    60    62   ar
    80    60    59   ar
    81    58    59    1
    82   102   101    1
    83    48    46   ar
    84    45    43   ar
    85   103   101    1
    86    40    41    2
    87    40    39    1
    88   101    98    1
    89    62    64   ar
    90    59    61   ar
    91    54    52   am
    92    53    52    2
    93   108   105    1
    94    93    92    2
    95    91    92    1
    96    91    90    1
    97    38    39    1
    98    46    44   ar
    99    43    44   ar
   100    43    42    1
   101    39    42    1
   102    52    51    1
   103    89    88    1
   104   100    99    2
   105    64    65    1
   106    64    63   ar
   107    98    99    1
   108    98    97    1
   109    61    63   ar
   110    90    86   am
   111   105   104    1
   112   105   106    1
   113    87    86    2
   114    86    85    1
   115    88    85    1
   116    51    50    1
   117   106   107    2
   118   106   118   am
   119    85    84    1
   120   118   119    1
   121   128   126    1
   122   123   124    1
   123   123   122    1
   124   125   126    2
   125   125   124    1
   126   126   127    1
   127   119   122    1
   128   119   120    1
   129   120   121    2
