@<TRIPOS>MOLECULE
tmp/3ipsA00.pdb
 236 224 0 0 0
SMALL
GASTEIGER

@<TRIPOS>ATOM
      1  N         26.8440   -6.1490   14.9950 N.3    32  PHE32      -0.1241
      2  CA        27.2820   -6.8260   16.2080 C.3    32  PHE32       0.1605
      3  C         26.3360   -6.5380   17.3750 C.2    32  PHE32       0.2264
      4  O         25.8710   -7.4680   18.0330 O.2    32  PHE32      -0.2867
      5  CB        28.6970   -6.3710   16.5470 C.3    32  PHE32       0.0534
      6  CG        29.2990   -7.0600   17.7280 C.ar   32  PHE32      -0.0203
      7  CD1       29.6860   -8.3860   17.6470 C.ar   32  PHE32      -0.0042
      8  CD2       29.5190   -6.3720   18.9080 C.ar   32  PHE32      -0.0042
      9  CE1       30.2650   -9.0230   18.7240 C.ar   32  PHE32      -0.0003
     10  CE2       30.0950   -6.9970   19.9870 C.ar   32  PHE32      -0.0003
     11  CZ        30.4730   -8.3320   19.8970 C.ar   32  PHE32      -0.0000
     12  N         23.1930   -8.2720   16.8210 N.3    35  PHE35      -0.1227
     13  CA        23.3530   -9.7190   16.9270 C.3    35  PHE35       0.1736
     14  C         23.4750  -10.1400   18.3760 C.2    35  PHE35       0.2596
     15  O         22.7690  -11.0400   18.7950 O.2    35  PHE35      -0.2718
     16  CB        24.5490  -10.2310   16.1120 C.3    35  PHE35       0.0547
     17  CG        24.1830  -11.3390   15.1560 C.ar   35  PHE35      -0.0202
     18  CD1       23.1640  -11.1480   14.2270 C.ar   35  PHE35      -0.0042
     19  CD2       24.8400  -12.5650   15.1870 C.ar   35  PHE35      -0.0042
     20  CE1       22.8080  -12.1470   13.3570 C.ar   35  PHE35      -0.0003
     21  CE2       24.4840  -13.5810   14.3120 C.ar   35  PHE35      -0.0003
     22  CZ        23.4740  -13.3720   13.4000 C.ar   35  PHE35      -0.0000
     23  N         24.3490   -9.4780   19.1300 N.am   36  THR36      -0.1953
     24  CA        24.5510   -9.7630   20.5510 C.3    36  THR36       0.1897
     25  C         23.3080   -9.4330   21.3810 C.2    36  THR36       0.2313
     26  O         23.1020  -10.0170   22.4430 O.2    36  THR36      -0.2863
     27  CB        25.7180   -8.9510   21.1490 C.3    36  THR36       0.1794
     28  OG1       25.5130   -7.5700   20.8440 O.3    36  THR36      -0.2208
     29  CG2       27.0810   -9.4120   20.6040 C.3    36  THR36       0.0378
     30  N         20.1940   -9.8770   20.1490 N.3    38  LEU38      -0.1231
     31  CA        19.3070  -11.0180   19.8510 C.3    38  LEU38       0.1693
     32  C         19.6050  -12.1720   20.8070 C.2    38  LEU38       0.2591
     33  O         18.6920  -12.8630   21.2430 O.2    38  LEU38      -0.2718
     34  CB        19.4970  -11.5100   18.4040 C.3    38  LEU38       0.0284
     35  CG        18.7910  -10.8210   17.2310 C.3    38  LEU38       0.0019
     36  CD1       19.3840  -11.3320   15.9180 C.3    38  LEU38       0.0001
     37  CD2       17.3000  -11.0870   17.2700 C.3    38  LEU38       0.0001
     38  N         20.8890  -12.3780   21.1160 N.am   39  ALA39      -0.1980
     39  CA        21.3100  -13.3980   22.0620 C.3    39  ALA39       0.1597
     40  C         20.7920  -13.0780   23.4450 C.2    39  ALA39       0.2287
     41  O         20.2690  -13.9450   24.1110 O.2    39  ALA39      -0.2864
     42  CB        22.8190  -13.5240   22.0890 C.3    39  ALA39       0.0319
     43  N         18.1650  -11.6520   24.1660 N.3    41  VAL41      -0.1231
     44  CA        16.7470  -12.0570   24.1740 C.3    41  VAL41       0.1692
     45  C         16.6120  -13.5670   24.3210 C.2    41  VAL41       0.2592
     46  O         15.7640  -14.0400   25.0630 O.2    41  VAL41      -0.2718
     47  CB        15.9990  -11.5910   22.8880 C.3    41  VAL41       0.0266
     48  CG1       14.5420  -12.0360   22.8900 C.3    41  VAL41       0.0020
     49  CG2       16.0910  -10.0940   22.7510 C.3    41  VAL41       0.0020
     50  N         17.4440  -14.3300   23.6210 N.am   42  SER42      -0.1952
     51  CA        17.4110  -15.7920   23.7510 C.3    42  SER42       0.1924
     52  C         17.7180  -16.2260   25.1890 C.2    42  SER42       0.2314
     53  O         16.9760  -17.0340   25.7630 O.2    42  SER42      -0.2863
     54  CB        18.3810  -16.4560   22.7630 C.3    42  SER42       0.2116
     55  OG        18.1000  -17.8400   22.6110 O.3    42  SER42      -0.2180
     56  N         14.9210  -15.9370   27.2920 N.3    45  GLU45      -0.1245
     57  CA        13.8850  -16.9150   26.9230 C.3    45  GLU45       0.1567
     58  C         14.1810  -18.2700   27.5520 C.2    45  GLU45       0.2260
     59  O         13.2930  -18.9270   28.0800 O.2    45  GLU45      -0.2867
     60  CB        13.7800  -17.0610   25.3850 C.3    45  GLU45       0.0388
     61  CG        12.9150  -15.9860   24.6960 C.3    45  GLU45       0.1160
     62  CD        12.7900  -16.1790   23.1630 C.2    45  GLU45       0.3649
     63  OE1       13.0940  -17.2900   22.6510 O.co2  45  GLU45      -0.2457
     64  OE2       12.3970  -15.2060   22.4690 O.co2  45  GLU45      -0.2457
     65  N         24.4880  -21.5820   25.0800 N.3    73  ILE73      -0.1245
     66  CA        24.9440  -21.6440   23.6970 C.3    73  ILE73       0.1561
     67  C         24.3410  -22.8620   22.9950 C.2    73  ILE73       0.2260
     68  O         23.7980  -22.7150   21.8960 O.2    73  ILE73      -0.2867
     69  CB        26.4560  -21.5860   23.5560 C.3    73  ILE73       0.0252
     70  CG1       26.8460  -21.3230   22.0770 C.3    73  ILE73       0.0019
     71  CG2       27.1240  -22.8380   24.1350 C.3    73  ILE73       0.0019
     72  CD1       26.3890  -19.9570   21.5050 C.3    73  ILE73       0.0001
     73  N         20.7610  -22.0750   22.2290 N.3    76  MET76      -0.1230
     74  CA        20.6850  -21.0580   21.2110 C.3    76  MET76       0.1702
     75  C         20.8820  -21.6940   19.8290 C.2    76  MET76       0.2592
     76  O         20.1840  -21.3380   18.8660 O.2    76  MET76      -0.2718
     77  CB        21.7550  -20.0070   21.4400 C.3    76  MET76       0.0401
     78  CG        21.2490  -18.7890   22.1170 C.3    76  MET76       0.0596
     79  SD        22.6450  -17.6800   22.3080 S.3    76  MET76      -0.1393
     80  CE        22.7260  -17.6710   24.0930 C.3    76  MET76       0.0692
     81  N         21.8260  -22.6410   19.7590 N.am   77  LEU77      -0.1980
     82  CA        22.0770  -23.4210   18.5530 C.3    77  LEU77       0.1596
     83  C         20.9190  -24.3320   18.1420 C.2    77  LEU77       0.2287
     84  O         20.6520  -24.4800   16.9480 O.2    77  LEU77      -0.2864
     85  CB        23.3750  -24.2100   18.6970 C.3    77  LEU77       0.0297
     86  CG        24.6120  -23.3100   18.6600 C.3    77  LEU77       0.0022
     87  CD1       25.7430  -23.8730   19.4540 C.3    77  LEU77       0.0001
     88  CD2       25.0630  -23.0770   17.2430 C.3    77  LEU77       0.0001
     89  N         17.7670  -23.6980   18.7780 N.3    79  GLU79      -0.1231
     90  CA        16.6640  -22.8140   18.3970 C.3    79  GLU79       0.1699
     91  C         16.9270  -22.3160   17.0040 C.2    79  GLU79       0.2592
     92  O         16.0910  -22.4550   16.1370 O.2    79  GLU79      -0.2718
     93  CB        16.5310  -21.6410   19.3580 C.3    79  GLU79       0.0402
     94  CG        15.9430  -22.0140   20.6950 C.3    79  GLU79       0.1161
     95  CD        14.4530  -22.3270   20.6300 C.2    79  GLU79       0.3649
     96  OE1       13.8750  -22.2990   19.5270 O.co2  79  GLU79      -0.2457
     97  OE2       13.8480  -22.5960   21.6900 O.co2  79  GLU79      -0.2457
     98  N         18.1100  -21.7580   16.8150 N.am   80  THR80      -0.1953
     99  CA        18.6690  -21.4260   15.5060 C.3    80  THR80       0.1897
    100  C         18.3880  -22.4190   14.3780 C.2    80  THR80       0.2313
    101  O         18.0280  -22.0070   13.2790 O.2    80  THR80      -0.2863
    102  CB        20.1950  -21.2680   15.6460 C.3    80  THR80       0.1794
    103  OG1       20.4730  -20.0020   16.2450 O.3    80  THR80      -0.2208
    104  CG2       20.9140  -21.3810   14.3040 C.3    80  THR80       0.0378
    105  N         14.9180  -22.5930   12.9640 N.3    83  ARG83      -0.1245
    106  CA        14.5910  -21.4500   12.1620 C.3    83  ARG83       0.1563
    107  C         15.3120  -21.4980   10.8400 C.2    83  ARG83       0.2260
    108  O         15.2730  -20.5280   10.1030 O.2    83  ARG83      -0.2867
    109  CB        14.9840  -20.1880   12.9280 C.3    83  ARG83       0.0307
    110  CG        14.0170  -19.8590   14.0480 C.3    83  ARG83       0.0489
    111  CD        14.6790  -19.0800   15.1920 C.3    83  ARG83       0.2205
    112  NE        13.6910  -18.7780   16.2240 N.pl3  83  ARG83      -0.0865
    113  CZ        13.1950  -19.6770   17.0740 C.cat  83  ARG83       0.5346
    114  NH1       13.5960  -20.9430   17.0170 N.pl3  83  ARG83       0.1354
    115  NH2       12.2850  -19.3230   17.9840 N.pl3  83  ARG83       0.1354
    116  N         15.3190  -14.9080   12.2830 N.3    93  PHE93      -0.1227
    117  CA        15.1460  -14.4590   13.6790 C.3    93  PHE93       0.1736
    118  C         14.1200  -13.3470   13.7360 C.2    93  PHE93       0.2595
    119  O         14.0090  -12.5610   12.7890 O.2    93  PHE93      -0.2718
    120  CB        16.4480  -13.8950   14.2530 C.3    93  PHE93       0.0547
    121  CG        17.6050  -14.8410   14.1940 C.ar   93  PHE93      -0.0202
    122  CD1       17.5460  -16.0570   14.8340 C.ar   93  PHE93      -0.0042
    123  CD2       18.7550  -14.5070   13.5080 C.ar   93  PHE93      -0.0042
    124  CE1       18.5940  -16.9230   14.7710 C.ar   93  PHE93      -0.0003
    125  CE2       19.8080  -15.3720   13.4460 C.ar   93  PHE93      -0.0003
    126  CZ        19.7310  -16.5820   14.0740 C.ar   93  PHE93      -0.0000
    127  N         13.3810  -13.2780   14.8410 N.am   94  LEU94      -0.1980
    128  CA        12.3460  -12.2370   15.0850 C.3    94  LEU94       0.1596
    129  C         11.1080  -12.2410   14.1360 C.2    94  LEU94       0.2287
    130  O         10.1280  -11.5290   14.3970 O.2    94  LEU94      -0.2864
    131  CB        12.9740  -10.8160   15.2120 C.3    94  LEU94       0.0297
    132  CG        13.7140  -10.0450   14.0960 C.3    94  LEU94       0.0022
    133  CD1       12.8410   -9.8560   12.8660 C.3    94  LEU94       0.0001
    134  CD2       14.2060   -8.6810   14.5940 C.3    94  LEU94       0.0001
    135  N         25.8230  -13.1760    9.0290 N.3   104  PHE104     -0.1241
    136  CA        26.5040  -13.5860   10.2570 C.3   104  PHE104      0.1605
    137  C         27.8910  -12.9700   10.3690 C.2   104  PHE104      0.2264
    138  O         28.2560  -12.4740   11.4260 O.2   104  PHE104     -0.2867
    139  CB        26.6240  -15.1180   10.3410 C.3   104  PHE104      0.0534
    140  CG        25.4460  -15.7960   11.0010 C.ar  104  PHE104     -0.0203
    141  CD1       24.1590  -15.6140   10.5260 C.ar  104  PHE104     -0.0042
    142  CD2       25.6310  -16.6250   12.0980 C.ar  104  PHE104     -0.0042
    143  CE1       23.0780  -16.2370   11.1330 C.ar  104  PHE104     -0.0003
    144  CE2       24.5530  -17.2560   12.7050 C.ar  104  PHE104     -0.0003
    145  CZ        23.2770  -17.0600   12.2220 C.ar  104  PHE104     -0.0000
    146  N         30.9230  -12.4980   13.3840 N.3   109  LEU109     -0.1245
    147  CA        31.2810  -13.9010   13.6440 C.3   109  LEU109      0.1561
    148  C         32.3580  -14.4050   12.6620 C.2   109  LEU109      0.2260
    149  O         32.3210  -14.0950   11.4680 O.2   109  LEU109     -0.2867
    150  CB        30.0290  -14.8020   13.6040 C.3   109  LEU109      0.0270
    151  CG        29.0180  -14.8020   14.7770 C.3   109  LEU109      0.0019
    152  CD1       29.1650  -13.6430   15.7640 C.3   109  LEU109      0.0001
    153  CD2       27.5870  -14.8390   14.2340 C.3   109  LEU109      0.0001
    154  N         33.2170  -20.5840   12.8650 N.3   113  PHE113     -0.1241
    155  CA        32.0640  -20.8570   13.7170 C.3   113  PHE113      0.1605
    156  C         30.7810  -20.8390   12.9170 C.2   113  PHE113      0.2264
    157  O         29.8940  -21.6470   13.1700 O.2   113  PHE113     -0.2867
    158  CB        32.0140  -19.8260   14.8590 C.3   113  PHE113      0.0534
    159  CG        30.8510  -19.9900   15.8290 C.ar  113  PHE113     -0.0203
    160  CD1       30.3280  -21.2360   16.1520 C.ar  113  PHE113     -0.0042
    161  CD2       30.3330  -18.8750   16.4750 C.ar  113  PHE113     -0.0042
    162  CE1       29.2900  -21.3550   17.0570 C.ar  113  PHE113     -0.0003
    163  CE2       29.3060  -19.0000   17.3800 C.ar  113  PHE113     -0.0003
    164  CZ        28.7830  -20.2460   17.6660 C.ar  113  PHE113     -0.0000
    165  N         27.6320  -23.7750   12.4420 N.3   117  ILE117     -0.1245
    166  CA        26.2500  -23.3990   12.7460 C.3   117  ILE117      0.1561
    167  C         25.3320  -23.8920   11.6550 C.2   117  ILE117      0.2260
    168  O         24.3880  -24.6260   11.9140 O.2   117  ILE117     -0.2867
    169  CB        26.0620  -21.8900   12.8120 C.3   117  ILE117      0.0252
    170  CG1       26.7340  -21.3200   14.0660 C.3   117  ILE117      0.0019
    171  CG2       24.5680  -21.5400   12.7750 C.3   117  ILE117      0.0019
    172  CD1       26.8030  -19.8010   14.0950 C.3   117  ILE117      0.0001
    173  N         32.4210  -22.3580   19.8000 N.3   199  HIS199     -0.1241
    174  CA        31.9360  -21.0600   20.2940 C.3   199  HIS199      0.1621
    175  C         32.8620  -20.4150   21.3300 C.2   199  HIS199      0.2264
    176  O         32.9430  -19.1930   21.3880 O.2   199  HIS199     -0.2867
    177  CB        30.5270  -21.1910   20.8810 C.3   199  HIS199      0.0745
    178  CG        30.0660  -19.9800   21.6290 C.ar  199  HIS199      0.0817
    179  ND1       30.3630  -19.7700   22.9600 N.ar  199  HIS199     -0.2268
    180  CD2       29.3200  -18.9200   21.2390 C.ar  199  HIS199      0.1154
    181  CE1       29.8240  -18.6320   23.3540 C.ar  199  HIS199      0.1986
    182  NE2       29.1860  -18.0960   22.3290 N.ar  199  HIS199     -0.2212
    183  N         35.4250  -18.6170   19.4210 N.3   202  GLN202     -0.1231
    184  CA        34.8100  -17.3980   18.9250 C.3   202  GLN202      0.1698
    185  C         34.9170  -16.3060   19.9770 C.2   202  GLN202      0.2592
    186  O         35.4600  -15.2360   19.7020 O.2   202  GLN202     -0.2718
    187  CB        33.3420  -17.6550   18.5730 C.3   202  GLN202      0.0381
    188  CG        32.4800  -16.4060   18.4050 C.3   202  GLN202      0.0905
    189  CD        32.6150  -15.7670   17.0370 C.2   202  GLN202      0.2608
    190  OE1       31.6930  -15.8420   16.2180 O.2   202  GLN202     -0.2717
    191  NE2       33.7580  -15.1290   16.7830 N.am  202  GLN202     -0.0878
    192  N         34.3980  -16.5900   21.1730 N.am  203  VAL203     -0.1980
    193  CA        34.3890  -15.6350   22.2850 C.3   203  VAL203      0.1595
    194  C         35.8130  -15.1560   22.6330 C.2   203  VAL203      0.2287
    195  O         36.0240  -13.9860   22.9000 O.2   203  VAL203     -0.2864
    196  CB        33.6820  -16.2290   23.5420 C.3   203  VAL203      0.0276
    197  CG1       34.1470  -15.5430   24.7990 C.3   203  VAL203      0.0022
    198  CG2       32.1800  -16.1130   23.4180 C.3   203  VAL203      0.0022
    199  N         36.9660  -12.7240   20.0110 N.3   206  LEU206     -0.1245
    200  CA        36.3990  -11.4030   20.3250 C.3   206  LEU206      0.1561
    201  C         37.2040  -10.6760   21.4150 C.2   206  LEU206      0.2260
    202  O         37.2630   -9.4490   21.4320 O.2   206  LEU206     -0.2867
    203  CB        34.9290  -11.5190   20.7470 C.3   206  LEU206      0.0270
    204  CG        33.8940  -11.9430   19.6940 C.3   206  LEU206      0.0019
    205  CD1       32.4940  -11.8560   20.2750 C.3   206  LEU206      0.0001
    206  CD2       33.9680  -11.0960   18.4580 C.3   206  LEU206      0.0001
    207  N         31.4990   -7.9110   24.7600 N.3   213  LEU213     -0.1245
    208  CA        30.1650   -8.4820   24.8910 C.3   213  LEU213      0.1561
    209  C         29.4040   -7.6950   25.9420 C.2   213  LEU213      0.2260
    210  O         30.0160   -7.2160   26.8900 O.2   213  LEU213     -0.2867
    211  CB        30.2290   -9.9590   25.3040 C.3   213  LEU213      0.0270
    212  CG        30.6670  -10.9770   24.2510 C.3   213  LEU213      0.0019
    213  CD1       30.8920  -12.3140   24.9230 C.3   213  LEU213      0.0001
    214  CD2       29.6350  -11.0910   23.1660 C.3   213  LEU213      0.0001
    215  N         25.9130  -11.4530   28.4430 N.3   217  LEU217     -0.1245
    216  CA        26.6380  -12.3820   27.5910 C.3   217  LEU217      0.1561
    217  C         28.0790  -12.4940   28.0290 C.2   217  LEU217      0.2260
    218  O         28.6760  -13.5510   27.8910 O.2   217  LEU217     -0.2867
    219  CB        26.5730  -11.9590   26.1300 C.3   217  LEU217      0.0270
    220  CG        25.1910  -11.7280   25.5210 C.3   217  LEU217      0.0019
    221  CD1       25.3770  -11.4040   24.0560 C.3   217  LEU217      0.0001
    222  CD2       24.2810  -12.9220   25.6830 C.3   217  LEU217      0.0001
    223  N         29.4490  -16.0630   29.2850 N.3   221  TRP221     -0.1241
    224  CA        30.4780  -16.5350   28.3290 C.3   221  TRP221      0.1605
    225  C         31.9360  -16.1500   28.5480 C.2   221  TRP221      0.2264
    226  O         32.8030  -16.9150   28.1660 O.2   221  TRP221     -0.2867
    227  CB        30.0870  -16.1970   26.8830 C.3   221  TRP221      0.0550
    228  CG        28.8560  -16.9080   26.4510 C.ar  221  TRP221      0.0003
    229  CD1       28.3880  -18.1070   26.9180 C.ar  221  TRP221      0.0946
    230  CD2       27.9500  -16.4930   25.4460 C.ar  221  TRP221      0.0152
    231  NE1       27.2410  -18.4500   26.2820 N.ar  221  TRP221     -0.2442
    232  CE2       26.9410  -17.4720   25.3700 C.ar  221  TRP221      0.0810
    233  CE3       27.8890  -15.3900   24.5910 C.ar  221  TRP221      0.0012
    234  CZ2       25.8770  -17.3770   24.4790 C.ar  221  TRP221      0.0191
    235  CZ3       26.8260  -15.2940   23.7100 C.ar  221  TRP221      0.0001
    236  CH2       25.8360  -16.2860   23.6600 C.ar  221  TRP221      0.0015
@<TRIPOS>BOND
     1   135   136    1
     2   108   107    2
     3   136   139    1
     4   136   137    1
     5   139   140    1
     6   137   138    2
     7   141   140   ar
     8   141   143   ar
     9   107   106    1
    10   140   142   ar
    11   143   145   ar
    12   149   148    2
    13   167   168    2
    14   167   166    1
    15   142   144   ar
    16   106   109    1
    17   106   105    1
    18   145   144   ar
    19   116   117    1
    20   165   166    1
    21   148   147    1
    22   166   169    1
    23   171   169    1
    24   119   118    2
    25   169   170    1
    26   154   155    1
    27   133   132    1
    28   156   157    2
    29   156   155    1
    30   109   110    1
    31   101   100    2
    32    20    22   ar
    33    20    18   ar
    34   146   147    1
    35    22    21   ar
    36   125   123   ar
    37   125   126   ar
    38   123   121   ar
    39   150   147    1
    40   150   151    1
    41   117   118    1
    42   117   120    1
    43   155   158    1
    44   118   127   am
    45   110   111    1
    46   170   172    1
    47   126   124   ar
    48   132   134    1
    49   132   131    1
    50   129   130    2
    51   129   128    1
    52   121   120    1
    53   121   122   ar
    54    18    17   ar
    55   153   151    1
    56   104   102    1
    57    21    19   ar
    58   100    99    1
    59   124   122   ar
    60   151   152    1
    61   127   128    1
    62   158   159    1
    63     1     2    1
    64   128   131    1
    65    17    19   ar
    66    17    16    1
    67   111   112    1
    68    99   102    1
    69    99    98    1
    70   102   103    1
    71   159   160   ar
    72   159   161   ar
    73    36    35    1
    74    16    13    1
    75    92    91    2
    76   160   162   ar
    77     2     5    1
    78     2     3    1
    79   190   189    2
    80   112   113    2
    81   161   163   ar
    82     5     6    1
    83   191   189   am
    84    98    91   am
    85    12    13    1
    86    13    14    1
    87    84    83    2
    88    91    90    1
    89   114   113    1
    90   189   188    1
    91   162   164   ar
    92   113   115    1
    93    35    37    1
    94    35    34    1
    95    88    86    1
    96     3     4    2
    97   163   164   ar
    98     7     6   ar
    99     7     9   ar
   100     6     8   ar
   101    83    82    1
   102    14    15    2
   103    14    23   am
   104    90    89    1
   105    90    93    1
   106    34    31    1
   107   188   187    1
   108   206   204    1
   109    82    85    1
   110    82    81    1
   111   187   184    1
   112    86    85    1
   113    86    87    1
   114     9    11   ar
   115    76    75    2
   116     8    10   ar
   117   184   183    1
   118   184   185    1
   119    23    24    1
   120    93    94    1
   121    96    95   ar
   122   204   205    1
   123   204   203    1
   124   186   185    2
   125    81    75   am
   126   173   174    1
   127    75    74    1
   128    31    30    1
   129    31    32    1
   130    11    10   ar
   131   185   192   am
   132   199   200    1
   133   174   177    1
   134   174   175    1
   135   200   203    1
   136   200   201    1
   137    24    27    1
   138    24    25    1
   139    29    27    1
   140    95    94    1
   141    95    97   ar
   142    32    38   am
   143    32    33    2
   144    28    27    1
   145   177   178    1
   146    38    39    1
   147   192   193    1
   148    74    77    1
   149    74    73    1
   150   180   178   ar
   151   180   182   ar
   152   175   176    2
   153    25    26    2
   154   201   202    2
   155    77    78    1
   156    72    70    1
   157   178   179   ar
   158    68    67    2
   159    39    42    1
   160    39    40    1
   161    70    69    1
   162    78    79    1
   163   193   194    1
   164   193   196    1
   165    79    80    1
   166   182   181   ar
   167    64    62   ar
   168    55    54    1
   169   194   195    2
   170    63    62   ar
   171    49    47    1
   172    54    51    1
   173    47    48    1
   174    47    44    1
   175   179   181   ar
   176    67    66    1
   177    62    61    1
   178   214   212    1
   179   198   196    1
   180    40    41    2
   181   196   197    1
   182    69    66    1
   183    69    71    1
   184    50    51    1
   185    50    45   am
   186   236   235   ar
   187   236   234   ar
   188    66    65    1
   189   235   233   ar
   190    51    52    1
   191   221   220    1
   192    43    44    1
   193    44    45    1
   194   212   213    1
   195   212   211    1
   196    45    46    2
   197   234   232   ar
   198   233   230   ar
   199    61    60    1
   200   207   208    1
   201   208   211    1
   202   208   209    1
   203    52    53    2
   204   232   230   ar
   205   232   231   ar
   206    60    57    1
   207   230   228   ar
   208   220   222    1
   209   220   219    1
   210   209   210    2
   211   219   216    1
   212   231   229   ar
   213   228   227    1
   214   228   229   ar
   215   227   224    1
   216    57    56    1
   217    57    58    1
   218    58    59    2
   219   216   217    1
   220   216   215    1
   221   218   217    2
   222   226   225    2
   223   224   225    1
   224   224   223    1
