@<TRIPOS>MOLECULE
tmp/3ipyA02.pdb
 131 127 0 0 0
SMALL
GASTEIGER

@<TRIPOS>ATOM
      1  N          6.7290    6.8270   21.5770 N.3    36  VAL36      -0.1245
      2  CA         7.5600    7.9700   21.1940 C.3    36  VAL36       0.1561
      3  C          6.7150    9.0620   20.5200 C.2    36  VAL36       0.2260
      4  O          7.0110   10.2550   20.6490 O.2    36  VAL36      -0.2867
      5  CB         8.7550    7.5370   20.2870 C.3    36  VAL36       0.0252
      6  CG1        9.6040    8.7440   19.8530 C.3    36  VAL36       0.0019
      7  CG2        9.6280    6.5150   21.0000 C.3    36  VAL36       0.0019
      8  N         13.1810   11.0540   26.3740 N.3    47  LEU47      -0.1245
      9  CA        13.1600   11.8040   25.1310 C.3    47  LEU47       0.1561
     10  C         14.0120   13.0590   25.2390 C.2    47  LEU47       0.2260
     11  O         14.8690   13.3000   24.3840 O.2    47  LEU47      -0.2867
     12  CB        11.7280   12.1640   24.7480 C.3    47  LEU47       0.0270
     13  CG        11.5240   12.8360   23.3950 C.3    47  LEU47       0.0019
     14  CD1       11.8580   11.8790   22.2630 C.3    47  LEU47       0.0001
     15  CD2       10.0980   13.3240   23.2880 C.3    47  LEU47       0.0001
     16  N         17.4620   12.1780   25.3040 N.3    50  MET50      -0.1230
     17  CA        17.8810   11.8170   23.9410 C.3    50  MET50       0.1702
     18  C         18.2070   13.0530   23.1060 C.2    50  MET50       0.2592
     19  O         19.1330   13.0260   22.2920 O.2    50  MET50      -0.2718
     20  CB        16.8280   10.9730   23.2270 C.3    50  MET50       0.0401
     21  CG        16.9020    9.4950   23.5180 C.3    50  MET50       0.0596
     22  SD        18.4210    8.6790   22.9810 S.3    50  MET50      -0.1393
     23  CE        18.1960    8.5910   21.2060 C.3    50  MET50       0.0692
     24  N         17.4530   14.1350   23.3200 N.am   51  TYR51      -0.1976
     25  CA        17.7260   15.3940   22.6380 C.3    51  TYR51       0.1639
     26  C         19.0810   15.9500   23.0630 C.2    51  TYR51       0.2290
     27  O         19.8340   16.4470   22.2370 O.2    51  TYR51      -0.2864
     28  CB        16.6240   16.4250   22.9090 C.3    51  TYR51       0.0560
     29  CG        15.2680   16.1210   22.2980 C.ar   51  TYR51      -0.0198
     30  CD1       14.0940   16.4140   22.9980 C.ar   51  TYR51      -0.0009
     31  CD2       15.1530   15.5530   21.0240 C.ar   51  TYR51      -0.0009
     32  CE1       12.8390   16.1510   22.4470 C.ar   51  TYR51       0.0417
     33  CE2       13.9040   15.2830   20.4650 C.ar   51  TYR51       0.0417
     34  CZ        12.7480   15.5840   21.1760 C.ar   51  TYR51       0.1957
     35  OH        11.4960   15.3250   20.6270 O.3    51  TYR51      -0.2866
     36  N         22.3090   11.5190   22.7380 N.3    54  PRO54      -0.2102
     37  CA        21.8730   10.2070   22.2760 C.3    54  PRO54       0.1504
     38  C         22.8700    9.0860   22.5740 C.2    54  PRO54       0.2575
     39  O         22.4570    7.9510   22.7850 O.2    54  PRO54      -0.2718
     40  CB        21.7400   10.3920   20.7560 C.3    54  PRO54       0.0282
     41  CG        21.6760   11.8470   20.5410 C.3    54  PRO54       0.0208
     42  CD        22.5020   12.4510   21.6120 C.3    54  PRO54       0.0893
     43  N         24.1630    9.3970   22.5850 N.am   55  GLU55      -0.1980
     44  CA        25.1800    8.3710   22.8040 C.3    55  GLU55       0.1602
     45  C         25.1500    7.8690   24.2430 C.2    55  GLU55       0.2287
     46  O         25.6860    6.8020   24.5330 O.2    55  GLU55      -0.2864
     47  CB        26.5970    8.8620   22.4690 C.3    55  GLU55       0.0415
     48  CG        26.6620    9.9510   21.4190 C.3    55  GLU55       0.1163
     49  CD        26.5540   11.3470   22.0060 C.2    55  GLU55       0.3649
     50  OE1       25.6350   12.0880   21.6010 O.co2  55  GLU55      -0.2457
     51  OE2       27.3830   11.6990   22.8730 O.co2  55  GLU55      -0.2457
     52  N         16.4780    4.7090   26.1040 N.3    61  PHE61      -0.1227
     53  CA        15.3720    5.2130   25.3120 C.3    61  PHE61       0.1736
     54  C         14.7050    4.1030   24.5240 C.2    61  PHE61       0.2595
     55  O         13.4780    4.0030   24.5220 O.2    61  PHE61      -0.2718
     56  CB        15.8750    6.2960   24.3620 C.3    61  PHE61       0.0547
     57  CG        14.8300    6.8240   23.4110 C.ar   61  PHE61      -0.0202
     58  CD1       13.8650    7.7300   23.8430 C.ar   61  PHE61      -0.0042
     59  CD2       14.8390    6.4450   22.0630 C.ar   61  PHE61      -0.0042
     60  CE1       12.9080    8.2360   22.9460 C.ar   61  PHE61      -0.0003
     61  CE2       13.8910    6.9420   21.1710 C.ar   61  PHE61      -0.0003
     62  CZ        12.9270    7.8340   21.6110 C.ar   61  PHE61      -0.0000
     63  N         15.5180    3.2760   23.8650 N.am   62  GLN62      -0.1979
     64  CA        15.0100    2.2290   22.9960 C.3    62  GLN62       0.1601
     65  C         14.3550    1.1380   23.8050 C.2    62  GLN62       0.2287
     66  O         13.3460    0.5890   23.4080 O.2    62  GLN62      -0.2864
     67  CB        16.1280    1.6480   22.1340 C.3    62  GLN62       0.0394
     68  CG        16.5680    2.5630   20.9950 C.3    62  GLN62       0.0908
     69  CD        15.4740    2.7770   19.9500 C.2    62  GLN62       0.2608
     70  OE1       14.6050    1.9160   19.7450 O.2    62  GLN62      -0.2717
     71  NE2       15.5130    3.9280   19.2850 N.am   62  GLN62      -0.0878
     72  N         15.2030    1.4610   14.0200 N.3   102  PHE102     -0.1241
     73  CA        15.6450    2.5020   14.9330 C.3   102  PHE102      0.1605
     74  C         16.8030    2.1310   15.8570 C.2   102  PHE102      0.2264
     75  O         17.8520    2.7800   15.8070 O.2   102  PHE102     -0.2867
     76  CB        14.4550    3.1280   15.6740 C.3   102  PHE102      0.0534
     77  CG        13.4820    3.8180   14.7560 C.ar  102  PHE102     -0.0203
     78  CD1       12.3430    3.1620   14.3080 C.ar  102  PHE102     -0.0042
     79  CD2       13.7210    5.1170   14.3110 C.ar  102  PHE102     -0.0042
     80  CE1       11.4480    3.7890   13.4370 C.ar  102  PHE102     -0.0003
     81  CE2       12.8370    5.7490   13.4540 C.ar  102  PHE102     -0.0003
     82  CZ        11.6970    5.0810   13.0140 C.ar  102  PHE102     -0.0000
     83  N         19.7610    1.4710   13.7430 N.3   105  ASN105     -0.1225
     84  CA        20.3540    2.6860   13.2050 C.3   105  ASN105      0.1785
     85  C         21.1530    3.4640   14.2530 C.2   105  ASN105      0.2597
     86  O         22.1410    4.1340   13.9390 O.2   105  ASN105     -0.2718
     87  CB        19.2390    3.5490   12.6000 C.3   105  ASN105      0.1169
     88  CG        19.6240    4.9920   12.4560 C.2   105  ASN105      0.2627
     89  OD1       19.3150    5.8130   13.3200 O.2   105  ASN105     -0.2716
     90  ND2       20.3010    5.3190   11.3650 N.am  105  ASN105     -0.0877
     91  N         20.7100    3.3710   15.5000 N.am  106  LEU106     -0.1980
     92  CA        21.4170    4.0010   16.6030 C.3   106  LEU106      0.1596
     93  C         22.7480    3.3320   16.8970 C.2   106  LEU106      0.2287
     94  O         23.7240    4.0040   17.2260 O.2   106  LEU106     -0.2864
     95  CB        20.5450    4.0190   17.8440 C.3   106  LEU106      0.0297
     96  CG        19.5090    5.1350   17.8170 C.3   106  LEU106      0.0022
     97  CD1       18.6060    4.9820   19.0310 C.3   106  LEU106      0.0001
     98  CD2       20.1960    6.4870   17.8030 C.3   106  LEU106      0.0001
     99  N         25.1800    4.1520   14.1010 N.3   109  SER109     -0.1202
    100  CA        25.6510    5.5350   14.2310 C.3   109  SER109      0.2020
    101  C         26.4920    5.7610   15.4960 C.2   109  SER109      0.2619
    102  O         26.8310    6.9000   15.8400 O.2   109  SER109     -0.2717
    103  CB        24.4690    6.5050   14.1830 C.3   109  SER109      0.2103
    104  OG        23.6980    6.2940   13.0070 O.3   109  SER109     -0.2182
    105  N         26.8200    4.6570   16.1690 N.am  110  GLU110     -0.1965
    106  CA        27.6530    4.6360   17.3820 C.3   110  GLU110      0.1733
    107  C         27.0390    5.2970   18.6130 C.2   110  GLU110      0.2616
    108  O         27.7490    5.7980   19.4770 O.2   110  GLU110     -0.2715
    109  CB        29.0530    5.1970   17.1130 C.3   110  GLU110      0.0429
    110  CG        29.9420    4.2960   16.2620 C.3   110  GLU110      0.1163
    111  CD        31.2550    4.9770   15.9200 C.2   110  GLU110      0.3649
    112  OE1       32.1820    4.9580   16.7680 O.co2 110  GLU110     -0.2457
    113  OE2       31.3560    5.5450   14.8050 O.co2 110  GLU110     -0.2457
    114  N         25.7170    5.2840   18.6910 N.am  111  CYS111     -0.1968
    115  CA        25.0290    5.7890   19.8710 C.3   111  CYS111      0.1712
    116  C         24.7860    4.6700   20.8730 C.2   111  CYS111      0.2296
    117  O         24.4230    4.9170   22.0150 O.2   111  CYS111     -0.2864
    118  CB        23.7330    6.4690   19.4640 C.3   111  CYS111      0.0983
    119  SG        24.0640    7.8910   18.4140 S.3   111  CYS111     -0.0798
    120  N         20.3530   11.1520    7.4650 N.3   169  TYR169     -0.1241
    121  CA        19.6940   10.2690    8.4300 C.3   169  TYR169      0.1605
    122  C         18.3810    9.7060    7.8600 C.2   169  TYR169      0.2264
    123  O         18.1320    8.4950    7.9230 O.2   169  TYR169     -0.2867
    124  CB        19.4530   11.0170    9.7420 C.3   169  TYR169      0.0534
    125  CG        18.5630   10.3090   10.7330 C.ar  169  TYR169     -0.0201
    126  CD1       19.0140    9.1840   11.4510 C.ar  169  TYR169     -0.0009
    127  CD2       17.2780   10.7760   10.9880 C.ar  169  TYR169     -0.0009
    128  CE1       18.1820    8.5370   12.3790 C.ar  169  TYR169      0.0417
    129  CE2       16.4560   10.1420   11.9130 C.ar  169  TYR169      0.0417
    130  CZ        16.9090    9.0290   12.6040 C.ar  169  TYR169      0.1957
    131  OH        16.0730    8.4210   13.5150 O.3   169  TYR169     -0.2866
@<TRIPOS>BOND
     1   120   121    1
     2   122   123    2
     3   122   121    1
     4   121   124    1
     5   124   125    1
     6   125   127   ar
     7   125   126   ar
     8   127   129   ar
     9    90    88   am
    10   126   128   ar
    11   129   130   ar
    12   128   130   ar
    13    88    87    1
    14    88    89    2
    15    87    84    1
    16   130   131    1
    17   104   103    1
    18    82    80   ar
    19    82    81   ar
    20    84    83    1
    21    84    85    1
    22    80    78   ar
    23    81    79   ar
    24    86    85    2
    25    72    73    1
    26    99   100    1
    27   103   100    1
    28   100   101    1
    29    85    91   am
    30    78    77   ar
    31    79    77   ar
    32    77    76    1
    33   113   111   ar
    34    73    76    1
    35    73    74    1
    36   101   102    2
    37   101   105   am
    38    91    92    1
    39    75    74    2
    40   111   110    1
    41   111   112   ar
    42   105   106    1
    43   110   109    1
    44    92    93    1
    45    92    95    1
    46    93    94    2
    47   109   106    1
    48   106   107    1
    49    98    96    1
    50    96    95    1
    51    96    97    1
    52   119   118    1
    53   107   114   am
    54   107   108    2
    55   114   115    1
    56    71    69   am
    57   118   115    1
    58    70    69    2
    59     6     5    1
    60   115   116    1
    61    69    68    1
    62     5     7    1
    63     5     2    1
    64    33    31   ar
    65    33    34   ar
    66     3     4    2
    67     3     2    1
    68    41    40    1
    69    41    42    1
    70    35    34    1
    71    40    37    1
    72   116   117    2
    73    68    67    1
    74    31    29   ar
    75    61    62   ar
    76    61    59   ar
    77    34    32   ar
    78     2     1    1
    79    23    22    1
    80    48    49    1
    81    48    47    1
    82    50    49   ar
    83    62    60   ar
    84    42    36    1
    85    49    51   ar
    86    59    57   ar
    87    67    64    1
    88    27    26    2
    89    14    13    1
    90    37    38    1
    91    37    36    1
    92    19    18    2
    93    29    28    1
    94    29    30   ar
    95    32    30   ar
    96    47    44    1
    97    38    43   am
    98    38    39    2
    99    43    44    1
   100    25    28    1
   101    25    26    1
   102    25    24    1
   103    44    45    1
   104    60    58   ar
   105    22    21    1
   106    64    65    1
   107    64    63    1
   108    18    24   am
   109    18    17    1
   110    20    21    1
   111    20    17    1
   112    15    13    1
   113    13    12    1
   114    66    65    2
   115    57    58   ar
   116    57    56    1
   117    63    54   am
   118    17    16    1
   119    45    46    2
   120    56    53    1
   121    11    10    2
   122    55    54    2
   123    54    53    1
   124    12     9    1
   125     9    10    1
   126     9     8    1
   127    53    52    1
