@<TRIPOS>MOLECULE
tmp/3ipyA01.pdb
 183 172 0 0 0
SMALL
GASTEIGER

@<TRIPOS>ATOM
      1  N         10.2300    9.0620    9.3790 N.3    11  ILE11      -0.1245
      2  CA         9.8620   10.1630   10.2400 C.3    11  ILE11       0.1561
      3  C          9.0280   11.1830    9.4860 C.2    11  ILE11       0.2260
      4  O          9.3500   11.5490    8.3650 O.2    11  ILE11      -0.2867
      5  CB        11.1330   10.7910   10.8450 C.3    11  ILE11       0.0252
      6  CG1       11.6880    9.8330   11.8860 C.3    11  ILE11       0.0019
      7  CG2       10.8490   12.1230   11.5170 C.3    11  ILE11       0.0019
      8  CD1       13.1450    9.6920   11.7880 C.3    11  ILE11       0.0001
      9  N          1.7020    5.2500   19.1300 N.3    34  GLU34      -0.1245
     10  CA         3.0860    4.9020   19.3720 C.3    34  GLU34       0.1567
     11  C          3.5820    5.6950   20.5700 C.2    34  GLU34       0.2260
     12  O          3.3020    6.8850   20.6710 O.2    34  GLU34      -0.2867
     13  CB         3.8880    5.2920   18.1400 C.3    34  GLU34       0.0388
     14  CG         5.1280    4.5050   17.8940 C.3    34  GLU34       0.1160
     15  CD         5.9400    5.0960   16.7760 C.2    34  GLU34       0.3649
     16  OE1        7.1510    4.8320   16.7390 O.co2  34  GLU34      -0.2457
     17  OE2        5.3780    5.8320   15.9320 O.co2  34  GLU34      -0.2457
     18  N          6.7290    6.8270   21.5770 N.3    36  VAL36      -0.1245
     19  CA         7.5600    7.9700   21.1940 C.3    36  VAL36       0.1561
     20  C          6.7150    9.0620   20.5200 C.2    36  VAL36       0.2260
     21  O          7.0110   10.2550   20.6490 O.2    36  VAL36      -0.2867
     22  CB         8.7550    7.5370   20.2870 C.3    36  VAL36       0.0252
     23  CG1        9.6040    8.7440   19.8530 C.3    36  VAL36       0.0019
     24  CG2        9.6280    6.5150   21.0000 C.3    36  VAL36       0.0019
     25  N          6.6280   12.8870   22.2440 N.3    40  CYS40      -0.1235
     26  CA         6.9490   14.1100   21.4960 C.3    40  CYS40       0.1677
     27  C          5.9060   15.2250   21.6660 C.2    40  CYS40       0.2270
     28  O          4.6990   14.9800   21.5700 O.2    40  CYS40      -0.2867
     29  CB         7.2430   13.7820   20.0300 C.3    40  CYS40       0.0956
     30  SG         8.7620   12.7430   19.8010 S.3    40  CYS40      -0.0801
     31  N         13.1810   11.0540   26.3740 N.3    47  LEU47      -0.1245
     32  CA        13.1600   11.8040   25.1310 C.3    47  LEU47       0.1561
     33  C         14.0120   13.0590   25.2390 C.2    47  LEU47       0.2260
     34  O         14.8690   13.3000   24.3840 O.2    47  LEU47      -0.2867
     35  CB        11.7280   12.1640   24.7480 C.3    47  LEU47       0.0270
     36  CG        11.5240   12.8360   23.3950 C.3    47  LEU47       0.0019
     37  CD1       11.8580   11.8790   22.2630 C.3    47  LEU47       0.0001
     38  CD2       10.0980   13.3240   23.2880 C.3    47  LEU47       0.0001
     39  N         17.4530   14.1350   23.3200 N.3    51  TYR51      -0.1241
     40  CA        17.7260   15.3940   22.6380 C.3    51  TYR51       0.1605
     41  C         19.0810   15.9500   23.0630 C.2    51  TYR51       0.2264
     42  O         19.8340   16.4470   22.2370 O.2    51  TYR51      -0.2867
     43  CB        16.6240   16.4250   22.9090 C.3    51  TYR51       0.0534
     44  CG        15.2680   16.1210   22.2980 C.ar   51  TYR51      -0.0201
     45  CD1       14.0940   16.4140   22.9980 C.ar   51  TYR51      -0.0009
     46  CD2       15.1530   15.5530   21.0240 C.ar   51  TYR51      -0.0009
     47  CE1       12.8390   16.1510   22.4470 C.ar   51  TYR51       0.0417
     48  CE2       13.9040   15.2830   20.4650 C.ar   51  TYR51       0.0417
     49  CZ        12.7480   15.5840   21.1760 C.ar   51  TYR51       0.1957
     50  OH        11.4960   15.3250   20.6270 O.3    51  TYR51      -0.2866
     51  N         22.3090   11.5190   22.7380 N.3    54  PRO54      -0.2116
     52  CA        21.8730   10.2070   22.2760 C.3    54  PRO54       0.1372
     53  C         22.8700    9.0860   22.5740 C.2    54  PRO54       0.2244
     54  O         22.4570    7.9510   22.7850 O.2    54  PRO54      -0.2868
     55  CB        21.7400   10.3920   20.7560 C.3    54  PRO54       0.0268
     56  CG        21.6760   11.8470   20.5410 C.3    54  PRO54       0.0207
     57  CD        22.5020   12.4510   21.6120 C.3    54  PRO54       0.0892
     58  N         16.4780    4.7090   26.1040 N.3    61  PHE61      -0.1227
     59  CA        15.3720    5.2130   25.3120 C.3    61  PHE61       0.1736
     60  C         14.7050    4.1030   24.5240 C.2    61  PHE61       0.2595
     61  O         13.4780    4.0030   24.5220 O.2    61  PHE61      -0.2718
     62  CB        15.8750    6.2960   24.3620 C.3    61  PHE61       0.0547
     63  CG        14.8300    6.8240   23.4110 C.ar   61  PHE61      -0.0202
     64  CD1       13.8650    7.7300   23.8430 C.ar   61  PHE61      -0.0042
     65  CD2       14.8390    6.4450   22.0630 C.ar   61  PHE61      -0.0042
     66  CE1       12.9080    8.2360   22.9460 C.ar   61  PHE61      -0.0003
     67  CE2       13.8910    6.9420   21.1710 C.ar   61  PHE61      -0.0003
     68  CZ        12.9270    7.8340   21.6110 C.ar   61  PHE61      -0.0000
     69  N         15.5180    3.2760   23.8650 N.am   62  GLN62      -0.1979
     70  CA        15.0100    2.2290   22.9960 C.3    62  GLN62       0.1601
     71  C         14.3550    1.1380   23.8050 C.2    62  GLN62       0.2287
     72  O         13.3460    0.5890   23.4080 O.2    62  GLN62      -0.2864
     73  CB        16.1280    1.6480   22.1340 C.3    62  GLN62       0.0394
     74  CG        16.5680    2.5630   20.9950 C.3    62  GLN62       0.0908
     75  CD        15.4740    2.7770   19.9500 C.2    62  GLN62       0.2608
     76  OE1       14.6050    1.9160   19.7450 O.2    62  GLN62      -0.2717
     77  NE2       15.5130    3.9280   19.2850 N.am   62  GLN62      -0.0878
     78  N         10.9710    2.6570   25.1550 N.3    65  ALA65      -0.1245
     79  CA        10.0650    2.8090   24.0060 C.3    65  ALA65       0.1562
     80  C          9.4150    1.4790   23.6580 C.2    65  ALA65       0.2260
     81  O          8.2000    1.3920   23.4700 O.2    65  ALA65      -0.2867
     82  CB        10.8100    3.3480   22.7890 C.3    65  ALA65       0.0290
     83  N          5.5480    0.1930   24.1000 N.3    69  ARG69      -0.1245
     84  CA         4.8340   -0.3270   22.9430 C.3    69  ARG69       0.1563
     85  C          4.2150   -1.6910   23.2320 C.2    69  ARG69       0.2260
     86  O          3.0390   -1.9140   22.9650 O.2    69  ARG69      -0.2867
     87  CB         5.7550   -0.4220   21.7270 C.3    69  ARG69       0.0307
     88  CG         5.0760   -1.0180   20.5020 C.3    69  ARG69       0.0489
     89  CD         6.0670   -1.4120   19.4130 C.3    69  ARG69       0.2205
     90  NE         6.8530   -0.2700   18.9410 N.pl3  69  ARG69      -0.0865
     91  CZ         6.3470    0.7940   18.3180 C.cat  69  ARG69       0.5346
     92  NH1        5.0410    0.8850   18.0820 N.pl3  69  ARG69       0.1354
     93  NH2        7.1510    1.7780   17.9400 N.pl3  69  ARG69       0.1354
     94  N          3.5150    1.8010   13.9560 N.3    93  ARG93      -0.1245
     95  CA         4.8020    1.0850   13.9820 C.3    93  ARG93       0.1563
     96  C          4.7450   -0.2350   14.7700 C.2    93  ARG93       0.2260
     97  O          3.6670   -0.6790   15.1700 O.2    93  ARG93      -0.2867
     98  CB         5.9260    1.9870   14.4980 C.3    93  ARG93       0.0307
     99  CG         6.3110    3.0950   13.5490 C.3    93  ARG93       0.0489
    100  CD         7.7450    3.5050   13.7790 C.3    93  ARG93       0.2205
    101  NE         8.2160    4.4190   12.7530 N.pl3  93  ARG93      -0.0865
    102  CZ         8.2850    5.7410   12.8900 C.cat  93  ARG93       0.5346
    103  NH1        7.9160    6.3260   14.0310 N.pl3  93  ARG93       0.1354
    104  NH2        8.7360    6.4790   11.8820 N.pl3  93  ARG93       0.1354
    105  N         11.0720   -0.8580   15.6890 N.3    98  ASP98      -0.1239
    106  CA        11.7920   -0.5220   16.9170 C.3    98  ASP98       0.1674
    107  C         13.2190   -1.0270   16.8550 C.2    98  ASP98       0.2266
    108  O         14.1750   -0.2830   17.1070 O.2    98  ASP98      -0.2867
    109  CB        11.1070   -1.1520   18.1320 C.3    98  ASP98       0.1410
    110  CG         9.9960   -0.2930   18.6880 C.2    98  ASP98       0.3668
    111  OD1        9.7610    0.8050   18.1460 O.co2  98  ASP98      -0.2456
    112  OD2        9.3440   -0.7150   19.6710 O.co2  98  ASP98      -0.2456
    113  N         15.2030    1.4610   14.0200 N.3   102  PHE102     -0.1241
    114  CA        15.6450    2.5020   14.9330 C.3   102  PHE102      0.1605
    115  C         16.8030    2.1310   15.8570 C.2   102  PHE102      0.2264
    116  O         17.8520    2.7800   15.8070 O.2   102  PHE102     -0.2867
    117  CB        14.4550    3.1280   15.6740 C.3   102  PHE102      0.0534
    118  CG        13.4820    3.8180   14.7560 C.ar  102  PHE102     -0.0203
    119  CD1       12.3430    3.1620   14.3080 C.ar  102  PHE102     -0.0042
    120  CD2       13.7210    5.1170   14.3110 C.ar  102  PHE102     -0.0042
    121  CE1       11.4480    3.7890   13.4370 C.ar  102  PHE102     -0.0003
    122  CE2       12.8370    5.7490   13.4540 C.ar  102  PHE102     -0.0003
    123  CZ        11.6970    5.0810   13.0140 C.ar  102  PHE102     -0.0000
    124  N          8.5700   20.9280   15.2780 N.3   159  ARG159     -0.1245
    125  CA         9.1830   20.5660   16.5580 C.3   159  ARG159      0.1563
    126  C         10.5960   21.0880   16.5630 C.2   159  ARG159      0.2260
    127  O         11.4140   20.6740   15.7470 O.2   159  ARG159     -0.2867
    128  CB         9.1880   19.0600   16.7810 C.3   159  ARG159      0.0307
    129  CG         7.8300   18.4750   17.0720 C.3   159  ARG159      0.0489
    130  CD         7.9620   16.9960   17.1780 C.3   159  ARG159      0.2205
    131  NE         6.6740   16.3230   17.2150 N.pl3 159  ARG159     -0.0865
    132  CZ         6.4970   15.0480   16.8830 C.cat 159  ARG159      0.5346
    133  NH1        7.5330   14.3080   16.4810 N.pl3 159  ARG159      0.1354
    134  NH2        5.2860   14.5070   16.9540 N.pl3 159  ARG159      0.1354
    135  N         13.1150   20.6570   18.3920 N.3   161  GLU161     -0.1231
    136  CA        14.1710   19.6830   18.6520 C.3   161  GLU161      0.1699
    137  C         14.4880   18.7690   17.4650 C.2   161  GLU161      0.2592
    138  O         15.4290   17.9660   17.5210 O.2   161  GLU161     -0.2718
    139  CB        13.8430   18.8560   19.9010 C.3   161  GLU161      0.0402
    140  CG        14.2690   19.5250   21.2050 C.3   161  GLU161      0.1161
    141  CD        15.7860   19.6650   21.3300 C.2   161  GLU161      0.3649
    142  OE1       16.5320   19.0180   20.5520 O.co2 161  GLU161     -0.2457
    143  OE2       16.2340   20.4280   22.2110 O.co2 161  GLU161     -0.2457
    144  N         13.7090   18.9000   16.3960 N.am  162  GLU162     -0.1979
    145  CA        13.8580   18.0440   15.2280 C.3   162  GLU162      0.1602
    146  C         14.4340   18.7600   14.0250 C.2   162  GLU162      0.2287
    147  O         14.7040   18.1350   13.0110 O.2   162  GLU162     -0.2864
    148  CB        12.5190   17.4150   14.8550 C.3   162  GLU162      0.0415
    149  CG        12.1840   16.1880   15.6550 C.3   162  GLU162      0.1163
    150  CD        10.8100   15.6620   15.3390 C.2   162  GLU162      0.3649
    151  OE1       10.2310   16.0890   14.3170 O.co2 162  GLU162     -0.2457
    152  OE2       10.3100   14.8190   16.1160 O.co2 162  GLU162     -0.2457
    153  N         17.2610   19.8750   13.6130 N.3   164  GLY164     -0.1210
    154  CA        18.6260   19.4350   13.3670 C.3   164  GLY164      0.1956
    155  C         18.7540   18.1480   12.5580 C.2   164  GLY164      0.2612
    156  O         19.8780   17.7330   12.2310 O.2   164  GLY164     -0.2717
    157  N         17.6230   17.5140   12.2290 N.am  165  ILE165     -0.1966
    158  CA        17.6400   16.2360   11.5030 C.3   165  ILE165      0.1712
    159  C         18.2000   16.3950   10.0870 C.2   165  ILE165      0.2458
    160  O         17.6450   17.1360    9.2680 O.2   165  ILE165     -0.2730
    161  CB        16.2560   15.5140   11.4930 C.3   165  ILE165      0.0289
    162  CG1       15.8950   15.0240   12.9000 C.3   165  ILE165      0.0022
    163  CG2       16.2780   14.3210   10.5450 C.3   165  ILE165      0.0023
    164  CD1       14.4480   14.5820   13.0630 C.3   165  ILE165      0.0001
    165  N         19.3230   15.7190    9.8060 N.am  166  PRO166     -0.2727
    166  CA        19.8770   15.7830    8.4530 C.3   166  PRO166      0.1402
    167  C         19.1520   14.8590    7.4870 C.2   166  PRO166      0.2269
    168  O         18.6310   13.8190    7.8830 O.2   166  PRO166     -0.2865
    169  CB        21.3270   15.3240    8.6420 C.3   166  PRO166      0.0296
    170  CG        21.3000   14.4400    9.8460 C.3   166  PRO166      0.0237
    171  CD        20.1360   14.8840   10.7140 C.3   166  PRO166      0.0939
    172  N         20.3530   11.1520    7.4650 N.3   169  TYR169     -0.1241
    173  CA        19.6940   10.2690    8.4300 C.3   169  TYR169      0.1605
    174  C         18.3810    9.7060    7.8600 C.2   169  TYR169      0.2264
    175  O         18.1320    8.4950    7.9230 O.2   169  TYR169     -0.2867
    176  CB        19.4530   11.0170    9.7420 C.3   169  TYR169      0.0534
    177  CG        18.5630   10.3090   10.7330 C.ar  169  TYR169     -0.0201
    178  CD1       19.0140    9.1840   11.4510 C.ar  169  TYR169     -0.0009
    179  CD2       17.2780   10.7760   10.9880 C.ar  169  TYR169     -0.0009
    180  CE1       18.1820    8.5370   12.3790 C.ar  169  TYR169      0.0417
    181  CE2       16.4560   10.1420   11.9130 C.ar  169  TYR169      0.0417
    182  CZ        16.9090    9.0290   12.6040 C.ar  169  TYR169      0.1957
    183  OH        16.0730    8.4210   13.5150 O.3   169  TYR169     -0.2866
@<TRIPOS>BOND
     1   172   173    1
     2   167   168    2
     3   167   166    1
     4   174   175    2
     5   174   173    1
     6     4     3    2
     7   173   176    1
     8   166   169    1
     9   166   165    1
    10   169   170    1
    11   160   159    2
    12     1     2    1
    13     3     2    1
    14   176   177    1
    15   165   159   am
    16   165   171    1
    17   170   171    1
    18   159   158    1
    19     2     5    1
    20   163   161    1
    21   177   179   ar
    22   177   178   ar
    23     5     7    1
    24     5     6    1
    25   179   181   ar
    26   178   180   ar
    27   161   158    1
    28   161   162    1
    29   158   157    1
    30     8     6    1
    31   104   102    1
    32   181   182   ar
    33   157   155   am
    34   156   155    2
    35   180   182   ar
    36   155   154    1
    37   182   183    1
    38   101   102    2
    39   101   100    1
    40   102   103    1
    41   162   164    1
    42   147   146    2
    43   123   121   ar
    44   123   122   ar
    45   154   153    1
    46   121   119   ar
    47   122   120   ar
    48    99   100    1
    49    99    98    1
    50    94    95    1
    51    95    98    1
    52    95    96    1
    53   113   114    1
    54   146   145    1
    55   119   118   ar
    56   120   118   ar
    57   151   150   ar
    58   118   117    1
    59    96    97    2
    60   148   145    1
    61   148   149    1
    62   114   117    1
    63   114   115    1
    64   145   144    1
    65   124   125    1
    66   150   149    1
    67   150   152   ar
    68   105   106    1
    69   127   126    2
    70   116   115    2
    71    17    15   ar
    72   144   137   am
    73   133   132    1
    74   125   126    1
    75   125   128    1
    76    16    15   ar
    77    15    14    1
    78   128   129    1
    79   107   106    1
    80   107   108    2
    81   132   134    1
    82   132   131    2
    83   106   109    1
    84   129   130    1
    85   130   131    1
    86   137   138    2
    87   137   136    1
    88    14    13    1
    89    93    91    1
    90    92    91    1
    91   109   110    1
    92    13    10    1
    93   111   110   ar
    94    91    90    2
    95   135   136    1
    96   136   139    1
    97   110   112   ar
    98    90    89    1
    99     9    10    1
   100    77    75   am
   101    10    11    1
   102    89    88    1
   103    76    75    2
   104    30    29    1
   105    23    22    1
   106   139   140    1
   107    75    74    1
   108    29    26    1
   109    22    24    1
   110    22    19    1
   111    48    46   ar
   112    48    49   ar
   113    88    87    1
   114    20    21    2
   115    20    19    1
   116    56    55    1
   117    56    57    1
   118   142   141   ar
   119    11    12    2
   120    50    49    1
   121    55    52    1
   122    74    73    1
   123    46    44   ar
   124    67    68   ar
   125    67    65   ar
   126    49    47   ar
   127    19    18    1
   128   140   141    1
   129   141   143   ar
   130    26    27    1
   131    26    25    1
   132    28    27    2
   133    68    66   ar
   134    57    51    1
   135    87    84    1
   136    65    63   ar
   137    73    70    1
   138    42    41    2
   139    37    36    1
   140    52    53    1
   141    52    51    1
   142    44    43    1
   143    44    45   ar
   144    47    45   ar
   145    53    54    2
   146    40    43    1
   147    40    41    1
   148    40    39    1
   149    82    79    1
   150    84    85    1
   151    84    83    1
   152    66    64   ar
   153    86    85    2
   154    70    71    1
   155    70    69    1
   156    38    36    1
   157    36    35    1
   158    72    71    2
   159    63    64   ar
   160    63    62    1
   161    81    80    2
   162    80    79    1
   163    69    60   am
   164    79    78    1
   165    62    59    1
   166    34    33    2
   167    61    60    2
   168    60    59    1
   169    35    32    1
   170    32    33    1
   171    32    31    1
   172    59    58    1
