@<TRIPOS>MOLECULE
tmp/3ipyA00.pdb
 117 108 0 0 0
SMALL
GASTEIGER

@<TRIPOS>ATOM
      1  N         10.2300    9.0620    9.3790 N.3    11  ILE11      -0.1231
      2  CA         9.8620   10.1630   10.2400 C.3    11  ILE11       0.1692
      3  C          9.0280   11.1830    9.4860 C.2    11  ILE11       0.2591
      4  O          9.3500   11.5490    8.3650 O.2    11  ILE11      -0.2718
      5  CB        11.1330   10.7910   10.8450 C.3    11  ILE11       0.0266
      6  CG1       11.6880    9.8330   11.8860 C.3    11  ILE11       0.0019
      7  CG2       10.8490   12.1230   11.5170 C.3    11  ILE11       0.0020
      8  CD1       13.1450    9.6920   11.7880 C.3    11  ILE11       0.0001
      9  N          7.9420   11.6240   10.1090 N.am   12  ALA12      -0.1980
     10  CA         7.0200   12.5890    9.5130 C.3    12  ALA12       0.1597
     11  C          6.4070   12.1710    8.1550 C.2    12  ALA12       0.2287
     12  O          5.7680   12.9860    7.4990 O.2    12  ALA12      -0.2864
     13  CB         7.6750   13.9710    9.4180 C.3    12  ALA12       0.0319
     14  N          2.2640    8.9020    9.3940 N.3    15  LYS15      -0.1231
     15  CA         1.5820    7.8270   10.1290 C.3    15  LYS15       0.1693
     16  C          0.4110    8.3630   10.9530 C.2    15  LYS15       0.2592
     17  O         -0.6910    7.8260   10.8870 O.2    15  LYS15      -0.2718
     18  CB         2.5490    7.0970   11.0690 C.3    15  LYS15       0.0285
     19  CG         3.6570    6.3040   10.3900 C.3    15  LYS15       0.0035
     20  CD         4.9690    6.4890   11.1390 C.3    15  LYS15       0.0206
     21  CE         5.5720    7.8660   10.8150 C.3    15  LYS15       0.1093
     22  NZ         6.2710    8.4900   11.9760 N.3    15  LYS15      -0.1314
     23  N          0.6650    9.4210   11.7250 N.am   16  SER16      -0.1952
     24  CA        -0.3540   10.0300   12.5920 C.3    16  SER16       0.1924
     25  C         -1.5310   10.5920   11.7980 C.2    16  SER16       0.2314
     26  O         -2.6900   10.2680   12.1000 O.2    16  SER16      -0.2863
     27  CB         0.2570   11.1120   13.5000 C.3    16  SER16       0.2116
     28  OG         1.0230   10.5250   14.5530 O.3    16  SER16      -0.2180
     29  N          1.7020    5.2500   19.1300 N.3    34  GLU34      -0.1245
     30  CA         3.0860    4.9020   19.3720 C.3    34  GLU34       0.1567
     31  C          3.5820    5.6950   20.5700 C.2    34  GLU34       0.2260
     32  O          3.3020    6.8850   20.6710 O.2    34  GLU34      -0.2867
     33  CB         3.8880    5.2920   18.1400 C.3    34  GLU34       0.0388
     34  CG         5.1280    4.5050   17.8940 C.3    34  GLU34       0.1160
     35  CD         5.9400    5.0960   16.7760 C.2    34  GLU34       0.3649
     36  OE1        7.1510    4.8320   16.7390 O.co2  34  GLU34      -0.2457
     37  OE2        5.3780    5.8320   15.9320 O.co2  34  GLU34      -0.2457
     38  N          6.7290    6.8270   21.5770 N.3    36  VAL36      -0.1231
     39  CA         7.5600    7.9700   21.1940 C.3    36  VAL36       0.1696
     40  C          6.7150    9.0620   20.5200 C.2    36  VAL36       0.2631
     41  O          7.0110   10.2550   20.6490 O.2    36  VAL36      -0.2714
     42  CB         8.7550    7.5370   20.2870 C.3    36  VAL36       0.0266
     43  CG1        9.6040    8.7440   19.8530 C.3    36  VAL36       0.0020
     44  CG2        9.6280    6.5150   21.0000 C.3    36  VAL36       0.0020
     45  N          5.6660    8.6460   19.8090 N.am   37  ALA37      -0.1746
     46  CA         4.6880    9.5740   19.2390 C.2    37  ALA37       0.1155
     47  C          4.0290   10.4020   20.3500 C.2    37  ALA37       0.2507
     48  O          3.9830   11.6300   20.2720 O.2    37  ALA37      -0.2817
     49  CB         3.9210    9.3040   18.2570 C.2    37  ALA37       0.0214
     50  N          6.6280   12.8870   22.2440 N.3    40  CYS40      -0.1235
     51  CA         6.9490   14.1100   21.4960 C.3    40  CYS40       0.1677
     52  C          5.9060   15.2250   21.6660 C.2    40  CYS40       0.2270
     53  O          4.6990   14.9800   21.5700 O.2    40  CYS40      -0.2867
     54  CB         7.2430   13.7820   20.0300 C.3    40  CYS40       0.0956
     55  SG         8.7620   12.7430   19.8010 S.3    40  CYS40      -0.0801
     56  N          0.5760    1.8140   15.3400 N.3    92  GLU92      -0.1231
     57  CA         1.4960    2.8220   14.8510 C.3    92  GLU92       0.1699
     58  C          2.8930    2.2390   15.0520 C.2    92  GLU92       0.2592
     59  O          3.3720    2.1470   16.1830 O.2    92  GLU92      -0.2718
     60  CB         1.3170    4.1080   15.6400 C.3    92  GLU92       0.0402
     61  CG         1.5880    5.3650   14.8430 C.3    92  GLU92       0.1161
     62  CD         1.6080    6.6370   15.7090 C.2    92  GLU92       0.3649
     63  OE1        2.1930    7.6430   15.2450 O.co2  92  GLU92      -0.2457
     64  OE2        1.0570    6.6300   16.8430 O.co2  92  GLU92      -0.2457
     65  N          3.5150    1.8010   13.9560 N.am   93  ARG93      -0.1980
     66  CA         4.8020    1.0850   13.9820 C.3    93  ARG93       0.1597
     67  C          4.7450   -0.2350   14.7700 C.2    93  ARG93       0.2287
     68  O          3.6670   -0.6790   15.1700 O.2    93  ARG93      -0.2864
     69  CB         5.9260    1.9870   14.4980 C.3    93  ARG93       0.0334
     70  CG         6.3110    3.0950   13.5490 C.3    93  ARG93       0.0492
     71  CD         7.7450    3.5050   13.7790 C.3    93  ARG93       0.2205
     72  NE         8.2160    4.4190   12.7530 N.pl3  93  ARG93      -0.0865
     73  CZ         8.2850    5.7410   12.8900 C.cat  93  ARG93       0.5346
     74  NH1        7.9160    6.3260   14.0310 N.pl3  93  ARG93       0.1354
     75  NH2        8.7360    6.4790   11.8820 N.pl3  93  ARG93       0.1354
     76  N         15.2030    1.4610   14.0200 N.3   102  PHE102     -0.1241
     77  CA        15.6450    2.5020   14.9330 C.3   102  PHE102      0.1605
     78  C         16.8030    2.1310   15.8570 C.2   102  PHE102      0.2264
     79  O         17.8520    2.7800   15.8070 O.2   102  PHE102     -0.2867
     80  CB        14.4550    3.1280   15.6740 C.3   102  PHE102      0.0534
     81  CG        13.4820    3.8180   14.7560 C.ar  102  PHE102     -0.0203
     82  CD1       12.3430    3.1620   14.3080 C.ar  102  PHE102     -0.0042
     83  CD2       13.7210    5.1170   14.3110 C.ar  102  PHE102     -0.0042
     84  CE1       11.4480    3.7890   13.4370 C.ar  102  PHE102     -0.0003
     85  CE2       12.8370    5.7490   13.4540 C.ar  102  PHE102     -0.0003
     86  CZ        11.6970    5.0810   13.0140 C.ar  102  PHE102     -0.0000
     87  N          5.9230   20.3320   10.6980 N.3   157  ARG157     -0.1245
     88  CA         5.4040   19.8900   11.9820 C.3   157  ARG157      0.1563
     89  C          5.9340   20.8070   13.0970 C.2   157  ARG157      0.2260
     90  O          5.3050   20.9490   14.1550 O.2   157  ARG157     -0.2867
     91  CB         5.7730   18.4090   12.1860 C.3   157  ARG157      0.0307
     92  CG         5.6810   17.8410   13.5890 C.3   157  ARG157      0.0489
     93  CD         5.0770   16.4500   13.5740 C.3   157  ARG157      0.2205
     94  NE         5.9580   15.2670   13.4360 N.pl3 157  ARG157     -0.0865
     95  CZ         7.2830   15.2460   13.3070 C.cat 157  ARG157      0.5346
     96  NH1        7.8970   14.0810   13.2110 N.pl3 157  ARG157      0.1354
     97  NH2        8.0000   16.3630   13.2820 N.pl3 157  ARG157      0.1354
     98  N          8.5700   20.9280   15.2780 N.3   159  ARG159     -0.1245
     99  CA         9.1830   20.5660   16.5580 C.3   159  ARG159      0.1563
    100  C         10.5960   21.0880   16.5630 C.2   159  ARG159      0.2260
    101  O         11.4140   20.6740   15.7470 O.2   159  ARG159     -0.2867
    102  CB         9.1880   19.0600   16.7810 C.3   159  ARG159      0.0307
    103  CG         7.8300   18.4750   17.0720 C.3   159  ARG159      0.0489
    104  CD         7.9620   16.9960   17.1780 C.3   159  ARG159      0.2205
    105  NE         6.6740   16.3230   17.2150 N.pl3 159  ARG159     -0.0865
    106  CZ         6.4970   15.0480   16.8830 C.cat 159  ARG159      0.5346
    107  NH1        7.5330   14.3080   16.4810 N.pl3 159  ARG159      0.1354
    108  NH2        5.2860   14.5070   16.9540 N.pl3 159  ARG159      0.1354
    109  N         13.7090   18.9000   16.3960 N.3   162  GLU162     -0.1245
    110  CA        13.8580   18.0440   15.2280 C.3   162  GLU162      0.1567
    111  C         14.4340   18.7600   14.0250 C.2   162  GLU162      0.2260
    112  O         14.7040   18.1350   13.0110 O.2   162  GLU162     -0.2867
    113  CB        12.5190   17.4150   14.8550 C.3   162  GLU162      0.0388
    114  CG        12.1840   16.1880   15.6550 C.3   162  GLU162      0.1160
    115  CD        10.8100   15.6620   15.3390 C.2   162  GLU162      0.3649
    116  OE1       10.2310   16.0890   14.3170 O.co2 162  GLU162     -0.2457
    117  OE2       10.3100   14.8190   16.1160 O.co2 162  GLU162     -0.2457
@<TRIPOS>BOND
     1    12    11    2
     2    11    10    1
     3     4     3    2
     4     1     2    1
     5    14    15    1
     6    13    10    1
     7     3     9   am
     8     3     2    1
     9    10     9    1
    10    15    16    1
    11    15    18    1
    12     2     5    1
    13    19    18    1
    14    19    20    1
    15    87    88    1
    16    21    20    1
    17    21    22    1
    18     5     7    1
    19     5     6    1
    20    17    16    2
    21    16    23   am
    22    23    24    1
    23     8     6    1
    24    25    26    2
    25    25    24    1
    26    75    73    1
    27    88    91    1
    28    88    89    1
    29    91    92    1
    30    24    27    1
    31    72    73    2
    32    72    71    1
    33    73    74    1
    34   112   111    2
    35    86    84   ar
    36    86    85   ar
    37    89    90    2
    38    96    95    1
    39    97    95    1
    40    95    94    2
    41    94    93    1
    42    84    82   ar
    43    85    83   ar
    44    27    28    1
    45    70    71    1
    46    70    69    1
    47    93    92    1
    48    65    66    1
    49    65    58   am
    50    66    69    1
    51    66    67    1
    52    76    77    1
    53   111   110    1
    54    82    81   ar
    55    83    81   ar
    56   116   115   ar
    57    81    80    1
    58    67    68    2
    59    61    60    1
    60    61    62    1
    61    57    58    1
    62    57    56    1
    63    57    60    1
    64   113   110    1
    65   113   114    1
    66    77    80    1
    67    77    78    1
    68    58    59    2
    69   110   109    1
    70    63    62   ar
    71    98    99    1
    72   115   114    1
    73   115   117   ar
    74    62    64   ar
    75   101   100    2
    76    79    78    2
    77    37    35   ar
    78   107   106    1
    79    99   100    1
    80    99   102    1
    81    36    35   ar
    82    35    34    1
    83   102   103    1
    84   106   108    1
    85   106   105    2
    86   103   104    1
    87   104   105    1
    88    34    33    1
    89    33    30    1
    90    49    46    2
    91    29    30    1
    92    46    45    1
    93    46    47    1
    94    30    31    1
    95    55    54    1
    96    45    40   am
    97    43    42    1
    98    54    51    1
    99    48    47    2
   100    42    44    1
   101    42    39    1
   102    40    41    2
   103    40    39    1
   104    31    32    2
   105    39    38    1
   106    51    52    1
   107    51    50    1
   108    53    52    2
