@<TRIPOS>MOLECULE
tmp/3iq0B00.pdb
 183 170 0 0 0
SMALL
GASTEIGER

@<TRIPOS>ATOM
      1  N        -32.9410   71.5560    9.8020 N.3    98  ARG98      -0.1245
      2  CA       -31.6470   71.8240    9.1820 C.3    98  ARG98       0.1563
      3  C        -30.4900   71.5870   10.1580 C.2    98  ARG98       0.2260
      4  O        -29.3760   71.2980    9.7300 O.2    98  ARG98      -0.2867
      5  CB       -31.5460   73.2760    8.6980 C.3    98  ARG98       0.0307
      6  CG       -32.7350   73.8660    7.9450 C.3    98  ARG98       0.0489
      7  CD       -33.0060   75.2580    8.5320 C.3    98  ARG98       0.2205
      8  NE       -33.8200   76.1450    7.7050 N.pl3  98  ARG98      -0.0865
      9  CZ       -34.2270   77.3490    8.1010 C.cat  98  ARG98       0.5346
     10  NH1      -33.8940   77.7940    9.3090 N.pl3  98  ARG98       0.1354
     11  NH2      -34.9580   78.1140    7.2960 N.pl3  98  ARG98       0.1354
     12  N        -37.3210   93.3680    8.4700 N.3   159  ASP159     -0.1239
     13  CA       -37.6830   91.9600    8.3910 C.3   159  ASP159      0.1674
     14  C        -37.3630   91.3140    9.7420 C.2   159  ASP159      0.2266
     15  O        -36.2020   91.0780   10.0710 O.2   159  ASP159     -0.2867
     16  CB       -36.8830   91.2660    7.2890 C.3   159  ASP159      0.1410
     17  CG       -37.1550   89.7800    7.2250 C.2   159  ASP159      0.3668
     18  OD1      -37.6250   89.2100    8.2270 O.co2 159  ASP159     -0.2456
     19  OD2      -36.8800   89.1760    6.1710 O.co2 159  ASP159     -0.2456
     20  N        -36.8380   88.5190   11.2050 N.3   161  ASN161     -0.1240
     21  CA       -36.4310   87.1160   11.1830 C.3   161  ASN161      0.1653
     22  C        -35.6090   86.8210   12.4310 C.2   161  ASN161      0.2266
     23  O        -34.4760   86.3520   12.3480 O.2   161  ASN161     -0.2867
     24  CB       -35.6110   86.8150    9.9200 C.3   161  ASN161      0.1155
     25  CG       -34.2770   87.5390    9.8970 C.2   161  ASN161      0.2627
     26  OD1      -34.1830   88.6930   10.2960 O.2   161  ASN161     -0.2716
     27  ND2      -33.2380   86.8610    9.4110 N.am  161  ASN161     -0.0877
     28  N        -42.7380   87.1430    8.5150 N.3   186  SER186     -0.1217
     29  CA       -43.2040   85.9030    7.9270 C.3   186  SER186      0.1889
     30  C        -44.4810   85.5830    8.6980 C.2   186  SER186      0.2288
     31  O        -44.7240   86.1440    9.7650 O.2   186  SER186     -0.2866
     32  CB       -42.1820   84.7870    8.1230 C.3   186  SER186      0.2089
     33  OG       -41.9500   84.5420    9.4930 O.3   186  SER186     -0.2183
     34  N        -44.1820   85.1580   12.2890 N.3   189  GLU189     -0.1245
     35  CA       -43.5360   86.2450   13.0220 C.3   189  GLU189      0.1567
     36  C        -44.4450   87.4680   13.1440 C.2   189  GLU189      0.2260
     37  O        -44.0860   88.4450   13.7880 O.2   189  GLU189     -0.2867
     38  CB       -42.2360   86.6640   12.3190 C.3   189  GLU189      0.0388
     39  CG       -41.2950   85.5280   11.9740 C.3   189  GLU189      0.1160
     40  CD       -40.0890   85.9910   11.1650 C.2   189  GLU189      0.3649
     41  OE1      -40.2720   86.8210   10.2450 O.co2 189  GLU189     -0.2457
     42  OE2      -38.9640   85.5220   11.4470 O.co2 189  GLU189     -0.2457
     43  N        -45.0530   87.0830    4.3620 N.3   217  LYS217     -0.1231
     44  CA       -44.5710   85.9080    3.6480 C.3   217  LYS217      0.1693
     45  C        -45.2390   84.6810    4.2650 C.2   217  LYS217      0.2592
     46  O        -45.2490   84.5240    5.4840 O.2   217  LYS217     -0.2718
     47  CB       -43.0480   85.8290    3.7840 C.3   217  LYS217      0.0285
     48  CG       -42.3250   86.9410    3.0400 C.3   217  LYS217      0.0035
     49  CD       -40.9300   87.1680    3.5840 C.3   217  LYS217      0.0206
     50  CE       -40.9810   87.7910    4.9650 C.3   217  LYS217      0.1093
     51  NZ       -39.6240   88.0120    5.5270 N.3   217  LYS217     -0.1314
     52  N        -45.7980   83.8170    3.4250 N.am  218  ARG218     -0.1966
     53  CA       -46.5000   82.6360    3.9160 C.3   218  ARG218      0.1729
     54  C        -45.9180   81.3070    3.4530 C.2   218  ARG218      0.2617
     55  O        -46.6590   80.3770    3.1490 O.2   218  ARG218     -0.2715
     56  CB       -47.9760   82.7100    3.5090 C.3   218  ARG218      0.0348
     57  CG       -48.6880   83.9800    3.9450 C.3   218  ARG218      0.0492
     58  CD       -50.1370   83.9960    3.4730 C.3   218  ARG218      0.2205
     59  NE       -50.8270   85.2210    3.8740 N.pl3 218  ARG218     -0.0865
     60  CZ       -51.0140   85.5990    5.1350 C.cat 218  ARG218      0.5346
     61  NH1      -50.5650   84.8470    6.1360 N.pl3 218  ARG218      0.1354
     62  NH2      -51.6430   86.7380    5.3980 N.pl3 218  ARG218      0.1354
     63  N        -44.5930   81.2180    3.4110 N.am  219  GLY219     -0.1940
     64  CA       -43.9450   79.9870    2.9900 C.3   219  GLY219      0.2014
     65  C        -44.4690   79.4260    1.6820 C.2   219  GLY219      0.2638
     66  O        -44.4270   80.0940    0.6560 O.2   219  GLY219     -0.2714
     67  N        -44.9650   78.1930    1.7080 N.am  220  ASN220     -0.1972
     68  CA       -45.4790   77.5800    0.4930 C.3   220  ASN220      0.1688
     69  C        -46.9590   77.8480    0.2420 C.2   220  ASN220      0.2292
     70  O        -47.6490   77.0240   -0.3550 O.2   220  ASN220     -0.2864
     71  CB       -45.2290   76.0700    0.5030 C.3   220  ASN220      0.1181
     72  CG       -45.8690   75.3780    1.6850 C.2   220  ASN220      0.2629
     73  OD1      -47.0390   75.5990    1.9890 O.2   220  ASN220     -0.2716
     74  ND2      -45.1010   74.5250    2.3570 N.am  220  ASN220     -0.0877
     75  N        -47.8010   81.2640   -0.5850 N.3   222  GLY222     -0.1210
     76  CA       -47.7670   82.5890   -1.1760 C.3   222  GLY222      0.1956
     77  C        -47.3900   83.7030   -0.2200 C.2   222  GLY222      0.2611
     78  O        -46.6090   83.5090    0.7160 O.2   222  GLY222     -0.2717
     79  N        -47.9470   84.8850   -0.4620 N.am  223  ALA223     -0.1979
     80  CA       -47.6770   86.0450    0.3760 C.3   223  ALA223      0.1597
     81  C        -48.8130   87.0440    0.2520 C.2   223  ALA223      0.2287
     82  O        -49.5630   87.0210   -0.7190 O.2   223  ALA223     -0.2864
     83  CB       -46.3620   86.6980   -0.0350 C.3   223  ALA223      0.0319
     84  N        -48.7330   80.5820   -3.9760 N.3   236  SER236     -0.1202
     85  CA       -47.3580   80.1430   -4.1480 C.3   236  SER236      0.2020
     86  C        -47.2220   79.3710   -5.4520 C.2   236  SER236      0.2618
     87  O        -48.1840   78.7800   -5.9410 O.2   236  SER236     -0.2717
     88  CB       -46.9360   79.2370   -2.9900 C.3   236  SER236      0.2103
     89  OG       -47.6390   78.0110   -3.0390 O.3   236  SER236     -0.2182
     90  N        -46.0200   79.3880   -6.0140 N.am  237  TYR237     -0.1975
     91  CA       -45.7360   78.6630   -7.2430 C.3   237  TYR237      0.1639
     92  C        -45.2680   77.2900   -6.7820 C.2   237  TYR237      0.2290
     93  O        -44.4860   77.1880   -5.8420 O.2   237  TYR237     -0.2864
     94  CB       -44.6200   79.3630   -8.0230 C.3   237  TYR237      0.0560
     95  CG       -44.9870   80.7430   -8.5230 C.ar  237  TYR237     -0.0198
     96  CD1      -45.7230   80.9070   -9.6940 C.ar  237  TYR237     -0.0009
     97  CD2      -44.6170   81.8840   -7.8120 C.ar  237  TYR237     -0.0009
     98  CE1      -46.0840   82.1720  -10.1450 C.ar  237  TYR237      0.0417
     99  CE2      -44.9750   83.1550   -8.2510 C.ar  237  TYR237      0.0417
    100  CZ       -45.7070   83.2910   -9.4150 C.ar  237  TYR237      0.1957
    101  OH       -46.0730   84.5450   -9.8450 O.3   237  TYR237     -0.2866
    102  N        -43.0460   74.1650   -6.5860 N.3   239  VAL239     -0.1245
    103  CA       -41.6620   73.8520   -6.9430 C.3   239  VAL239      0.1561
    104  C        -41.0700   72.7690   -6.0470 C.2   239  VAL239      0.2260
    105  O        -41.5520   72.5420   -4.9340 O.2   239  VAL239     -0.2867
    106  CB       -40.7400   75.1030   -6.8400 C.3   239  VAL239      0.0252
    107  CG1      -41.2550   76.2180   -7.7340 C.3   239  VAL239      0.0019
    108  CG2      -40.6550   75.5720   -5.4000 C.3   239  VAL239      0.0019
    109  N        -38.8250   71.9760   -3.5880 N.3   241  GLU241     -0.1245
    110  CA       -38.0040   72.6120   -2.5620 C.3   241  GLU241      0.1567
    111  C        -36.7830   71.7840   -2.1760 C.2   241  GLU241      0.2260
    112  O        -36.8800   70.5780   -1.9540 O.2   241  GLU241     -0.2867
    113  CB       -38.8550   72.8830   -1.3220 C.3   241  GLU241      0.0388
    114  CG       -38.1280   73.6170   -0.2130 C.3   241  GLU241      0.1160
    115  CD       -39.0400   73.9140    0.9580 C.2   241  GLU241      0.3649
    116  OE1      -39.4000   72.9710    1.6940 O.co2 241  GLU241     -0.2457
    117  OE2      -39.4070   75.0920    1.1320 O.co2 241  GLU241     -0.2457
    118  N        -34.6470   75.8590    2.1030 N.3   244  PRO244     -0.2102
    119  CA       -35.4760   77.0220    2.4460 C.3   244  PRO244      0.1504
    120  C        -34.7180   78.2100    3.0450 C.2   244  PRO244      0.2576
    121  O        -35.2620   79.3050    3.1650 O.2   244  PRO244     -0.2718
    122  CB       -36.4780   76.4300    3.4230 C.3   244  PRO244      0.0282
    123  CG       -35.6210   75.4650    4.2010 C.3   244  PRO244      0.0208
    124  CD       -34.7810   74.7950    3.1180 C.3   244  PRO244      0.0893
    125  N        -33.4600   77.9850    3.4080 N.am  245  THR245     -0.1953
    126  CA       -32.6170   79.0060    4.0330 C.3   245  THR245      0.1897
    127  C        -32.6910   80.4580    3.5320 C.2   245  THR245      0.2313
    128  O        -32.8690   81.3850    4.3300 O.2   245  THR245     -0.2863
    129  CB       -31.1400   78.5700    4.0010 C.3   245  THR245      0.1794
    130  OG1      -30.9810   77.3940    4.7980 O.3   245  THR245     -0.2208
    131  CG2      -30.2370   79.6670    4.5450 C.3   245  THR245      0.0378
    132  N        -34.9230   81.7810    1.2170 N.3   247  ALA247     -0.1231
    133  CA       -36.2140   82.1820    0.6680 C.3   247  ALA247      0.1694
    134  C        -36.6560   83.5850    1.0910 C.2   247  ALA247      0.2593
    135  O        -36.8850   84.4540    0.2450 O.2   247  ALA247     -0.2718
    136  CB       -37.2720   81.1670    1.0630 C.3   247  ALA247      0.0304
    137  N        -36.7650   83.7960    2.4020 N.am  248  GLY248     -0.1942
    138  CA       -37.1940   85.0760    2.9310 C.3   248  GLY248      0.2014
    139  C        -36.2840   86.2320    2.5710 C.2   248  GLY248      0.2638
    140  O        -36.7600   87.3380    2.3050 O.2   248  GLY248     -0.2714
    141  N        -34.9770   85.9900    2.5760 N.am  249  ASP249     -0.1971
    142  CA       -34.0080   87.0330    2.2380 C.3   249  ASP249      0.1709
    143  C        -34.1450   87.4230    0.7650 C.2   249  ASP249      0.2293
    144  O        -34.0900   88.5980    0.4170 O.2   249  ASP249     -0.2864
    145  CB       -32.5800   86.5470    2.5100 C.3   249  ASP249      0.1436
    146  CG       -32.4070   85.9790    3.9170 C.2   249  ASP249      0.3671
    147  OD1      -33.1300   86.4220    4.8340 O.co2 249  ASP249     -0.2456
    148  OD2      -31.5310   85.1000    4.1080 O.co2 249  ASP249     -0.2456
    149  N        -36.8460   86.8830   -1.1360 N.3   251  PHE251     -0.1241
    150  CA       -38.1610   87.4910   -1.2850 C.3   251  PHE251      0.1605
    151  C        -38.0090   88.9740   -0.9350 C.2   251  PHE251      0.2264
    152  O        -38.5190   89.8440   -1.6390 O.2   251  PHE251     -0.2867
    153  CB       -39.1640   86.8540   -0.3080 C.3   251  PHE251      0.0534
    154  CG       -40.5230   87.5100   -0.3130 C.ar  251  PHE251     -0.0203
    155  CD1      -41.5670   86.9640   -1.0390 C.ar  251  PHE251     -0.0042
    156  CD2      -40.7420   88.6940    0.3790 C.ar  251  PHE251     -0.0042
    157  CE1      -42.8170   87.5820   -1.0860 C.ar  251  PHE251     -0.0003
    158  CE2      -41.9890   89.3280    0.3430 C.ar  251  PHE251     -0.0003
    159  CZ       -43.0280   88.7680   -0.3950 C.ar  251  PHE251     -0.0000
    160  N        -42.5940   86.9460   -4.6790 N.3   273  ASN273     -0.1240
    161  CA       -43.1260   85.6030   -4.4700 C.3   273  ASN273      0.1653
    162  C        -42.4120   84.5930   -5.3660 C.2   273  ASN273      0.2266
    163  O        -41.9900   83.5310   -4.9130 O.2   273  ASN273     -0.2867
    164  CB       -44.6370   85.6020   -4.7480 C.3   273  ASN273      0.1155
    165  CG       -45.2780   84.2440   -4.5290 C.2   273  ASN273      0.2627
    166  OD1      -44.9430   83.5270   -3.5890 O.2   273  ASN273     -0.2716
    167  ND2      -46.2270   83.8940   -5.3930 N.am  273  ASN273     -0.0877
    168  N        -38.6920   84.1120   -4.2340 N.3   276  GLY276     -0.1210
    169  CA       -38.5650   83.1870   -3.1290 C.3   276  GLY276      0.1956
    170  C        -38.7920   81.7540   -3.5750 C.2   276  GLY276      0.2611
    171  O        -38.1810   80.8300   -3.0430 O.2   276  GLY276     -0.2717
    172  N        -39.6750   81.5680   -4.5500 N.am  277  ALA277     -0.1979
    173  CA       -39.9830   80.2340   -5.0610 C.3   277  ALA277      0.1597
    174  C        -38.7590   79.6570   -5.7580 C.2   277  ALA277      0.2287
    175  O        -38.3940   78.5020   -5.5460 O.2   277  ALA277     -0.2864
    176  CB       -41.1490   80.3030   -6.0330 C.3   277  ALA277      0.0319
    177  N        -35.6700   78.5790   -3.2430 N.3   280  VAL280     -0.1245
    178  CA       -35.6800   77.2860   -2.5680 C.3   280  VAL280      0.1561
    179  C        -35.3810   76.0810   -3.4550 C.2   280  VAL280      0.2260
    180  O        -35.2410   74.9710   -2.9440 O.2   280  VAL280     -0.2867
    181  CB       -37.0350   77.0380   -1.8340 C.3   280  VAL280      0.0252
    182  CG1      -37.3720   78.2410   -0.9630 C.3   280  VAL280      0.0019
    183  CG2      -38.1490   76.7530   -2.8320 C.3   280  VAL280      0.0019
@<TRIPOS>BOND
     1    98    96   ar
     2    98   100   ar
     3   101   100    1
     4    96    95   ar
     5   100    99   ar
     6    95    94    1
     7    95    97   ar
     8    99    97   ar
     9    94    91    1
    10   107   106    1
    11    91    92    1
    12    91    90    1
    13   103   106    1
    14   103   102    1
    15   103   104    1
    16   106   108    1
    17    92    93    2
    18   104   105    2
    19   176   173    1
    20    90    86   am
    21    87    86    2
    22   174   175    2
    23   174   173    1
    24    86    85    1
    25   167   165   am
    26   162   163    2
    27   162   161    1
    28   173   172    1
    29   164   165    1
    30   164   161    1
    31   160   161    1
    32   172   170   am
    33   165   166    2
    34   168   169    1
    35    85    84    1
    36    85    88    1
    37   109   110    1
    38   170   169    1
    39   170   171    2
    40   179   180    2
    41   179   178    1
    42   177   178    1
    43    89    88    1
    44   183   181    1
    45   178   181    1
    46   110   111    1
    47   110   113    1
    48   111   112    2
    49   181   182    1
    50   152   151    2
    51   113   114    1
    52   150   149    1
    53   150   151    1
    54   150   153    1
    55    76    75    1
    56    76    77    1
    57   157   155   ar
    58   157   159   ar
    59   155   154   ar
    60    82    81    2
    61    79    77   am
    62    79    80    1
    63   159   158   ar
    64    70    69    2
    65   154   153    1
    66   154   156   ar
    67    77    78    2
    68   114   115    1
    69    83    80    1
    70    69    68    1
    71   135   134    2
    72    81    80    1
    73   158   156   ar
    74   144   143    2
    75    68    71    1
    76    68    67    1
    77    71    72    1
    78    66    65    2
    79   133   136    1
    80   133   134    1
    81   133   132    1
    82   143   142    1
    83   115   117   ar
    84   115   116   ar
    85   134   137   am
    86    65    67   am
    87    65    64    1
    88    72    73    2
    89    72    74   am
    90   118   119    1
    91   118   124    1
    92   142   145    1
    93   142   141    1
    94   140   139    2
    95   137   138    1
    96   119   120    1
    97   119   122    1
    98   145   146    1
    99   139   141   am
   100   139   138    1
   101    64    63    1
   102    48    49    1
   103    48    47    1
   104   120   121    2
   105   120   125   am
   106   124   123    1
   107    55    54    2
   108   125   126    1
   109    63    54   am
   110   122   123    1
   111    52    53    1
   112    52    45   am
   113    54    53    1
   114    58    59    1
   115    58    57    1
   116    56    53    1
   117    56    57    1
   118   127   126    1
   119   127   128    2
   120    49    50    1
   121    44    47    1
   122    44    45    1
   123    44    43    1
   124    59    60    2
   125   146   148   ar
   126   146   147   ar
   127   129   126    1
   128   129   131    1
   129   129   130    1
   130    45    46    2
   131    50    51    1
   132    60    62    1
   133    60    61    1
   134    19    17   ar
   135    17    16    1
   136    17    18   ar
   137    16    13    1
   138    11     9    1
   139     8     9    2
   140     8     7    1
   141    29    32    1
   142    29    28    1
   143    29    30    1
   144     6     7    1
   145     6     5    1
   146     9    10    1
   147    32    33    1
   148    13    12    1
   149    13    14    1
   150     5     2    1
   151    30    31    2
   152     2     1    1
   153     2     3    1
   154    27    25   am
   155     4     3    2
   156    14    15    2
   157    25    24    1
   158    25    26    2
   159    24    21    1
   160    41    40   ar
   161    40    42   ar
   162    40    39    1
   163    21    20    1
   164    21    22    1
   165    39    38    1
   166    34    35    1
   167    38    35    1
   168    23    22    2
   169    35    36    1
   170    36    37    2
