@<TRIPOS>MOLECULE
tmp/3iq5D00.pdb
 182 175 0 0 0
SMALL
GASTEIGER

@<TRIPOS>ATOM
      1  N        -27.5890    1.5550    3.2960 N.3     2  ASP2       -0.1225
      2  CA       -27.1380    0.8040    4.4600 C.3     2  ASP2        0.1805
      3  C        -25.9090   -0.0510    4.1140 C.2     2  ASP2        0.2598
      4  O        -25.6370   -0.3240    2.9380 O.2     2  ASP2       -0.2718
      5  CB       -28.2510   -0.1040    4.9710 C.3     2  ASP2        0.1424
      6  CG       -27.7200   -1.2260    5.8300 C.2     2  ASP2        0.3668
      7  OD1      -27.2630   -0.9440    6.9630 O.co2   2  ASP2       -0.2456
      8  OD2      -27.7310   -2.3860    5.3600 O.co2   2  ASP2       -0.2456
      9  N        -25.1760   -0.4720    5.1430 N.am    3  LEU3       -0.1966
     10  CA       -23.9860   -1.2890    4.9400 C.3     3  LEU3        0.1728
     11  C        -24.2970   -2.4940    4.0730 C.2     3  LEU3        0.2616
     12  O        -23.6610   -2.7000    3.0480 O.2     3  LEU3       -0.2715
     13  CB       -23.4220   -1.7740    6.2700 C.3     3  LEU3        0.0311
     14  CG       -22.0340   -1.2670    6.6650 C.3     3  LEU3        0.0022
     15  CD1      -21.5030   -2.1460    7.7800 C.3     3  LEU3        0.0001
     16  CD2      -21.0860   -1.2870    5.4640 C.3     3  LEU3        0.0001
     17  N        -25.2850   -3.2790    4.4930 N.am    4  GLU4       -0.1977
     18  CA       -25.6890   -4.4810    3.7680 C.3     4  GLU4        0.1602
     19  C        -26.0300   -4.2420    2.3060 C.2     4  GLU4        0.2287
     20  O        -25.7540   -5.0840    1.4570 O.2     4  GLU4       -0.2864
     21  CB       -26.8880   -5.1280    4.4460 C.3     4  GLU4        0.0415
     22  CG       -26.6480   -5.5380    5.8750 C.3     4  GLU4        0.1163
     23  CD       -27.7790   -6.4010    6.4050 C.2     4  GLU4        0.3649
     24  OE1      -28.9330   -5.9230    6.3970 O.co2   4  GLU4       -0.2457
     25  OE2      -27.5140   -7.5550    6.8220 O.co2   4  GLU4       -0.2457
     26  N        -22.8100   -3.6380    0.8580 N.3     7  MET7       -0.1230
     27  CA       -22.1830   -4.9600    0.8860 C.3     7  MET7        0.1702
     28  C        -22.7420   -5.8410   -0.2200 C.2     7  MET7        0.2592
     29  O        -21.9930   -6.5340   -0.9100 O.2     7  MET7       -0.2718
     30  CB       -22.3850   -5.6280    2.2430 C.3     7  MET7        0.0401
     31  CG       -21.4560   -5.0890    3.2900 C.3     7  MET7        0.0596
     32  SD       -19.6950   -5.1940    2.8010 S.3     7  MET7       -0.1393
     33  CE       -19.1350   -3.6770    3.5490 C.3     7  MET7        0.0692
     34  N        -24.0610   -5.7950   -0.4020 N.am    8  GLU8       -0.1979
     35  CA       -24.7000   -6.5740   -1.4500 C.3     8  GLU8        0.1602
     36  C        -24.1530   -6.1640   -2.8080 C.2     8  GLU8        0.2287
     37  O        -23.8510   -7.0160   -3.6400 O.2     8  GLU8       -0.2864
     38  CB       -26.2220   -6.3600   -1.4420 C.3     8  GLU8        0.0415
     39  CG       -26.8990   -6.7780   -2.7530 C.3     8  GLU8        0.1163
     40  CD       -28.4290   -6.7670   -2.6900 C.2     8  GLU8        0.3649
     41  OE1      -29.0130   -5.7640   -2.2070 O.co2   8  GLU8       -0.2457
     42  OE2      -29.0450   -7.7620   -3.1460 O.co2   8  GLU8       -0.2457
     43  N        -21.2730   -4.6400   -3.5440 N.3    10  LEU10      -0.1231
     44  CA       -19.8710   -5.0220   -3.6660 C.3    10  LEU10       0.1693
     45  C        -19.8110   -6.4790   -4.0650 C.2    10  LEU10       0.2592
     46  O        -19.1840   -6.8370   -5.0540 O.2    10  LEU10      -0.2718
     47  CB       -19.1340   -4.8530   -2.3320 C.3    10  LEU10       0.0284
     48  CG       -18.3460   -3.5910   -1.9530 C.3    10  LEU10       0.0019
     49  CD1      -18.0550   -2.7380   -3.1830 C.3    10  LEU10       0.0001
     50  CD2      -19.1110   -2.8120   -0.9150 C.3    10  LEU10       0.0001
     51  N        -20.5020   -7.3080   -3.2880 N.am   11  ASN11      -0.1974
     52  CA       -20.5070   -8.7510   -3.5000 C.3    11  ASN11       0.1688
     53  C        -21.0340   -9.2150   -4.8490 C.2    11  ASN11       0.2292
     54  O        -20.5920  -10.2450   -5.3580 O.2    11  ASN11      -0.2864
     55  CB       -21.2830   -9.4390   -2.3810 C.3    11  ASN11       0.1181
     56  CG       -21.0100  -10.9270   -2.3210 C.2    11  ASN11       0.2629
     57  OD1      -21.3840  -11.6760   -3.2210 O.2    11  ASN11      -0.2716
     58  ND2      -20.3450  -11.3610   -1.2600 N.am   11  ASN11      -0.0877
     59  N        -18.8220   -8.0450   -7.9960 N.3    14  LEU14      -0.1245
     60  CA       -17.5840   -8.8000   -7.9150 C.3    14  LEU14       0.1561
     61  C        -17.7640  -10.0640   -8.7590 C.2    14  LEU14       0.2260
     62  O        -16.8190  -10.5470   -9.3910 O.2    14  LEU14      -0.2867
     63  CB       -17.2830   -9.1450   -6.4520 C.3    14  LEU14       0.0270
     64  CG       -15.9000   -9.7020   -6.0930 C.3    14  LEU14       0.0019
     65  CD1      -14.8010   -8.7320   -6.5350 C.3    14  LEU14       0.0001
     66  CD2      -15.8300   -9.9250   -4.5910 C.3    14  LEU14       0.0001
     67  N        -18.6870   -0.6070   -7.5610 N.3    33  MET33      -0.1245
     68  CA       -18.0890   -1.0320   -6.3070 C.3    33  MET33       0.1570
     69  C        -17.5130    0.1620   -5.5720 C.2    33  MET33       0.2261
     70  O        -17.6000    0.2480   -4.3400 O.2    33  MET33      -0.2867
     71  CB       -17.0010   -2.0710   -6.5770 C.3    33  MET33       0.0387
     72  CG       -17.5490   -3.3790   -7.1450 C.3    33  MET33       0.0595
     73  SD       -16.2780   -4.6410   -7.1800 S.3    33  MET33      -0.1393
     74  CE       -16.2100   -5.0190   -5.3810 C.3    33  MET33       0.0692
     75  N        -20.4400   -0.4100   12.0120 N.3    45  PRO45      -0.2103
     76  CA       -20.8400   -1.8150   11.9770 C.3    45  PRO45       0.1489
     77  C        -21.4600   -2.2490   13.3000 C.2    45  PRO45       0.2417
     78  O        -21.0850   -1.7600   14.3660 O.2    45  PRO45      -0.2734
     79  CB       -19.5300   -2.5270   11.6880 C.3    45  PRO45       0.0282
     80  CG       -18.5640   -1.7110   12.4640 C.3    45  PRO45       0.0208
     81  CD       -18.9770   -0.2880   12.1320 C.3    45  PRO45       0.0893
     82  N        -22.4200   -3.1830   13.2430 N.am   46  PRO46      -0.2729
     83  CA       -23.0970   -3.6930   14.4350 C.3    46  PRO46       0.1401
     84  C        -22.1920   -3.8830   15.6440 C.2    46  PRO46       0.2269
     85  O        -22.4640   -3.3330   16.7110 O.2    46  PRO46      -0.2865
     86  CB       -23.7010   -4.9970   13.9380 C.3    46  PRO46       0.0296
     87  CG       -24.1610   -4.6040   12.5540 C.3    46  PRO46       0.0237
     88  CD       -22.9550   -3.8280   12.0270 C.3    46  PRO46       0.0939
     89  N        -11.5250    0.1360   11.1010 N.3    61  PHE61      -0.1241
     90  CA       -12.6640   -0.2250   10.2540 C.3    61  PHE61       0.1605
     91  C        -12.6140    0.6330    8.9920 C.2    61  PHE61       0.2264
     92  O        -12.6420    0.1140    7.8760 O.2    61  PHE61      -0.2867
     93  CB       -13.9940    0.0100   10.9940 C.3    61  PHE61       0.0534
     94  CG       -15.2060   -0.5260   10.2580 C.ar   61  PHE61      -0.0203
     95  CD1      -15.3620   -1.8990   10.0500 C.ar   61  PHE61      -0.0042
     96  CD2      -16.1790    0.3420    9.7560 C.ar   61  PHE61      -0.0042
     97  CE1      -16.4700   -2.3940    9.3500 C.ar   61  PHE61      -0.0003
     98  CE2      -17.2900   -0.1470    9.0570 C.ar   61  PHE61      -0.0003
     99  CZ       -17.4390   -1.5150    8.8510 C.ar   61  PHE61      -0.0000
    100  N         -9.9250   -0.1290    6.4780 N.3    64  GLY64      -0.1210
    101  CA       -10.2700   -1.2120    5.5720 C.3    64  GLY64       0.1956
    102  C        -10.9420   -0.6820    4.3320 C.2    64  GLY64       0.2611
    103  O        -10.6640   -1.1120    3.1950 O.2    64  GLY64      -0.2717
    104  N        -11.8560    0.2580    4.5440 N.am   65  PHE65      -0.1976
    105  CA       -12.5260    0.8650    3.4180 C.3    65  PHE65       0.1639
    106  C        -11.5790    1.7170    2.5880 C.2    65  PHE65       0.2290
    107  O        -11.6660    1.7500    1.3650 O.2    65  PHE65      -0.2864
    108  CB       -13.7320    1.6790    3.8940 C.3    65  PHE65       0.0560
    109  CG       -14.9490    0.8420    4.0750 C.ar   65  PHE65      -0.0200
    110  CD1      -15.5390    0.7090    5.3140 C.ar   65  PHE65      -0.0042
    111  CD2      -15.4300    0.0840    3.0130 C.ar   65  PHE65      -0.0042
    112  CE1      -16.5980   -0.1780    5.5090 C.ar   65  PHE65      -0.0003
    113  CE2      -16.4840   -0.8090    3.1910 C.ar   65  PHE65      -0.0003
    114  CZ       -17.0680   -0.9370    4.4500 C.ar   65  PHE65      -0.0000
    115  N         -9.7740   -0.7110    0.4670 N.3    68  LEU68      -0.1245
    116  CA       -10.6540   -1.2300   -0.5800 C.3    68  LEU68       0.1561
    117  C        -10.8560   -0.2480   -1.7330 C.2    68  LEU68       0.2260
    118  O        -10.7910   -0.6100   -2.9140 O.2    68  LEU68      -0.2867
    119  CB       -12.0080   -1.5960    0.0150 C.3    68  LEU68       0.0270
    120  CG       -12.8560   -2.4010   -0.9680 C.3    68  LEU68       0.0019
    121  CD1      -12.2760   -3.8000   -1.0670 C.3    68  LEU68       0.0001
    122  CD2      -14.3110   -2.4550   -0.5200 C.3    68  LEU68       0.0001
    123  N         -8.0470   -8.3890   -4.2230 N.3    94  LEU94      -0.1245
    124  CA        -9.0330   -7.4830   -3.6450 C.3    94  LEU94       0.1561
    125  C         -9.9030   -8.2310   -2.6280 C.2    94  LEU94       0.2260
    126  O        -10.1040   -7.7610   -1.5150 O.2    94  LEU94      -0.2867
    127  CB        -9.9000   -6.9120   -4.7630 C.3    94  LEU94       0.0270
    128  CG       -10.9420   -5.8220   -4.5270 C.3    94  LEU94       0.0019
    129  CD1      -11.3410   -5.2720   -5.8930 C.3    94  LEU94       0.0001
    130  CD2      -12.1660   -6.3650   -3.7880 C.3    94  LEU94       0.0001
    131  N         -9.1770   -8.1080    1.1200 N.3    97  THR97      -0.1203
    132  CA        -9.5080   -6.9930    2.0120 C.3    97  THR97       0.1994
    133  C        -10.9190   -7.2240    2.5520 C.2    97  THR97       0.2618
    134  O        -11.1980   -6.9900    3.7400 O.2    97  THR97      -0.2717
    135  CB        -9.3940   -5.6250    1.3030 C.3    97  THR97       0.1784
    136  OG1      -10.3400   -5.5510    0.2340 O.3    97  THR97      -0.2211
    137  CG2       -7.9990   -5.4520    0.7480 C.3    97  THR97       0.0376
    138  N        -11.8040   -7.7130    1.6870 N.am   98  CYS98      -0.1969
    139  CA       -13.1620   -8.0330    2.1130 C.3    98  CYS98       0.1712
    140  C        -13.0320   -8.9740    3.3110 C.2    98  CYS98       0.2296
    141  O        -13.4830   -8.6800    4.4180 O.2    98  CYS98      -0.2864
    142  CB       -13.9260   -8.7810    1.0130 C.3    98  CYS98       0.0983
    143  SG       -13.9420   -8.0430   -0.6340 S.3    98  CYS98      -0.0798
    144  N        -11.5630   -7.5430    6.7860 N.3   101  CYS101     -0.1221
    145  CA       -12.5230   -6.7490    7.5610 C.3   101  CYS101      0.1808
    146  C        -13.6130   -7.6280    8.1740 C.2   101  CYS101      0.2601
    147  O        -13.9820   -7.4550    9.3390 O.2   101  CYS101     -0.2717
    148  CB       -13.1730   -5.6700    6.7030 C.3   101  CYS101      0.0970
    149  SG       -14.2610   -4.5400    7.6570 S.3   101  CYS101     -0.0800
    150  N        -14.1270   -8.5720    7.3960 N.am  102  HIS102     -0.1975
    151  CA       -15.1530   -9.4650    7.9090 C.3   102  HIS102      0.1656
    152  C        -14.6390  -10.2370    9.1120 C.2   102  HIS102      0.2291
    153  O        -15.2690  -10.2530   10.1680 O.2   102  HIS102     -0.2864
    154  CB       -15.5940  -10.4290    6.8190 C.3   102  HIS102      0.0771
    155  CG       -16.3410   -9.7580    5.7140 C.ar  102  HIS102      0.0820
    156  ND1      -16.6130  -10.3680    4.5110 N.ar  102  HIS102     -0.2267
    157  CD2      -16.8790   -8.5170    5.6400 C.ar  102  HIS102      0.1154
    158  CE1      -17.2870   -9.5310    3.7430 C.ar  102  HIS102      0.1986
    159  NE2      -17.4630   -8.4020    4.4050 N.ar  102  HIS102     -0.2212
    160  N        -14.5700   -7.6620   11.9500 N.3   105  TYR105     -0.1227
    161  CA       -15.7450   -6.9030   12.3360 C.3   105  TYR105      0.1736
    162  C        -17.1170   -7.4250   11.9780 C.2   105  TYR105      0.2595
    163  O        -18.1190   -6.8950   12.4490 O.2   105  TYR105     -0.2718
    164  CB       -15.5710   -5.4680   11.8280 C.3   105  TYR105      0.0548
    165  CG       -14.3020   -4.8640   12.3740 C.ar  105  TYR105     -0.0200
    166  CD1      -13.2930   -4.4240   11.5290 C.ar  105  TYR105     -0.0009
    167  CD2      -14.0810   -4.8100   13.7540 C.ar  105  TYR105     -0.0009
    168  CE1      -12.0910   -3.9520   12.0380 C.ar  105  TYR105      0.0417
    169  CE2      -12.8870   -4.3410   14.2720 C.ar  105  TYR105      0.0417
    170  CZ       -11.8950   -3.9120   13.4060 C.ar  105  TYR105      0.1957
    171  OH       -10.7180   -3.4260   13.9180 O.3   105  TYR105     -0.2866
    172  N        -17.1840   -8.4520   11.1510 N.am  106  ARG106     -0.1980
    173  CA       -18.4840   -8.9870   10.8060 C.3   106  ARG106      0.1597
    174  C        -18.9180   -9.9660   11.9030 C.2   106  ARG106      0.2287
    175  O        -18.0380  -10.6150   12.5270 O.2   106  ARG106     -0.2864
    176  CB       -18.4200   -9.6770    9.4470 C.3   106  ARG106      0.0334
    177  CG       -19.7230  -10.2730    8.9870 C.3   106  ARG106      0.0492
    178  CD       -19.5970  -10.7960    7.5640 C.3   106  ARG106      0.2205
    179  NE       -20.8150  -11.4650    7.1230 N.pl3 106  ARG106     -0.0865
    180  CZ       -21.0450  -11.8550    5.8710 C.cat 106  ARG106      0.5346
    181  NH1      -22.1890  -12.4640    5.5600 N.pl3 106  ARG106      0.1354
    182  NH2      -20.1330  -11.6290    4.9300 N.pl3 106  ARG106      0.1354
@<TRIPOS>BOND
     1    62    61    2
     2    61    60    1
     3    59    60    1
     4    60    63    1
     5    67    68    1
     6    73    72    1
     7    73    74    1
     8    72    71    1
     9    71    68    1
    10    65    64    1
    11    63    64    1
    12    68    69    1
    13    64    66    1
    14   129   128    1
    15    69    70    2
    16    54    53    2
    17    46    45    2
    18    53    52    1
    19   127   128    1
    20   127   124    1
    21   128   130    1
    22   123   124    1
    23    45    44    1
    24    45    51   am
    25    44    43    1
    26    44    47    1
    27   124   125    1
    28    37    36    2
    29    52    51    1
    30    52    55    1
    31    57    56    2
    32    49    48    1
    33    42    40   ar
    34   118   117    2
    35    36    35    1
    36    39    40    1
    37    39    38    1
    38    40    41   ar
    39   125   126    2
    40    55    56    1
    41    47    48    1
    42    56    58   am
    43    48    50    1
    44   117   116    1
    45    35    38    1
    46    35    34    1
    47   121   120    1
    48   120   122    1
    49   120   119    1
    50    29    28    2
    51   143   142    1
    52   116   119    1
    53   116   115    1
    54    34    28   am
    55    28    27    1
    56   136   135    1
    57   137   135    1
    58    26    27    1
    59    27    30    1
    60   142   139    1
    61   131   132    1
    62   135   132    1
    63   107   106    2
    64    20    19    2
    65   138   139    1
    66   138   133   am
    67   132   133    1
    68   139   140    1
    69    30    31    1
    70    19    18    1
    71   133   134    2
    72   106   105    1
    73    32    31    1
    74    32    33    1
    75     4     3    2
    76   111   113   ar
    77   111   109   ar
    78    12    11    2
    79   113   114   ar
    80   103   102    2
    81     1     2    1
    82   140   141    2
    83   105   108    1
    84   105   104    1
    85   158   159   ar
    86   158   156   ar
    87    18    21    1
    88    18    17    1
    89   108   109    1
    90    11    17   am
    91    11    10    1
    92   109   110   ar
    93     3     2    1
    94     3     9   am
    95   102   104   am
    96   102   101    1
    97   159   157   ar
    98    21    22    1
    99   114   112   ar
   100     2     5    1
   101   156   155   ar
   102   182   180    1
   103    10     9    1
   104    10    13    1
   105     5     6    1
   106   110   112   ar
   107     8     6   ar
   108    16    14    1
   109   181   180    1
   110   101   100    1
   111   157   155   ar
   112   155   154    1
   113     6     7   ar
   114   180   179    2
   115    22    23    1
   116    13    14    1
   117    24    23   ar
   118    23    25   ar
   119    14    15    1
   120   148   145    1
   121   148   149    1
   122   144   145    1
   123   154   151    1
   124   179   178    1
   125   150   151    1
   126   150   146   am
   127   145   146    1
   128   178   177    1
   129    92    91    2
   130   151   152    1
   131   146   147    2
   132    99    98   ar
   133    99    97   ar
   134   177   176    1
   135    91    90    1
   136    98    96   ar
   137   152   153    2
   138    97    95   ar
   139   176   173    1
   140    96    94   ar
   141    95    94   ar
   142    90    93    1
   143    90    89    1
   144    94    93    1
   145   173   172    1
   146   173   174    1
   147   172   162   am
   148   166   168   ar
   149   166   165   ar
   150    79    76    1
   151    79    80    1
   152   164   161    1
   153   164   165    1
   154   174   175    2
   155   160   161    1
   156    76    75    1
   157    76    77    1
   158   162   161    1
   159   162   163    2
   160    75    81    1
   161    88    87    1
   162    88    82    1
   163   168   170   ar
   164    81    80    1
   165   165   167   ar
   166    87    86    1
   167    82    77   am
   168    82    83    1
   169    77    78    2
   170   170   171    1
   171   170   169   ar
   172   167   169   ar
   173    86    83    1
   174    83    84    1
   175    84    85    2
