@<TRIPOS>MOLECULE
tmp/3iqaA00.pdb
 137 128 0 0 0
SMALL
GASTEIGER

@<TRIPOS>ATOM
      1  N        -17.8110  -12.4800    4.0740 N.3    41  CYS41      -0.1221
      2  CA       -16.3590  -12.3290    4.1430 C.3    41  CYS41       0.1808
      3  C        -15.9690  -11.9080    5.5740 C.2    41  CYS41       0.2601
      4  O        -16.5910  -12.3680    6.5270 O.2    41  CYS41      -0.2717
      5  CB       -15.8440  -11.3990    3.0400 C.3    41  CYS41       0.0970
      6  SG       -16.2350  -12.0300    1.3750 S.3    41  CYS41      -0.0800
      7  N        -14.9720  -11.0990    5.7460 N.am   42  SER42      -0.1952
      8  CA       -14.4580  -10.7810    7.0620 C.3    42  SER42       0.1924
      9  C        -15.3820   -9.8440    7.9390 C.2    42  SER42       0.2314
     10  O        -15.0580   -9.5650    9.0390 O.2    42  SER42      -0.2863
     11  CB       -12.9950  -10.2710    7.0040 C.3    42  SER42       0.2116
     12  OG       -12.0490  -11.0810    6.3850 O.3    42  SER42      -0.2180
     13  N        -16.4680  -10.7350   11.5830 N.3    45  LYS45      -0.1245
     14  CA       -15.5420  -10.5900   12.7040 C.3    45  LYS45       0.1561
     15  C        -15.9560   -9.5090   13.7020 C.2    45  LYS45       0.2260
     16  O        -15.5490   -9.5460   14.8650 O.2    45  LYS45      -0.2867
     17  CB       -14.1240  -10.3170   12.1930 C.3    45  LYS45       0.0271
     18  CG       -13.5050  -11.4930   11.4640 C.3    45  LYS45       0.0035
     19  CD       -12.2680  -11.0780   10.6790 C.3    45  LYS45       0.0206
     20  CE       -11.9060  -12.1540    9.6750 C.3    45  LYS45       0.1093
     21  NZ       -10.6460  -11.8190    8.9840 N.3    45  LYS45      -0.1314
     22  N         -4.8480  -18.9700    6.3290 N.3    74  SER74      -0.1202
     23  CA        -5.4390  -17.8050    5.6580 C.3    74  SER74       0.2020
     24  C         -4.6330  -16.5470    5.9830 C.2    74  SER74       0.2618
     25  O         -3.7350  -16.5950    6.8250 O.2    74  SER74      -0.2717
     26  CB        -6.9210  -17.6340    6.0530 C.3    74  SER74       0.2103
     27  OG        -7.0690  -17.3710    7.4470 O.3    74  SER74      -0.2182
     28  N         -4.9480  -15.4350    5.3180 N.am   75  ILE75      -0.1979
     29  CA        -4.2770  -14.1320    5.5550 C.3    75  ILE75       0.1595
     30  C         -4.3360  -13.7500    7.0360 C.2    75  ILE75       0.2287
     31  O         -5.4330  -13.5880    7.6100 O.2    75  ILE75      -0.2864
     32  CB        -4.8760  -12.9900    4.6680 C.3    75  ILE75       0.0276
     33  CG1       -4.6180  -13.2720    3.1850 C.3    75  ILE75       0.0022
     34  CG2       -4.2990  -11.6160    5.0520 C.3    75  ILE75       0.0022
     35  CD1       -5.5280  -12.4860    2.2290 C.3    75  ILE75       0.0001
     36  N         -1.8700  -11.2840    9.2000 N.3    77  PRO77      -0.2116
     37  CA        -0.6880  -10.4200    9.3280 C.3    77  PRO77       0.1372
     38  C         -0.1400  -10.3610   10.7590 C.2    77  PRO77       0.2244
     39  O          1.0720  -10.1870   10.9580 O.2    77  PRO77      -0.2868
     40  CB        -1.2110   -9.0320    8.9020 C.3    77  PRO77       0.0268
     41  CG        -2.4770   -9.2900    8.1610 C.3    77  PRO77       0.0207
     42  CD        -3.0620  -10.5170    8.7930 C.3    77  PRO77       0.0892
     43  N         -6.7460   -5.6390   11.5760 N.3    99  TYR99      -0.1227
     44  CA        -5.9510   -6.1660   10.4690 C.3    99  TYR99       0.1736
     45  C         -6.6890   -7.2090    9.6560 C.2    99  TYR99       0.2596
     46  O         -6.1700   -7.6970    8.6430 O.2    99  TYR99      -0.2718
     47  CB        -4.6000   -6.7030   10.9660 C.3    99  TYR99       0.0548
     48  CG        -3.6930   -5.5650   11.3680 C.ar   99  TYR99      -0.0200
     49  CD1       -3.6390   -5.1250   12.6960 C.ar   99  TYR99      -0.0009
     50  CD2       -2.9380   -4.8840   10.4120 C.ar   99  TYR99      -0.0009
     51  CE1       -2.8310   -4.0620   13.0630 C.ar   99  TYR99       0.0417
     52  CE2       -2.1240   -3.8150   10.7730 C.ar   99  TYR99       0.0417
     53  CZ        -2.0810   -3.4120   12.0960 C.ar   99  TYR99       0.1957
     54  OH        -1.2870   -2.3540   12.4590 O.3    99  TYR99      -0.2866
     55  N         -7.9080   -7.5140   10.0990 N.am  100  SER100     -0.1952
     56  CA        -8.7490   -8.5510    9.5130 C.3   100  SER100      0.1924
     57  C         -8.0100   -9.8970    9.4300 C.2   100  SER100      0.2314
     58  O         -8.0360  -10.5850    8.4000 O.2   100  SER100     -0.2863
     59  CB        -9.2910   -8.1170    8.1440 C.3   100  SER100      0.2116
     60  OG       -10.3550   -8.9640    7.7680 O.3   100  SER100     -0.2180
     61  N         -7.2410  -13.6030    9.7570 N.3   102  GLY102     -0.1225
     62  CA        -8.0800  -14.7880    9.5830 C.3   102  GLY102      0.1811
     63  C         -7.9110  -15.8560   10.6560 C.2   102  GLY102      0.2280
     64  O         -8.8920  -16.4350   11.1080 O.2   102  GLY102     -0.2866
     65  N        -12.3000  -19.6530    8.3100 N.3   140  GLU140     -0.1231
     66  CA       -11.2800  -19.2740    7.3280 C.3   140  GLU140      0.1684
     67  C        -10.4680  -20.5080    6.9040 C.2   140  GLU140      0.2434
     68  O        -10.1520  -21.3620    7.7520 O.2   140  GLU140     -0.2733
     69  CB       -10.3520  -18.1880    7.8890 C.3   140  GLU140      0.0402
     70  CG       -11.0620  -16.9760    8.4850 C.3   140  GLU140      0.1161
     71  CD       -11.5310  -15.9650    7.4460 C.2   140  GLU140      0.3649
     72  OE1      -11.5760  -16.2870    6.2420 O.co2 140  GLU140     -0.2457
     73  OE2      -11.8620  -14.8310    7.8380 O.co2 140  GLU140     -0.2457
     74  N        -10.1320  -20.6150    5.5960 N.am  141  PRO141     -0.2729
     75  CA       -10.5060  -19.7200    4.4950 C.3   141  PRO141      0.1401
     76  C        -11.7980  -20.0790    3.7240 C.2   141  PRO141      0.2269
     77  O        -12.1740  -19.3540    2.8120 O.2   141  PRO141     -0.2865
     78  CB        -9.3100  -19.8520    3.5560 C.3   141  PRO141      0.0296
     79  CG        -8.9480  -21.3060    3.6650 C.3   141  PRO141      0.0237
     80  CD        -9.2270  -21.6850    5.1230 C.3   141  PRO141      0.0939
     81  N        -15.1290  -17.6770    2.5360 N.3   144  ASN144     -0.1240
     82  CA       -15.0570  -16.6870    1.4540 C.3   144  ASN144      0.1653
     83  C        -15.2310  -17.2710    0.0450 C.2   144  ASN144      0.2266
     84  O        -15.2050  -16.5170   -0.9570 O.2   144  ASN144     -0.2867
     85  CB       -13.7190  -15.9450    1.5180 C.3   144  ASN144      0.1155
     86  CG       -13.4150  -15.4140    2.9000 C.2   144  ASN144      0.2627
     87  OD1      -14.0710  -14.4880    3.3730 O.2   144  ASN144     -0.2716
     88  ND2      -12.4120  -16.0010    3.5620 N.am  144  ASN144     -0.0877
     89  N         -7.7120   -1.2150    7.6580 N.3   190  THR190     -0.1218
     90  CA        -7.9920   -1.7800    6.3300 C.3   190  THR190      0.1862
     91  C         -9.0420   -1.0270    5.4910 C.2   190  THR190      0.2287
     92  O         -9.2970   -1.4050    4.3340 O.2   190  THR190     -0.2866
     93  CB        -8.4250   -3.2660    6.4310 C.3   190  THR190      0.1770
     94  OG1       -9.7030   -3.3540    7.0700 O.3   190  THR190     -0.2211
     95  CG2       -7.4050   -4.0990    7.2040 C.3   190  THR190      0.0375
     96  N        -12.5690    2.6510    1.3260 N.3   194  ARG194     -0.1245
     97  CA       -13.9410    2.1660    1.2070 C.3   194  ARG194      0.1563
     98  C        -14.9320    3.2020    1.7440 C.2   194  ARG194      0.2260
     99  O        -14.9780    4.2970    1.2090 O.2   194  ARG194     -0.2867
    100  CB       -14.0760    0.7560    1.7940 C.3   194  ARG194      0.0307
    101  CG       -13.2010   -0.2300    1.0260 C.3   194  ARG194      0.0489
    102  CD       -13.1960   -1.6390    1.5890 C.3   194  ARG194      0.2205
    103  NE       -12.2320   -2.4930    0.8960 N.pl3 194  ARG194     -0.0865
    104  CZ       -12.3170   -3.8240    0.8180 C.cat 194  ARG194      0.5346
    105  NH1      -11.3810   -4.5080    0.1820 N.pl3 194  ARG194      0.1354
    106  NH2      -13.3290   -4.4720    1.3760 N.pl3 194  ARG194      0.1354
    107  N        -14.1210   -4.2570    7.2760 N.3   209  THR209     -0.1203
    108  CA       -14.1060   -4.5760    5.8480 C.3   209  THR209      0.1994
    109  C        -14.2450   -6.0850    5.6230 C.2   209  THR209      0.2618
    110  O        -14.0870   -6.8730    6.5530 O.2   209  THR209     -0.2717
    111  CB       -12.7820   -4.0850    5.1880 C.3   209  THR209      0.1784
    112  OG1      -11.6630   -4.5640    5.9440 O.3   209  THR209     -0.2211
    113  CG2      -12.7070   -2.5580    5.1420 C.3   209  THR209      0.0376
    114  N        -14.5570   -6.4740    4.3900 N.am  210  GLY210     -0.1942
    115  CA       -14.5040   -7.8660    3.9630 C.3   210  GLY210      0.2014
    116  C        -14.0930   -7.9360    2.5030 C.2   210  GLY210      0.2640
    117  O        -14.4970   -7.0910    1.6970 O.2   210  GLY210     -0.2714
    118  N        -13.2720   -8.9310    2.1690 N.am  211  THR211     -0.1936
    119  CA       -12.8050   -9.1550    0.7980 C.3   211  THR211      0.2028
    120  C        -12.7630  -10.6670    0.5540 C.2   211  THR211      0.2642
    121  O        -12.4140  -11.4260    1.4420 O.2   211  THR211     -0.2714
    122  CB       -11.3940   -8.5050    0.5510 C.3   211  THR211      0.1808
    123  OG1      -11.3950   -7.1450    1.0040 O.3   211  THR211     -0.2208
    124  CG2      -11.0280   -8.5080   -0.9240 C.3   211  THR211      0.0379
    125  N        -13.1330  -11.1000   -0.6440 N.am  212  GLY212     -0.1954
    126  CA       -13.1790  -12.5180   -0.9530 C.3   212  GLY212      0.1869
    127  C        -13.0890  -12.8050   -2.4390 C.2   212  GLY212      0.2309
    128  O        -12.8550  -11.9160   -3.2550 O.2   212  GLY212     -0.2863
    129  N        -12.4170   -1.8170   -4.6120 N.3   250  GLU250     -0.1245
    130  CA       -12.6400   -0.8990   -3.4920 C.3   250  GLU250      0.1567
    131  C        -13.3290    0.3890   -3.9290 C.2   250  GLU250      0.2260
    132  O        -14.1320    0.9480   -3.1860 O.2   250  GLU250     -0.2867
    133  CB       -11.3110   -0.5260   -2.8250 C.3   250  GLU250      0.0388
    134  CG       -10.5600   -1.6740   -2.2000 C.3   250  GLU250      0.1160
    135  CD        -9.5560   -1.1950   -1.1870 C.2   250  GLU250      0.3649
    136  OE1       -8.4430   -0.7940   -1.5880 O.co2 250  GLU250     -0.2457
    137  OE2       -9.8900   -1.2210    0.0160 O.co2 250  GLU250     -0.2457
@<TRIPOS>BOND
     1   129   130    1
     2   131   130    1
     3   131   132    2
     4   130   133    1
     5   128   127    2
     6   133   134    1
     7   127   126    1
     8   134   135    1
     9   136   135   ar
    10   135   137   ar
    11    84    83    2
    12   126   125    1
    13   124   122    1
    14   125   120   am
    15    83    82    1
    16   105   104    1
    17   122   119    1
    18   122   123    1
    19   120   119    1
    20   120   121    2
    21   119   118    1
    22   104   103    2
    23   104   106    1
    24   103   102    1
    25   101   102    1
    26   101   100    1
    27    97    96    1
    28    97    98    1
    29    97   100    1
    30    99    98    2
    31     6     5    1
    32    82    85    1
    33    82    81    1
    34    85    86    1
    35   117   116    2
    36   118   116   am
    37    35    33    1
    38   116   115    1
    39    77    76    2
    40    86    87    2
    41    86    88   am
    42     5     2    1
    43    33    32    1
    44    78    79    1
    45    78    75    1
    46    79    80    1
    47    76    75    1
    48   115   114    1
    49     1     2    1
    50     2     3    1
    51    92    91    2
    52   114   109   am
    53    75    74    1
    54    32    34    1
    55    32    29    1
    56    80    74    1
    57   113   111    1
    58   111   108    1
    59   111   112    1
    60    28    29    1
    61    28    24   am
    62    91    90    1
    63    29    30    1
    64     3     7   am
    65     3     4    2
    66    74    67   am
    67   109   108    1
    68   109   110    2
    69    23    24    1
    70    23    26    1
    71    23    22    1
    72     7     8    1
    73   108   107    1
    74    24    25    2
    75    26    27    1
    76    72    71   ar
    77    90    93    1
    78    90    89    1
    79    12    11    1
    80    93    94    1
    81    93    95    1
    82    67    66    1
    83    67    68    2
    84    11     8    1
    85    30    31    2
    86     8     9    1
    87    66    69    1
    88    66    65    1
    89    71    73   ar
    90    71    70    1
    91    60    59    1
    92    69    70    1
    93     9    10    2
    94    59    56    1
    95    41    42    1
    96    41    40    1
    97    58    57    2
    98    46    45    2
    99    42    36    1
   100    40    37    1
   101    21    20    1
   102    36    37    1
   103    37    38    1
   104    57    56    1
   105    56    55    1
   106    62    61    1
   107    62    63    1
   108    45    55   am
   109    45    44    1
   110    20    19    1
   111    50    52   ar
   112    50    48   ar
   113    44    47    1
   114    44    43    1
   115    63    64    2
   116    19    18    1
   117    38    39    2
   118    52    53   ar
   119    47    48    1
   120    48    49   ar
   121    18    17    1
   122    13    14    1
   123    53    54    1
   124    53    51   ar
   125    17    14    1
   126    49    51   ar
   127    14    15    1
   128    15    16    2
