@<TRIPOS>MOLECULE
tmp/3iqdA01.pdb
 100 96 0 0 0
SMALL
GASTEIGER

@<TRIPOS>ATOM
      1  N         30.6270    8.6660  -14.6610 N.3   117  GLN117     -0.1245
      2  CA        30.3290    7.6180  -15.6370 C.3   117  GLN117      0.1566
      3  C         29.9160    6.3530  -14.8720 C.2   117  GLN117      0.2260
      4  O         29.9190    6.3420  -13.6410 O.2   117  GLN117     -0.2867
      5  CB        31.5010    7.3900  -16.6020 C.3   117  GLN117      0.0367
      6  CG        31.7960    8.5950  -17.4990 C.3   117  GLN117      0.0905
      7  CD        30.6710    8.8710  -18.4860 C.2   117  GLN117      0.2608
      8  OE1       30.3590    8.0350  -19.3500 O.2   117  GLN117     -0.2717
      9  NE2       30.0520   10.0480  -18.3660 N.am  117  GLN117     -0.0878
     10  N         25.9640   13.0510  -12.1600 N.3   141  GLU141     -0.1231
     11  CA        25.4270   12.6120  -13.4640 C.3   141  GLU141      0.1699
     12  C         26.2630   13.0320  -14.6850 C.2   141  GLU141      0.2592
     13  O         26.5660   12.2100  -15.5490 O.2   141  GLU141     -0.2718
     14  CB        23.9550   13.0300  -13.6240 C.3   141  GLU141      0.0402
     15  CG        23.6450   14.5010  -13.2980 C.3   141  GLU141      0.1161
     16  CD        22.1690   14.8720  -13.4840 C.2   141  GLU141      0.3649
     17  OE1       21.3960   14.0610  -14.0420 O.co2 141  GLU141     -0.2457
     18  OE2       21.7820   15.9850  -13.0690 O.co2 141  GLU141     -0.2457
     19  N         26.6340   14.3100  -14.7350 N.am  142  THR142     -0.1953
     20  CA        27.4470   14.8690  -15.8130 C.3   142  THR142      0.1897
     21  C         28.3280   15.9920  -15.2510 C.2   142  THR142      0.2313
     22  O         28.3530   16.2110  -14.0430 O.2   142  THR142     -0.2863
     23  CB        26.5620   15.3510  -17.0090 C.3   142  THR142      0.1794
     24  OG1       27.3890   15.7180  -18.1190 O.3   142  THR142     -0.2208
     25  CG2       25.6870   16.5300  -16.6320 C.3   142  THR142      0.0378
     26  N         25.0470   24.3340  -15.8200 N.3   162  LYS162     -0.1245
     27  CA        23.7360   23.6860  -15.6500 C.3   162  LYS162      0.1561
     28  C         22.9220   24.2410  -14.4850 C.2   162  LYS162      0.2260
     29  O         23.4800   24.6550  -13.4750 O.2   162  LYS162     -0.2867
     30  CB        23.8870   22.1630  -15.5380 C.3   162  LYS162      0.0271
     31  CG        24.2700   21.4970  -16.8570 C.3   162  LYS162      0.0035
     32  CD        23.8910   20.0260  -16.8900 C.3   162  LYS162      0.0206
     33  CE        23.9380   19.4710  -18.3090 C.3   162  LYS162      0.1093
     34  NZ        22.8080   19.9650  -19.1610 N.3   162  LYS162     -0.1314
     35  N         21.2070    6.4560  -10.1320 N.3   202  MET202     -0.1245
     36  CA        22.0880    7.4240  -10.7690 C.3   202  MET202      0.1570
     37  C         22.8800    6.8030  -11.9220 C.2   202  MET202      0.2261
     38  O         23.0480    7.4220  -12.9780 O.2   202  MET202     -0.2867
     39  CB        23.0320    8.0000   -9.7080 C.3   202  MET202      0.0387
     40  CG        24.2020    8.8250  -10.2290 C.3   202  MET202      0.0595
     41  SD        23.6970   10.2790  -11.1640 S.3   202  MET202     -0.1393
     42  CE        22.5990   11.0930   -9.9980 C.3   202  MET202      0.0692
     43  N         20.2500    6.0040  -14.6760 N.3   205  MET205     -0.1230
     44  CA        19.7870    7.2700  -15.2450 C.3   205  MET205      0.1702
     45  C         20.8230    7.9540  -16.1400 C.2   205  MET205      0.2593
     46  O         20.5530    9.0140  -16.7240 O.2   205  MET205     -0.2718
     47  CB        19.3440    8.2230  -14.1360 C.3   205  MET205      0.0401
     48  CG        18.0160    7.8480  -13.4970 C.3   205  MET205      0.0596
     49  SD        16.6690    7.8140  -14.6840 S.3   205  MET205     -0.1393
     50  CE        16.5120    9.5590  -15.0390 C.3   205  MET205      0.0692
     51  N         22.0030    7.3420  -16.2480 N.am  206  SER206     -0.1938
     52  CA        23.0290    7.7890  -17.1870 C.3   206  SER206      0.2055
     53  C         22.5530    7.6510  -18.6250 C.2   206  SER206      0.2643
     54  O         23.0630    8.3190  -19.5240 O.2   206  SER206     -0.2714
     55  CB        24.3150    6.9900  -16.9940 C.3   206  SER206      0.2130
     56  OG        24.8870    7.2770  -15.7310 O.3   206  SER206     -0.2179
     57  N         21.5700    6.7770  -18.8280 N.am  207  TYR207     -0.1973
     58  CA        21.0440    6.4810  -20.1500 C.3   207  TYR207      0.1639
     59  C         22.2090    6.3070  -21.1230 C.2   207  TYR207      0.2290
     60  O         22.2710    6.9760  -22.1620 O.2   207  TYR207     -0.2864
     61  CB        20.1040    7.5980  -20.6250 C.3   207  TYR207      0.0560
     62  CG        18.8120    7.7480  -19.8480 C.ar  207  TYR207     -0.0198
     63  CD1       18.1110    6.6300  -19.3750 C.ar  207  TYR207     -0.0009
     64  CD2       18.2660    9.0110  -19.6160 C.ar  207  TYR207     -0.0009
     65  CE1       16.9130    6.7700  -18.6740 C.ar  207  TYR207      0.0417
     66  CE2       17.0690    9.1620  -18.9170 C.ar  207  TYR207      0.0417
     67  CZ        16.4010    8.0390  -18.4530 C.ar  207  TYR207      0.1957
     68  OH        15.2240    8.1900  -17.7650 O.3   207  TYR207     -0.2866
     69  N         23.6660    7.9020  -26.7810 N.3   211  HIS211     -0.1241
     70  CA        24.5530    8.2110  -27.9030 C.3   211  HIS211      0.1621
     71  C         24.7700    7.0320  -28.8720 C.2   211  HIS211      0.2264
     72  O         24.6880    7.2250  -30.0890 O.2   211  HIS211     -0.2867
     73  CB        25.8630    8.8470  -27.4230 C.3   211  HIS211      0.0745
     74  CG        25.6710   10.1760  -26.7590 C.ar  211  HIS211      0.0817
     75  ND1       25.9590   10.3930  -25.4290 N.ar  211  HIS211     -0.2268
     76  CD2       25.2020   11.3530  -27.2400 C.ar  211  HIS211      0.1154
     77  CE1       25.6890   11.6500  -25.1220 C.ar  211  HIS211      0.1986
     78  NE2       25.2290   12.2540  -26.2030 N.ar  211  HIS211     -0.2212
     79  N         12.0990   12.3420  -18.2910 N.3   277  TRP277     -0.1241
     80  CA        13.3450   12.9650  -17.8540 C.3   277  TRP277      0.1605
     81  C         13.6400   14.2460  -18.6260 C.2   277  TRP277      0.2264
     82  O         14.0460   15.2460  -18.0320 O.2   277  TRP277     -0.2867
     83  CB        14.5210   11.9860  -17.9650 C.3   277  TRP277      0.0550
     84  CG        15.8410   12.6050  -17.6070 C.ar  277  TRP277      0.0003
     85  CD1       16.3810   12.7220  -16.3570 C.ar  277  TRP277      0.0946
     86  CD2       16.7780   13.2050  -18.5070 C.ar  277  TRP277      0.0152
     87  NE1       17.5990   13.3520  -16.4250 N.ar  277  TRP277     -0.2442
     88  CE2       17.8670   13.6620  -17.7320 C.ar  277  TRP277      0.0810
     89  CE3       16.8030   13.4060  -19.8960 C.ar  277  TRP277      0.0012
     90  CZ2       18.9730   14.3060  -18.2990 C.ar  277  TRP277      0.0191
     91  CZ3       17.9020   14.0460  -20.4600 C.ar  277  TRP277      0.0001
     92  CH2       18.9720   14.4880  -19.6610 C.ar  277  TRP277      0.0015
     93  N         31.0720    5.6380  -23.5560 N.3   328  ASP328     -0.1239
     94  CA        29.6950    5.2350  -23.2670 C.3   328  ASP328      0.1674
     95  C         29.4410    3.7260  -23.3400 C.2   328  ASP328      0.2266
     96  O         28.4650    3.2390  -22.7710 O.2   328  ASP328     -0.2867
     97  CB        28.7100    5.9810  -24.1740 C.3   328  ASP328      0.1410
     98  CG        28.6150    7.4720  -23.8560 C.2   328  ASP328      0.3668
     99  OD1       27.6340    8.1110  -24.3030 O.co2 328  ASP328     -0.2456
    100  OD2       29.5120    8.0100  -23.1650 O.co2 328  ASP328     -0.2456
@<TRIPOS>BOND
     1    72    71    2
     2    71    70    1
     3    70    73    1
     4    70    69    1
     5    73    74    1
     6    76    74   ar
     7    76    78   ar
     8    74    75   ar
     9    78    77   ar
    10    75    77   ar
    11    99    98   ar
    12    97    98    1
    13    97    94    1
    14    98   100   ar
    15    93    94    1
    16    95    94    1
    17    95    96    2
    18    60    59    2
    19    59    58    1
    20    61    58    1
    21    61    62    1
    22    91    89   ar
    23    91    92   ar
    24    58    57    1
    25    89    86   ar
    26    62    64   ar
    27    62    63   ar
    28    92    90   ar
    29    64    66   ar
    30    54    53    2
    31    63    65   ar
    32     8     7    2
    33    34    33    1
    34    66    67   ar
    35    57    53   am
    36    65    67   ar
    37    81    82    2
    38    81    80    1
    39    53    52    1
    40    86    88   ar
    41    86    84   ar
    42     7     9   am
    43     7     6    1
    44    67    68    1
    45    33    32    1
    46    90    88   ar
    47    79    80    1
    48    24    23    1
    49    83    80    1
    50    83    84    1
    51    88    87   ar
    52    84    85   ar
    53     6     5    1
    54    52    55    1
    55    52    51    1
    56    23    25    1
    57    23    20    1
    58    55    56    1
    59    32    31    1
    60    31    30    1
    61    46    45    2
    62     5     2    1
    63    87    85   ar
    64    51    45   am
    65    45    44    1
    66    26    27    1
    67    20    21    1
    68    20    19    1
    69    27    30    1
    70    27    28    1
    71     2     3    1
    72     2     1    1
    73    13    12    2
    74    21    22    2
    75    44    43    1
    76    44    47    1
    77    50    49    1
    78     3     4    2
    79    19    12   am
    80    12    11    1
    81    49    48    1
    82    28    29    2
    83    47    48    1
    84    17    16   ar
    85    14    11    1
    86    14    15    1
    87    16    15    1
    88    16    18   ar
    89    11    10    1
    90    38    37    2
    91    37    36    1
    92    41    40    1
    93    41    42    1
    94    36    35    1
    95    36    39    1
    96    40    39    1
