@<TRIPOS>MOLECULE
tmp/3iqeD01.pdb
 176 169 0 0 0
SMALL
GASTEIGER

@<TRIPOS>ATOM
      1  N         -6.0310  -32.4820   36.0590 N.3    11  GLY11      -0.1210
      2  CA        -6.0800  -31.0330   36.3060 C.3    11  GLY11       0.1956
      3  C         -5.3680  -30.3780   35.1500 C.2    11  GLY11       0.2612
      4  O         -4.9270  -31.0790   34.2650 O.2    11  GLY11      -0.2717
      5  N         -5.1920  -29.0600   35.1530 N.am   12  ASN12      -0.1960
      6  CA        -4.6240  -28.3930   33.9970 C.3    12  ASN12       0.1819
      7  C         -3.5540  -27.3690   34.3450 C.2    12  ASN12       0.2621
      8  O         -3.6880  -26.5950   35.3000 O.2    12  ASN12      -0.2715
      9  CB        -5.7200  -27.6860   33.2000 C.3    12  ASN12       0.1195
     10  CG        -5.2470  -27.2250   31.8460 C.2    12  ASN12       0.2630
     11  OD1       -4.8260  -28.0200   31.0270 O.2    12  ASN12      -0.2716
     12  ND2       -5.3100  -25.9280   31.6060 N.am   12  ASN12      -0.0877
     13  N         -2.5010  -27.4160   33.5440 N.am   13  LEU13      -0.1963
     14  CA        -1.4360  -26.4360   33.5420 C.3    13  LEU13       0.1728
     15  C         -1.1690  -26.0130   32.1140 C.2    13  LEU13       0.2616
     16  O         -1.3840  -26.7740   31.1800 O.2    13  LEU13      -0.2715
     17  CB        -0.1780  -27.0740   34.1260 C.3    13  LEU13       0.0311
     18  CG         0.3510  -26.5930   35.4800 C.3    13  LEU13       0.0022
     19  CD1       -0.6800  -26.1350   36.5350 C.3    13  LEU13       0.0001
     20  CD2        1.2790  -27.6410   36.0230 C.3    13  LEU13       0.0001
     21  N         -0.7160  -24.7890   31.9260 N.am   14  GLY14      -0.1955
     22  CA        -0.3020  -24.3640   30.5970 C.3    14  GLY14       0.1869
     23  C          0.6010  -25.3910   29.9720 C.2    14  GLY14       0.2309
     24  O          0.3720  -25.8100   28.8380 O.2    14  GLY14      -0.2863
     25  N        -10.0730  -32.0780   34.3580 N.3    41  VAL41      -0.1245
     26  CA        -9.6640  -31.1790   35.4330 C.3    41  VAL41       0.1561
     27  C         -9.5850  -31.8080   36.8190 C.2    41  VAL41       0.2260
     28  O         -9.0590  -31.1960   37.7490 O.2    41  VAL41      -0.2867
     29  CB       -10.6420  -30.0020   35.5710 C.3    41  VAL41       0.0252
     30  CG1      -10.9110  -29.3510   34.2300 C.3    41  VAL41       0.0019
     31  CG2      -11.9260  -30.4520   36.1670 C.3    41  VAL41       0.0019
     32  N         -1.1510  -29.9250   37.8630 N.3    72  PRO72      -0.2116
     33  CA        -0.8240  -28.9680   38.9000 C.3    72  PRO72       0.1372
     34  C         -0.3120  -29.6590   40.1640 C.2    72  PRO72       0.2244
     35  O         -0.5780  -30.8500   40.3800 O.2    72  PRO72      -0.2868
     36  CB        -2.1650  -28.2810   39.1780 C.3    72  PRO72       0.0268
     37  CG        -3.0110  -28.5760   38.0420 C.3    72  PRO72       0.0207
     38  CD        -2.5820  -29.9210   37.5420 C.3    72  PRO72       0.0892
     39  N          4.1340  -21.0670   35.3850 N.3   121  ASP121     -0.1225
     40  CA         2.8810  -21.7100   35.0320 C.3   121  ASP121      0.1805
     41  C          1.9390  -21.5790   36.2120 C.2   121  ASP121      0.2598
     42  O          1.6840  -22.5250   36.9120 O.2   121  ASP121     -0.2718
     43  CB         3.1280  -23.1690   34.6980 C.3   121  ASP121      0.1424
     44  CG         2.0400  -23.7680   33.8070 C.2   121  ASP121      0.3668
     45  OD1        0.8670  -23.3080   33.8550 O.co2 121  ASP121     -0.2456
     46  OD2        2.3860  -24.7090   33.0620 O.co2 121  ASP121     -0.2456
     47  N          1.3960  -20.3870   36.3870 N.am  122  ALA122     -0.1966
     48  CA         0.7300  -20.0340   37.6360 C.3   122  ALA122      0.1728
     49  C         -0.7460  -20.5010   37.7320 C.2   122  ALA122      0.2616
     50  O         -1.4870  -20.4920   36.7270 O.2   122  ALA122     -0.2715
     51  CB         0.8000  -18.5010   37.7950 C.3   122  ALA122      0.0334
     52  N         -1.1570  -20.8430   38.9470 N.am  123  MET123     -0.1963
     53  CA        -2.5590  -21.1610   39.2940 C.3   123  MET123      0.1736
     54  C         -3.4780  -19.9600   39.0720 C.2   123  MET123      0.2616
     55  O         -3.1020  -18.8360   39.3520 O.2   123  MET123     -0.2715
     56  CB        -2.6680  -21.6170   40.7550 C.3   123  MET123      0.0427
     57  CG        -4.0460  -22.0700   41.0690 C.3   123  MET123      0.0599
     58  SD        -4.3080  -22.4830   42.7940 S.3   123  MET123     -0.1393
     59  CE        -4.9740  -20.9600   43.3890 C.3   123  MET123      0.0692
     60  N         -4.6640  -20.1850   38.5080 N.am  124  LEU124     -0.1977
     61  CA        -5.5600  -19.0900   38.1890 C.3   124  LEU124      0.1596
     62  C         -6.5290  -18.7500   39.3550 C.2   124  LEU124      0.2287
     63  O         -6.5120  -19.3930   40.3840 O.2   124  LEU124     -0.2864
     64  CB        -6.2960  -19.4050   36.8780 C.3   124  LEU124      0.0297
     65  CG        -7.0680  -20.7110   36.7210 C.3   124  LEU124      0.0022
     66  CD1       -8.1490  -20.7280   37.8070 C.3   124  LEU124      0.0001
     67  CD2       -7.6850  -20.7820   35.3650 C.3   124  LEU124      0.0001
     68  N         -9.3230  -19.1930   40.8580 N.3   126  ALA126     -0.1231
     69  CA       -10.4450  -20.1000   40.8960 C.3   126  ALA126      0.1694
     70  C        -11.4380  -19.8490   41.9940 C.2   126  ALA126      0.2592
     71  O        -11.4810  -20.6090   42.9830 O.2   126  ALA126     -0.2718
     72  CB        -9.9510  -21.5150   40.9640 C.3   126  ALA126      0.0304
     73  N        -12.2430  -18.8130   41.8120 N.am  127  ARG127     -0.1966
     74  CA       -13.4180  -18.5560   42.6430 C.3   127  ARG127      0.1729
     75  C        -14.6360  -18.5090   41.7170 C.2   127  ARG127      0.2616
     76  O        -14.6000  -17.8620   40.6680 O.2   127  ARG127     -0.2715
     77  CB       -13.2630  -17.2250   43.3730 C.3   127  ARG127      0.0348
     78  CG       -12.1940  -17.1810   44.4580 C.3   127  ARG127      0.0492
     79  CD       -12.6170  -18.0670   45.6350 C.3   127  ARG127      0.2205
     80  NE       -11.9050  -17.7150   46.8540 N.pl3 127  ARG127     -0.0865
     81  CZ       -12.2730  -18.1050   48.0660 C.cat 127  ARG127      0.5346
     82  NH1      -11.5800  -17.7250   49.1310 N.pl3 127  ARG127      0.1354
     83  NH2      -13.3080  -18.9220   48.2320 N.pl3 127  ARG127      0.1354
     84  N        -15.7190  -19.1520   42.1380 N.am  128  ARG128     -0.1963
     85  CA       -16.9330  -19.2330   41.3450 C.3   128  ARG128      0.1729
     86  C        -17.5280  -17.8750   40.9060 C.2   128  ARG128      0.2616
     87  O        -18.1350  -17.8030   39.8470 O.2   128  ARG128     -0.2715
     88  CB       -17.9870  -20.0350   42.1000 C.3   128  ARG128      0.0348
     89  CG       -19.2620  -20.1660   41.2970 C.3   128  ARG128      0.0492
     90  CD       -20.2900  -21.0390   41.9860 C.3   128  ARG128      0.2205
     91  NE       -19.7130  -22.2940   42.4770 N.pl3 128  ARG128     -0.0865
     92  CZ       -19.5490  -22.6070   43.7520 C.cat 128  ARG128      0.5346
     93  NH1      -19.0110  -23.7740   44.0760 N.pl3 128  ARG128      0.1354
     94  NH2      -19.9440  -21.7810   44.7100 N.pl3 128  ARG128      0.1354
     95  N        -17.3600  -16.8210   41.7110 N.am  129  GLU129     -0.1977
     96  CA       -17.9070  -15.4820   41.3960 C.3   129  GLU129      0.1602
     97  C        -17.2140  -14.8310   40.1920 C.2   129  GLU129      0.2287
     98  O        -17.7670  -13.9440   39.5490 O.2   129  GLU129     -0.2864
     99  CB       -17.8020  -14.5780   42.6260 C.3   129  GLU129      0.0415
    100  CG       -18.6150  -15.0370   43.8410 C.3   129  GLU129      0.1163
    101  CD       -17.7880  -15.8300   44.8790 C.2   129  GLU129      0.3649
    102  OE1      -18.1920  -15.8680   46.0650 O.co2 129  GLU129     -0.2457
    103  OE2      -16.7390  -16.4100   44.5050 O.co2 129  GLU129     -0.2457
    104  N        -14.4190  -16.9310   37.9770 N.3   131  LEU131     -0.1245
    105  CA       -13.9690  -17.8410   36.9470 C.3   131  LEU131      0.1561
    106  C        -15.0810  -18.7200   36.4110 C.2   131  LEU131      0.2260
    107  O        -15.4710  -19.7140   37.0450 O.2   131  LEU131     -0.2867
    108  CB       -12.8010  -18.6930   37.4520 C.3   131  LEU131      0.0270
    109  CG       -12.0450  -19.4110   36.3500 C.3   131  LEU131      0.0019
    110  CD1      -10.8700  -18.6000   35.8610 C.3   131  LEU131      0.0001
    111  CD2      -11.5650  -20.7330   36.8080 C.3   131  LEU131      0.0001
    112  N        -11.6460  -18.8750   32.3680 N.3   136  MET136     -0.1245
    113  CA       -10.5970  -19.8700   32.4690 C.3   136  MET136      0.1570
    114  C         -9.8130  -19.9530   31.1430 C.2   136  MET136      0.2261
    115  O         -8.5990  -20.0430   31.1300 O.2   136  MET136     -0.2867
    116  CB       -11.2070  -21.2200   32.7780 C.3   136  MET136      0.0387
    117  CG       -10.2080  -22.3050   32.9330 C.3   136  MET136      0.0595
    118  SD       -10.0180  -23.1870   31.3850 S.3   136  MET136     -0.1393
    119  CE       -11.6920  -23.7840   31.1500 C.3   136  MET136      0.0692
    120  N         -7.5940  -16.8090   30.4280 N.3   139  TYR139     -0.1227
    121  CA        -6.3850  -16.9290   31.2270 C.3   139  TYR139      0.1736
    122  C         -5.4430  -17.9210   30.5670 C.2   139  TYR139      0.2595
    123  O         -4.2480  -17.6480   30.3940 O.2   139  TYR139     -0.2718
    124  CB        -6.7070  -17.3560   32.6540 C.3   139  TYR139      0.0548
    125  CG        -5.4990  -17.5700   33.5100 C.ar  139  TYR139     -0.0200
    126  CD1       -5.0640  -16.5740   34.3700 C.ar  139  TYR139     -0.0009
    127  CD2       -4.8420  -18.8240   33.5520 C.ar  139  TYR139     -0.0009
    128  CE1       -4.0020  -16.7470   35.1770 C.ar  139  TYR139      0.0417
    129  CE2       -3.7340  -19.0010   34.3780 C.ar  139  TYR139      0.0417
    130  CZ        -3.3250  -17.9440   35.1780 C.ar  139  TYR139      0.1957
    131  OH        -2.2400  -18.0730   36.0310 O.3   139  TYR139     -0.2866
    132  N         -5.9430  -19.0940   30.1680 N.am  140  ASN140     -0.1974
    133  CA        -5.0580  -19.9990   29.4790 C.3   140  ASN140      0.1688
    134  C         -4.4200  -19.4260   28.1970 C.2   140  ASN140      0.2292
    135  O         -3.2650  -19.7360   27.9320 O.2   140  ASN140     -0.2864
    136  CB        -5.7240  -21.3510   29.2410 C.3   140  ASN140      0.1181
    137  CG        -5.5110  -22.2720   30.4140 C.2   140  ASN140      0.2629
    138  OD1       -4.4720  -22.9090   30.5230 O.2   140  ASN140     -0.2716
    139  ND2       -6.4790  -22.3220   31.3130 N.am  140  ASN140     -0.0877
    140  N         -1.5620  -17.0290   29.3410 N.3   143  LEU143     -0.1245
    141  CA        -0.4840  -17.8860   29.8320 C.3   143  LEU143      0.1561
    142  C          0.2500  -18.6670   28.7360 C.2   143  LEU143      0.2260
    143  O          1.4870  -18.7440   28.7260 O.2   143  LEU143     -0.2867
    144  CB        -1.0650  -18.8520   30.8710 C.3   143  LEU143      0.0270
    145  CG        -0.0390  -19.8860   31.3400 C.3   143  LEU143      0.0019
    146  CD1        1.1210  -19.1980   32.0670 C.3   143  LEU143      0.0001
    147  CD2       -0.7110  -20.9880   32.2400 C.3   143  LEU143      0.0001
    148  N         -7.7270  -17.4020   46.7280 N.3   220  CYS220     -0.1221
    149  CA        -8.4530  -18.6760   46.7720 C.3   220  CYS220      0.1808
    150  C         -8.4050  -19.4140   48.0980 C.2   220  CYS220      0.2601
    151  O         -9.3350  -20.1250   48.4070 O.2   220  CYS220     -0.2717
    152  CB        -7.9360  -19.6450   45.6930 C.3   220  CYS220      0.0970
    153  SG        -8.3260  -19.1750   44.0450 S.3   220  CYS220     -0.0800
    154  N         -7.3210  -19.2590   48.8470 N.am  221  PHE221     -0.1976
    155  CA        -7.0240  -20.1360   50.0040 C.3   221  PHE221      0.1639
    156  C         -6.8600  -19.3530   51.3120 C.2   221  PHE221      0.2290
    157  O         -7.0140  -19.9140   52.3970 O.2   221  PHE221     -0.2864
    158  CB        -5.7490  -20.9400   49.7390 C.3   221  PHE221      0.0560
    159  CG        -5.8980  -21.9820   48.6540 C.ar  221  PHE221     -0.0200
    160  CD1       -6.8960  -22.9240   48.7350 C.ar  221  PHE221     -0.0042
    161  CD2       -5.0440  -22.0150   47.5690 C.ar  221  PHE221     -0.0042
    162  CE1       -7.0450  -23.8860   47.7580 C.ar  221  PHE221     -0.0003
    163  CE2       -5.2120  -22.9570   46.5740 C.ar  221  PHE221     -0.0003
    164  CZ        -6.2090  -23.9030   46.6810 C.ar  221  PHE221     -0.0000
    165  N        -11.8860  -11.1920   48.1950 N.3   229  TYR229     -0.1241
    166  CA       -11.2780  -12.2400   47.3510 C.3   229  TYR229      0.1605
    167  C        -11.6530  -12.1760   45.8550 C.2   229  TYR229      0.2264
    168  O        -10.8760  -12.6070   45.0130 O.2   229  TYR229     -0.2867
    169  CB       -11.4390  -13.6640   47.9400 C.3   229  TYR229      0.0534
    170  CG       -12.7910  -14.3080   47.8940 C.ar  229  TYR229     -0.0201
    171  CD1      -13.3690  -14.7900   49.0720 C.ar  229  TYR229     -0.0009
    172  CD2      -13.4590  -14.5320   46.7040 C.ar  229  TYR229     -0.0009
    173  CE1      -14.5850  -15.4050   49.0720 C.ar  229  TYR229      0.0417
    174  CE2      -14.6870  -15.1830   46.6920 C.ar  229  TYR229      0.0417
    175  CZ       -15.2500  -15.5980   47.9080 C.ar  229  TYR229      0.1957
    176  OH       -16.4400  -16.2890   47.9630 O.3   229  TYR229     -0.2866
@<TRIPOS>BOND
     1   135   134    2
     2   134   133    1
     3   143   142    2
     4   142   141    1
     5    24    23    2
     6   136   133    1
     7   136   137    1
     8   140   141    1
     9   133   132    1
    10   141   144    1
    11    23    22    1
    12   132   122   am
    13   123   122    2
    14   137   138    2
    15   137   139   am
    16   120   121    1
    17   122   121    1
    18    22    21    1
    19   144   145    1
    20    11    10    2
    21   115   114    2
    22   114   113    1
    23   119   118    1
    24    16    15    2
    25   121   124    1
    26   145   146    1
    27   145   147    1
    28   118   117    1
    29    12    10   am
    30    10     9    1
    31    21    15   am
    32    15    14    1
    33   112   113    1
    34   113   116    1
    35   124   125    1
    36   116   117    1
    37    46    44   ar
    38     9     6    1
    39   125   127   ar
    40   125   126   ar
    41    14    13    1
    42    14    17    1
    43    13     7   am
    44   127   129   ar
    45    44    45   ar
    46    44    43    1
    47     6     7    1
    48     6     5    1
    49    17    18    1
    50    30    29    1
    51     4     3    2
    52     7     8    2
    53    25    26    1
    54   126   128   ar
    55   129   130   ar
    56    43    40    1
    57    40    39    1
    58    40    41    1
    59     3     5   am
    60     3     2    1
    61   128   130   ar
    62   130   131    1
    63    67    65    1
    64    26    29    1
    65    26    27    1
    66    18    20    1
    67    18    19    1
    68    29    31    1
    69   110   109    1
    70     1     2    1
    71    41    47   am
    72    41    42    2
    73   109   111    1
    74   109   108    1
    75    47    48    1
    76   106   105    1
    77   106   107    2
    78    65    64    1
    79    65    66    1
    80    50    49    2
    81    27    28    2
    82    64    61    1
    83   105   108    1
    84   105   104    1
    85    38    32    1
    86    38    37    1
    87    48    49    1
    88    48    51    1
    89    49    52   am
    90    32    33    1
    91    37    36    1
    92    61    60    1
    93    61    62    1
    94    60    54   am
    95    33    36    1
    96    33    34    1
    97    52    53    1
    98    54    53    1
    99    54    55    2
   100    53    56    1
   101    62    63    2
   102    98    97    2
   103    87    86    2
   104    34    35    2
   105    97    96    1
   106    76    75    2
   107    56    57    1
   108    68    69    1
   109    69    72    1
   110    69    70    1
   111    86    85    1
   112    86    95   am
   113    57    58    1
   114    89    90    1
   115    89    88    1
   116    85    88    1
   117    85    84    1
   118    96    95    1
   119    96    99    1
   120    75    84   am
   121    75    74    1
   122    73    70   am
   123    73    74    1
   124    90    91    1
   125    70    71    2
   126    91    92    2
   127    99   100    1
   128    74    77    1
   129    58    59    1
   130    77    78    1
   131    92    93    1
   132    92    94    1
   133   100   101    1
   134   153   152    1
   135    78    79    1
   136   103   101   ar
   137   101   102   ar
   138   168   167    2
   139    79    80    1
   140   152   149    1
   141   167   166    1
   142   163   164   ar
   143   163   161   ar
   144   164   162   ar
   145   174   172   ar
   146   174   175   ar
   147   172   170   ar
   148   148   149    1
   149   149   150    1
   150    80    81    2
   151   166   169    1
   152   166   165    1
   153   161   159   ar
   154   162   160   ar
   155   170   169    1
   156   170   171   ar
   157   175   176    1
   158   175   173   ar
   159    81    83    1
   160    81    82    1
   161   150   151    2
   162   150   154   am
   163   159   160   ar
   164   159   158    1
   165   154   155    1
   166   171   173   ar
   167   158   155    1
   168   155   156    1
   169   156   157    2
