@<TRIPOS>MOLECULE
tmp/3iqeD02.pdb
 129 123 0 0 0
SMALL
GASTEIGER

@<TRIPOS>ATOM
      1  N         -6.0310  -32.4820   36.0590 N.3    11  GLY11      -0.1210
      2  CA        -6.0800  -31.0330   36.3060 C.3    11  GLY11       0.1956
      3  C         -5.3680  -30.3780   35.1500 C.2    11  GLY11       0.2612
      4  O         -4.9270  -31.0790   34.2650 O.2    11  GLY11      -0.2717
      5  N         -5.1920  -29.0600   35.1530 N.am   12  ASN12      -0.1960
      6  CA        -4.6240  -28.3930   33.9970 C.3    12  ASN12       0.1819
      7  C         -3.5540  -27.3690   34.3450 C.2    12  ASN12       0.2621
      8  O         -3.6880  -26.5950   35.3000 O.2    12  ASN12      -0.2715
      9  CB        -5.7200  -27.6860   33.2000 C.3    12  ASN12       0.1195
     10  CG        -5.2470  -27.2250   31.8460 C.2    12  ASN12       0.2630
     11  OD1       -4.8260  -28.0200   31.0270 O.2    12  ASN12      -0.2716
     12  ND2       -5.3100  -25.9280   31.6060 N.am   12  ASN12      -0.0877
     13  N         -2.5010  -27.4160   33.5440 N.am   13  LEU13      -0.1977
     14  CA        -1.4360  -26.4360   33.5420 C.3    13  LEU13       0.1596
     15  C         -1.1690  -26.0130   32.1140 C.2    13  LEU13       0.2287
     16  O         -1.3840  -26.7740   31.1800 O.2    13  LEU13      -0.2864
     17  CB        -0.1780  -27.0740   34.1260 C.3    13  LEU13       0.0297
     18  CG         0.3510  -26.5930   35.4800 C.3    13  LEU13       0.0022
     19  CD1       -0.6800  -26.1350   36.5350 C.3    13  LEU13       0.0001
     20  CD2        1.2790  -27.6410   36.0230 C.3    13  LEU13       0.0001
     21  N        -10.0730  -32.0780   34.3580 N.3    41  VAL41      -0.1231
     22  CA        -9.6640  -31.1790   35.4330 C.3    41  VAL41       0.1692
     23  C         -9.5850  -31.8080   36.8190 C.2    41  VAL41       0.2592
     24  O         -9.0590  -31.1960   37.7490 O.2    41  VAL41      -0.2718
     25  CB       -10.6420  -30.0020   35.5710 C.3    41  VAL41       0.0266
     26  CG1      -10.9110  -29.3510   34.2300 C.3    41  VAL41       0.0020
     27  CG2      -11.9260  -30.4520   36.1670 C.3    41  VAL41       0.0020
     28  N        -10.1490  -32.9980   36.9730 N.am   42  LYS42      -0.1966
     29  CA       -10.1700  -33.6480   38.2590 C.3    42  LYS42       0.1728
     30  C         -8.8040  -34.2790   38.5560 C.2    42  LYS42       0.2616
     31  O         -8.2190  -34.9930   37.7250 O.2    42  LYS42      -0.2715
     32  CB       -11.2850  -34.7000   38.2920 C.3    42  LYS42       0.0311
     33  CG       -12.6790  -34.1320   37.9400 C.3    42  LYS42       0.0038
     34  CD       -13.5860  -34.1200   39.1910 C.3    42  LYS42       0.0206
     35  CE       -15.0950  -34.0100   38.8590 C.3    42  LYS42       0.1093
     36  NZ       -15.7190  -32.6620   39.1310 N.3    42  LYS42      -0.1314
     37  N         -8.2840  -33.9820   39.7370 N.am   43  MET43      -0.1977
     38  CA        -7.0200  -34.5420   40.1640 C.3    43  MET43       0.1605
     39  C         -7.0620  -34.9620   41.6270 C.2    43  MET43       0.2287
     40  O         -6.0440  -34.9020   42.3300 O.2    43  MET43      -0.2864
     41  CB        -5.9160  -33.5260   39.9570 C.3    43  MET43       0.0413
     42  CG        -6.3240  -32.1350   40.3900 C.3    43  MET43       0.0598
     43  SD        -4.9580  -30.9800   40.2600 S.3    43  MET43      -0.1393
     44  CE        -3.9990  -31.4760   41.6980 C.3    43  MET43       0.0692
     45  N         -1.1510  -29.9250   37.8630 N.3    72  PRO72      -0.2102
     46  CA        -0.8240  -28.9680   38.9000 C.3    72  PRO72       0.1504
     47  C         -0.3120  -29.6590   40.1640 C.2    72  PRO72       0.2575
     48  O         -0.5780  -30.8500   40.3800 O.2    72  PRO72      -0.2718
     49  CB        -2.1650  -28.2810   39.1780 C.3    72  PRO72       0.0282
     50  CG        -3.0110  -28.5760   38.0420 C.3    72  PRO72       0.0208
     51  CD        -2.5820  -29.9210   37.5420 C.3    72  PRO72       0.0893
     52  N          0.4630  -28.9120   40.9350 N.am   73  ASN73      -0.1975
     53  CA         0.9380  -29.2980   42.2700 C.3    73  ASN73       0.1688
     54  C          1.2200  -30.7760   42.5620 C.2    73  ASN73       0.2292
     55  O          0.3760  -31.5030   43.0670 O.2    73  ASN73      -0.2864
     56  CB        -0.0120  -28.7370   43.3210 C.3    73  ASN73       0.1181
     57  CG         0.5930  -28.7440   44.7070 C.2    73  ASN73       0.2629
     58  OD1        1.7220  -29.2100   44.9000 O.2    73  ASN73      -0.2716
     59  ND2       -0.1500  -28.2220   45.6820 N.am   73  ASN73      -0.0877
     60  N          0.3130  -32.1660   46.0740 N.3    76  ALA76      -0.1231
     61  CA        -1.0700  -32.3570   46.4410 C.3    76  ALA76       0.1679
     62  C         -1.4000  -33.8220   46.5600 C.2    76  ALA76       0.2434
     63  O         -0.6500  -34.7000   46.0930 O.2    76  ALA76      -0.2733
     64  CB        -1.9790  -31.6940   45.4020 C.3    76  ALA76       0.0304
     65  N         -2.5320  -34.1140   47.1810 N.am   77  PRO77      -0.2729
     66  CA        -2.8100  -35.5230   47.4520 C.3    77  PRO77       0.1401
     67  C         -2.9020  -36.4010   46.1930 C.2    77  PRO77       0.2269
     68  O         -2.3550  -37.5130   46.1640 O.2    77  PRO77      -0.2865
     69  CB        -4.1430  -35.4710   48.2040 C.3    77  PRO77       0.0296
     70  CG        -4.1940  -34.1110   48.8010 C.3    77  PRO77       0.0237
     71  CD        -3.4480  -33.2010   47.8870 C.3    77  PRO77       0.0939
     72  N          3.9550  -27.3020   38.6580 N.3    98  ASP98      -0.1239
     73  CA         4.2400  -25.9070   38.8660 C.3    98  ASP98       0.1674
     74  C          5.1470  -25.6990   40.0880 C.2    98  ASP98       0.2266
     75  O          5.8690  -26.6100   40.4980 O.2    98  ASP98      -0.2867
     76  CB         2.9440  -25.0960   38.9410 C.3    98  ASP98       0.1410
     77  CG         1.9050  -25.6920   39.8750 C.2    98  ASP98       0.3668
     78  OD1        1.0850  -24.9240   40.4060 O.co2  98  ASP98      -0.2456
     79  OD2        1.8890  -26.9070   40.0820 O.co2  98  ASP98      -0.2456
     80  N          4.5480  -25.1320   43.2530 N.3   100  PRO100     -0.2116
     81  CA         4.3050  -25.8510   44.4890 C.3   100  PRO100      0.1372
     82  C          5.0180  -27.2120   44.5260 C.2   100  PRO100      0.2244
     83  O          5.2770  -27.7700   45.6180 O.2   100  PRO100     -0.2868
     84  CB         2.7870  -26.0250   44.4930 C.3   100  PRO100      0.0268
     85  CG         2.2730  -24.8960   43.7030 C.3   100  PRO100      0.0207
     86  CD         3.3030  -24.6980   42.6010 C.3   100  PRO100      0.0892
     87  N          8.1700  -28.1830   46.9430 N.3   103  LYS103     -0.1245
     88  CA         8.0430  -28.7840   48.2530 C.3   103  LYS103      0.1561
     89  C          8.4020  -30.2730   48.2560 C.2   103  LYS103      0.2260
     90  O          8.8310  -30.8070   49.2880 O.2   103  LYS103     -0.2867
     91  CB         6.6220  -28.5830   48.7470 C.3   103  LYS103      0.0271
     92  CG         6.2720  -27.1010   48.9860 C.3   103  LYS103      0.0035
     93  CD         4.7610  -26.8790   49.1810 C.3   103  LYS103      0.0206
     94  CE         3.9280  -27.4060   48.0050 C.3   103  LYS103      0.1093
     95  NZ         2.4880  -27.6420   48.3760 N.3   103  LYS103     -0.1314
     96  N         -1.1570  -20.8430   38.9470 N.3   123  MET123     -0.1230
     97  CA        -2.5590  -21.1610   39.2940 C.3   123  MET123      0.1702
     98  C         -3.4780  -19.9600   39.0720 C.2   123  MET123      0.2592
     99  O         -3.1020  -18.8360   39.3520 O.2   123  MET123     -0.2718
    100  CB        -2.6680  -21.6170   40.7550 C.3   123  MET123      0.0401
    101  CG        -4.0460  -22.0700   41.0690 C.3   123  MET123      0.0596
    102  SD        -4.3080  -22.4830   42.7940 S.3   123  MET123     -0.1393
    103  CE        -4.9740  -20.9600   43.3890 C.3   123  MET123      0.0692
    104  N         -4.6640  -20.1850   38.5080 N.am  124  LEU124     -0.1980
    105  CA        -5.5600  -19.0900   38.1890 C.3   124  LEU124      0.1596
    106  C         -6.5290  -18.7500   39.3550 C.2   124  LEU124      0.2287
    107  O         -6.5120  -19.3930   40.3840 O.2   124  LEU124     -0.2864
    108  CB        -6.2960  -19.4050   36.8780 C.3   124  LEU124      0.0297
    109  CG        -7.0680  -20.7110   36.7210 C.3   124  LEU124      0.0022
    110  CD1       -8.1490  -20.7280   37.8070 C.3   124  LEU124      0.0001
    111  CD2       -7.6850  -20.7820   35.3650 C.3   124  LEU124      0.0001
    112  N         -3.3540  -17.6740   45.1300 N.3   217  VAL217     -0.1245
    113  CA        -3.3590  -18.4680   46.3630 C.3   217  VAL217      0.1561
    114  C         -3.9650  -17.6490   47.5240 C.2   217  VAL217      0.2260
    115  O         -4.7550  -18.1640   48.3390 O.2   217  VAL217     -0.2867
    116  CB        -1.9290  -18.9780   46.6890 C.3   217  VAL217      0.0252
    117  CG1       -1.8340  -19.4180   48.1240 C.3   217  VAL217      0.0019
    118  CG2       -1.5600  -20.1430   45.7530 C.3   217  VAL217      0.0019
    119  N         -7.3210  -19.2590   48.8470 N.3   221  PHE221     -0.1241
    120  CA        -7.0240  -20.1360   50.0040 C.3   221  PHE221      0.1605
    121  C         -6.8600  -19.3530   51.3120 C.2   221  PHE221      0.2264
    122  O         -7.0140  -19.9140   52.3970 O.2   221  PHE221     -0.2867
    123  CB        -5.7490  -20.9400   49.7390 C.3   221  PHE221      0.0534
    124  CG        -5.8980  -21.9820   48.6540 C.ar  221  PHE221     -0.0203
    125  CD1       -6.8960  -22.9240   48.7350 C.ar  221  PHE221     -0.0042
    126  CD2       -5.0440  -22.0150   47.5690 C.ar  221  PHE221     -0.0042
    127  CE1       -7.0450  -23.8860   47.7580 C.ar  221  PHE221     -0.0003
    128  CE2       -5.2120  -22.9570   46.5740 C.ar  221  PHE221     -0.0003
    129  CZ        -6.2090  -23.9030   46.6810 C.ar  221  PHE221     -0.0000
@<TRIPOS>BOND
     1    11    10    2
     2    16    15    2
     3    12    10   am
     4    10     9    1
     5    15    14    1
     6     9     6    1
     7    14    13    1
     8    14    17    1
     9    13     7   am
    10     6     7    1
    11     6     5    1
    12    17    18    1
    13    26    25    1
    14     4     3    2
    15     7     8    2
    16    21    22    1
    17     3     5   am
    18     3     2    1
    19   111   109    1
    20    22    25    1
    21    22    23    1
    22    18    20    1
    23    18    19    1
    24    25    27    1
    25     1     2    1
    26   109   108    1
    27   109   110    1
    28    23    28   am
    29    23    24    2
    30   108   105    1
    31    28    29    1
    32    51    45    1
    33    51    50    1
    34    31    30    2
    35    45    46    1
    36    33    32    1
    37    33    34    1
    38    50    49    1
    39   105   104    1
    40   105   106    1
    41    29    32    1
    42    29    30    1
    43   104    98   am
    44    30    37   am
    45    72    73    1
    46    35    36    1
    47    35    34    1
    48    73    76    1
    49    73    74    1
    50    46    49    1
    51    46    47    1
    52    76    77    1
    53    96    97    1
    54    98    97    1
    55    98    99    2
    56    97   100    1
    57   106   107    2
    58    37    38    1
    59    77    79   ar
    60    77    78   ar
    61    41    38    1
    62    41    42    1
    63    74    75    2
    64    47    48    2
    65    47    52   am
    66    38    39    1
    67    43    42    1
    68    43    44    1
    69   100   101    1
    70    52    53    1
    71   101   102    1
    72    39    40    2
    73    53    54    1
    74    53    56    1
    75    54    55    2
    76    86    80    1
    77    86    85    1
    78   102   103    1
    79    80    81    1
    80    56    57    1
    81    85    84    1
    82    81    84    1
    83    81    82    1
    84    82    83    2
    85    57    58    2
    86    57    59   am
    87   112   113    1
    88    64    61    1
    89   118   116    1
    90    60    61    1
    91    63    62    2
    92    68    67    2
    93    67    66    1
    94   113   116    1
    95   113   114    1
    96    61    62    1
    97    62    65   am
    98   128   129   ar
    99   128   126   ar
   100   129   127   ar
   101   116   117    1
   102    87    88    1
   103    65    66    1
   104    65    71    1
   105    66    69    1
   106   114   115    2
   107   126   124   ar
   108   127   125   ar
   109    71    70    1
   110    94    95    1
   111    94    93    1
   112    69    70    1
   113    88    89    1
   114    88    91    1
   115    89    90    2
   116   124   125   ar
   117   124   123    1
   118    91    92    1
   119   119   120    1
   120    92    93    1
   121   123   120    1
   122   120   121    1
   123   121   122    2
