@<TRIPOS>MOLECULE
tmp/3iqgA00.pdb
 175 168 0 0 0
SMALL
GASTEIGER

@<TRIPOS>ATOM
      1  N         20.3770   -8.5490   40.8260 N.3    66  ALA66      -0.1231
      2  CA        20.1900   -7.8290   42.0730 C.3    66  ALA66       0.1694
      3  C         19.2910   -6.5920   41.9070 C.2    66  ALA66       0.2593
      4  O         19.3100   -5.7030   42.7590 O.2    66  ALA66      -0.2718
      5  CB        21.5650   -7.4240   42.6820 C.3    66  ALA66       0.0304
      6  N         18.5290   -6.5130   40.8230 N.am   67  THR67      -0.1939
      7  CA        17.5560   -5.3950   40.6680 C.3    67  THR67       0.2028
      8  C         16.1550   -5.8080   41.1500 C.2    67  THR67       0.2643
      9  O         15.6910   -6.9080   40.9110 O.2    67  THR67      -0.2714
     10  CB        17.5480   -4.7150   39.2040 C.3    67  THR67       0.1808
     11  OG1       16.4620   -3.7430   39.0730 O.3    67  THR67      -0.2208
     12  CG2       17.4800   -5.7710   38.1190 C.3    67  THR67       0.0379
     13  N         15.5070   -4.9140   41.8700 N.am   68  SER68      -0.1935
     14  CA        14.1220   -5.1190   42.2450 C.3    68  SER68       0.2055
     15  C         13.2990   -3.9190   41.8200 C.2    68  SER68       0.2644
     16  O         12.1050   -3.8270   42.1390 O.2    68  SER68      -0.2714
     17  CB        14.0010   -5.3800   43.7520 C.3    68  SER68       0.2130
     18  OG        14.8230   -4.4840   44.4890 O.3    68  SER68      -0.2179
     19  N         13.9670   -3.0000   41.1110 N.am   69  GLY69      -0.1939
     20  CA        13.3490   -1.8310   40.4810 C.3    69  GLY69       0.2014
     21  C         12.7380   -2.2910   39.1800 C.2    69  GLY69       0.2639
     22  O         12.3800   -3.4880   39.0310 O.2    69  GLY69      -0.2714
     23  N         12.6570   -1.3840   38.2090 N.am   70  ASN70      -0.1958
     24  CA        11.9420   -1.7000   36.9720 C.3    70  ASN70       0.1819
     25  C         12.5600   -2.8520   36.1840 C.2    70  ASN70       0.2621
     26  O         11.8300   -3.6600   35.6110 O.2    70  ASN70      -0.2715
     27  CB        11.7540   -0.4550   36.1020 C.3    70  ASN70       0.1195
     28  CG        10.7260    0.4980   36.6920 C.2    70  ASN70       0.2630
     29  OD1        9.8630    0.0790   37.4960 O.2    70  ASN70      -0.2716
     30  ND2       10.8480    1.7850   36.3600 N.am   70  ASN70      -0.0877
     31  N         13.8940   -2.9250   36.1720 N.am   71  THR71      -0.1951
     32  CA        14.5580   -3.9990   35.4190 C.3    71  THR71       0.1897
     33  C         14.2750   -5.3800   36.0000 C.2    71  THR71       0.2313
     34  O         14.0950   -6.3240   35.2430 O.2    71  THR71      -0.2863
     35  CB        16.0640   -3.7470   35.2470 C.3    71  THR71       0.1794
     36  OG1       16.2250   -2.4900   34.5970 O.3    71  THR71      -0.2208
     37  CG2       16.7180   -4.8350   34.3650 C.3    71  THR71       0.0378
     38  N         13.3250   -3.5770   51.5300 N.3    94  MET94      -0.1245
     39  CA        12.4890   -3.2500   50.3830 C.3    94  MET94       0.1570
     40  C         11.0090   -3.4510   50.7410 C.2    94  MET94       0.2261
     41  O         10.6750   -4.2500   51.6220 O.2    94  MET94      -0.2867
     42  CB        12.8940   -4.1030   49.1750 C.3    94  MET94       0.0387
     43  CG        14.2380   -3.7330   48.5350 C.3    94  MET94       0.0595
     44  SD        14.1820   -2.3200   47.4130 S.3    94  MET94      -0.1393
     45  CE        12.6150   -2.5850   46.5780 C.3    94  MET94       0.0692
     46  N          6.6240   -4.4660   46.6940 N.3    98  ARG98      -0.1245
     47  CA         7.6090   -4.9550   45.7220 C.3    98  ARG98       0.1563
     48  C          7.9120   -6.4410   45.8900 C.2    98  ARG98       0.2260
     49  O          8.0380   -7.1590   44.8970 O.2    98  ARG98      -0.2867
     50  CB         8.9110   -4.1450   45.7890 C.3    98  ARG98       0.0307
     51  CG         9.8510   -4.3670   44.6050 C.3    98  ARG98       0.0489
     52  CD         9.1270   -4.3250   43.2380 C.3    98  ARG98       0.2205
     53  NE         8.4090   -3.0660   43.0060 N.pl3  98  ARG98      -0.0865
     54  CZ         8.9670   -1.9380   42.5570 C.cat  98  ARG98       0.5346
     55  NH1       10.2700   -1.8890   42.2890 N.pl3  98  ARG98       0.1354
     56  NH2        8.2160   -0.8530   42.3900 N.pl3  98  ARG98       0.1354
     57  N         22.1220   -1.9600   48.7440 N.3   118  MET118     -0.1230
     58  CA        22.2640   -2.5450   47.4120 C.3   118  MET118      0.1702
     59  C         23.5560   -3.3250   47.2430 C.2   118  MET118      0.2592
     60  O         23.5790   -4.3400   46.5310 O.2   118  MET118     -0.2718
     61  CB        22.1380   -1.4940   46.3050 C.3   118  MET118      0.0401
     62  CG        20.7010   -1.2070   45.9110 C.3   118  MET118      0.0596
     63  SD        19.7560   -2.6950   45.4960 S.3   118  MET118     -0.1393
     64  CE        20.5840   -3.1870   43.9870 C.3   118  MET118      0.0692
     65  N         24.6240   -2.8600   47.8940 N.am  119  LYS119     -0.1980
     66  CA        25.9210   -3.5210   47.7750 C.3   119  LYS119      0.1596
     67  C         25.8590   -4.9830   48.2210 C.2   119  LYS119      0.2287
     68  O         26.4020   -5.8640   47.5470 O.2   119  LYS119     -0.2864
     69  CB        27.0240   -2.7450   48.5170 C.3   119  LYS119      0.0298
     70  CG        28.4230   -3.1320   48.0550 C.3   119  LYS119      0.0038
     71  CD        28.5180   -3.1510   46.5160 C.3   119  LYS119      0.0206
     72  CE        29.2030   -4.4360   46.0120 C.3   119  LYS119      0.1093
     73  NZ        30.6700   -4.4610   46.3550 N.3   119  LYS119     -0.1314
     74  N         23.9230   -7.0220   45.5740 N.3   122  ILE122     -0.1245
     75  CA        24.7770   -7.2340   44.4020 C.3   122  ILE122      0.1561
     76  C         25.8320   -8.3050   44.6700 C.2   122  ILE122      0.2260
     77  O         26.1170   -9.1380   43.8050 O.2   122  ILE122     -0.2867
     78  CB        25.4670   -5.9180   43.9430 C.3   122  ILE122      0.0252
     79  CG1       24.4220   -4.9120   43.4460 C.3   122  ILE122      0.0019
     80  CG2       26.5200   -6.1900   42.8580 C.3   122  ILE122      0.0019
     81  CD1       24.9770   -3.5240   43.1530 C.3   122  ILE122      0.0001
     82  N         22.5230   -5.0810   33.1500 N.3   141  GLN141     -0.1231
     83  CA        21.8960   -3.9700   32.4250 C.3   141  GLN141      0.1698
     84  C         22.7540   -2.7040   32.1830 C.2   141  GLN141      0.2592
     85  O         22.5170   -1.9800   31.1930 O.2   141  GLN141     -0.2718
     86  CB        20.6000   -3.5580   33.1510 C.3   141  GLN141      0.0381
     87  CG        20.8360   -2.9230   34.5040 C.3   141  GLN141      0.0905
     88  CD        19.5640   -2.4450   35.1480 C.2   141  GLN141      0.2608
     89  OE1       18.6930   -1.9140   34.4710 O.2   141  GLN141     -0.2717
     90  NE2       19.4560   -2.6180   36.4640 N.am  141  GLN141     -0.0878
     91  N         23.7030   -2.4090   33.0910 N.am  142  PHE142     -0.1976
     92  CA        24.5290   -1.2060   32.9220 C.3   142  PHE142      0.1639
     93  C         25.5640   -1.3350   31.8070 C.2   142  PHE142      0.2290
     94  O         25.9970   -0.3250   31.2580 O.2   142  PHE142     -0.2864
     95  CB        25.1810   -0.7500   34.2300 C.3   142  PHE142      0.0560
     96  CG        24.2070   -0.1240   35.1930 C.ar  142  PHE142     -0.0200
     97  CD1       23.9180    1.2340   35.1250 C.ar  142  PHE142     -0.0042
     98  CD2       23.5710   -0.9010   36.1540 C.ar  142  PHE142     -0.0042
     99  CE1       22.9970    1.8180   36.0100 C.ar  142  PHE142     -0.0003
    100  CE2       22.6300   -0.3240   37.0390 C.ar  142  PHE142     -0.0003
    101  CZ        22.3610    1.0350   36.9660 C.ar  142  PHE142     -0.0000
    102  N         19.5890    6.4490   33.3910 N.3   175  GLY175     -0.1210
    103  CA        19.7760    5.4610   34.4390 C.3   175  GLY175      0.1956
    104  C         20.9430    4.5840   33.9930 C.2   175  GLY175      0.2612
    105  O         22.0880    4.7950   34.4130 O.2   175  GLY175     -0.2717
    106  N         20.6490    3.6210   33.1310 N.am  176  THR176     -0.1952
    107  CA        21.6930    2.8670   32.4110 C.3   176  THR176      0.1897
    108  C         22.3120    3.6290   31.1990 C.2   176  THR176      0.2313
    109  O         23.3910    3.2760   30.7260 O.2   176  THR176     -0.2863
    110  CB        21.1560    1.5170   31.8800 C.3   176  THR176      0.1794
    111  OG1       20.1800    1.7440   30.8500 O.3   176  THR176     -0.2208
    112  CG2       20.5200    0.6720   33.0230 C.3   176  THR176      0.0378
    113  N         22.8950   14.6860   42.0750 N.3   205  SER205     -0.1217
    114  CA        23.9430   13.7380   41.7120 C.3   205  SER205      0.1889
    115  C         24.3400   13.9640   40.2600 C.2   205  SER205      0.2288
    116  O         24.0950   13.0880   39.4020 O.2   205  SER205     -0.2866
    117  CB        23.4620   12.3040   41.9620 C.3   205  SER205      0.2089
    118  OG        24.5460   11.3640   42.0200 O.3   205  SER205     -0.2183
    119  N         28.7470   12.0940   43.5850 N.2   219  PRO219     -0.2571
    120  CA        27.3570   11.6500   43.5940 C.3   219  PRO219      0.2026
    121  C         26.6770   12.0410   44.9010 C.2   219  PRO219      0.2684
    122  O         27.3700   12.3330   45.8870 O.2   219  PRO219     -0.2709
    123  CB        27.4460   10.1250   43.4470 C.2   219  PRO219      0.0085
    124  CG        28.8640    9.7660   43.6120 C.2   219  PRO219      0.0180
    125  CD        29.7140   10.9760   43.6040 C.2   219  PRO219      0.0938
    126  N         25.3470   12.0890   44.8820 N.am  220  GLY220     -0.1950
    127  CA        24.5470   12.4190   46.0600 C.3   220  GLY220      0.1869
    128  C         23.1670   11.7640   46.0630 C.2   220  GLY220      0.2309
    129  O         22.6700   11.3470   45.0110 O.2   220  GLY220     -0.2863
    130  N         19.1010   11.3810   46.1410 N.3   222  HIS222     -0.1241
    131  CA        17.9900   12.0860   45.5040 C.3   222  HIS222      0.1621
    132  C         16.7830   11.1370   45.4580 C.2   222  HIS222      0.2264
    133  O         16.9010    9.9260   45.7760 O.2   222  HIS222     -0.2867
    134  CB        18.3960   12.5290   44.0770 C.3   222  HIS222      0.0745
    135  CG        18.5440   11.3730   43.1350 C.ar  222  HIS222      0.0817
    136  ND1       19.7520   10.7500   42.8910 N.ar  222  HIS222     -0.2268
    137  CD2       17.6170   10.6990   42.4150 C.ar  222  HIS222      0.1154
    138  CE1       19.5610    9.7450   42.0490 C.ar  222  HIS222      0.1986
    139  NE2       18.2740    9.6890   41.7530 N.ar  222  HIS222     -0.2212
    140  N         15.0950    5.6800   39.3160 N.3   226  GLY226     -0.1210
    141  CA        15.3530    5.1730   37.9630 C.3   226  GLY226      0.1956
    142  C         16.4430    5.9280   37.2290 C.2   226  GLY226      0.2612
    143  O         16.9560    5.4320   36.2250 O.2   226  GLY226     -0.2717
    144  N         16.7770    7.1380   37.7020 N.am  227  ILE227     -0.1965
    145  CA        17.9150    7.8930   37.1540 C.3   227  ILE227      0.1727
    146  C         18.9670    8.2120   38.2270 C.2   227  ILE227      0.2617
    147  O         18.7810    7.8760   39.3950 O.2   227  ILE227     -0.2715
    148  CB        17.4540    9.1830   36.3600 C.3   227  ILE227      0.0290
    149  CG1       17.0310   10.3100   37.3090 C.3   227  ILE227      0.0022
    150  CG2       16.3200    8.8320   35.3420 C.3   227  ILE227      0.0023
    151  CD1       16.8020   11.6450   36.6300 C.3   227  ILE227      0.0001
    152  N         20.0650    8.8590   37.8400 N.am  228  GLY228     -0.1940
    153  CA        21.0640    9.3220   38.8110 C.3   228  GLY228      0.2014
    154  C         21.7440    8.1790   39.5590 C.2   228  GLY228      0.2639
    155  O         21.7330    8.1460   40.8000 O.2   228  GLY228     -0.2714
    156  N         22.3190    7.2500   38.8040 N.am  229  ALA229     -0.1963
    157  CA        23.0460    6.1180   39.3720 C.3   229  ALA229      0.1728
    158  C         24.3330    6.5160   40.1250 C.2   229  ALA229      0.2617
    159  O         24.8270    5.7320   40.9280 O.2   229  ALA229     -0.2715
    160  CB        23.3440    5.0640   38.3050 C.3   229  ALA229      0.0334
    161  N         24.8470    7.7190   39.8780 N.am  230  GLY230     -0.1940
    162  CA        26.0410    8.2160   40.5780 C.3   230  GLY230      0.2014
    163  C         27.3860    7.8500   39.9620 C.2   230  GLY230      0.2638
    164  O         28.4320    8.0460   40.5960 O.2   230  GLY230     -0.2714
    165  N         27.3540    7.2860   38.7520 N.am  231  PHE231     -0.1973
    166  CA        28.5340    6.9730   37.9570 C.3   231  PHE231      0.1639
    167  C         28.1260    7.0560   36.4830 C.2   231  PHE231      0.2290
    168  O         26.9480    7.1190   36.1720 O.2   231  PHE231     -0.2864
    169  CB        29.0980    5.5760   38.2950 C.3   231  PHE231      0.0560
    170  CG        28.1470    4.4310   38.0000 C.ar  231  PHE231     -0.0200
    171  CD1       28.2170    3.7310   36.7990 C.ar  231  PHE231     -0.0042
    172  CD2       27.1880    4.0570   38.9360 C.ar  231  PHE231     -0.0042
    173  CE1       27.3250    2.6670   36.5330 C.ar  231  PHE231     -0.0003
    174  CE2       26.2940    2.9980   38.6760 C.ar  231  PHE231     -0.0003
    175  CZ        26.3640    2.3110   37.4890 C.ar  231  PHE231     -0.0000
@<TRIPOS>BOND
     1   109   108    2
     2   111   110    1
     3    85    84    2
     4   108   107    1
     5    94    93    2
     6    93    92    1
     7   110   107    1
     8   110   112    1
     9    84    83    1
    10    84    91   am
    11   107   106    1
    12    83    82    1
    13    83    86    1
    14    92    91    1
    15    92    95    1
    16   106   104   am
    17    86    87    1
    18   102   103    1
    19   104   105    2
    20   104   103    1
    21    95    96    1
    22    37    35    1
    23    89    88    2
    24    87    88    1
    25    36    35    1
    26    97    96   ar
    27    97    99   ar
    28    88    90   am
    29    96    98   ar
    30    34    33    2
    31    35    32    1
    32   150   148    1
    33    32    33    1
    34    32    31    1
    35    26    25    2
    36    99   101   ar
    37    27    28    1
    38    27    24    1
    39    98   100   ar
    40    31    25   am
    41   168   167    2
    42    25    24    1
    43   143   142    2
    44   148   145    1
    45   148   149    1
    46    30    28   am
    47   167   166    1
    48   173   171   ar
    49   173   175   ar
    50   151   149    1
    51    28    29    2
    52   171   170   ar
    53   101   100   ar
    54    24    23    1
    55   145   144    1
    56   145   146    1
    57   142   144   am
    58   142   141    1
    59   175   174   ar
    60   152   146   am
    61   152   153    1
    62   166   169    1
    63   166   165    1
    64   141   140    1
    65   170   169    1
    66   170   172   ar
    67    12    10    1
    68    23    21   am
    69   146   147    2
    70   160   157    1
    71   174   172   ar
    72   165   163   am
    73   156   157    1
    74   156   154   am
    75   153   154    1
    76    22    21    2
    77    11    10    1
    78    21    20    1
    79    10     7    1
    80   157   158    1
    81   116   115    2
    82   154   155    2
    83   161   158   am
    84   161   162    1
    85   163   162    1
    86   163   164    2
    87   158   159    2
    88   115   114    1
    89    20    19    1
    90     7     6    1
    91     7     8    1
    92     6     3   am
    93     1     2    1
    94     9     8    2
    95    19    15   am
    96     8    13   am
    97   114   117    1
    98   114   113    1
    99   139   138   ar
   100   139   137   ar
   101    15    16    2
   102    15    14    1
   103    13    14    1
   104     3     2    1
   105     3     4    2
   106   117   118    1
   107   138   136   ar
   108     2     5    1
   109    14    17    1
   110    55    54    1
   111    56    54    1
   112   137   135   ar
   113    54    53    2
   114    80    78    1
   115   136   135   ar
   116    53    52    1
   117   135   134    1
   118    81    79    1
   119    52    51    1
   120    79    78    1
   121   123   120    1
   122   123   124    2
   123   119   120    1
   124   119   125    2
   125   120   121    1
   126   125   124    1
   127    17    18    1
   128    77    76    2
   129    78    75    1
   130    64    63    1
   131   134   131    1
   132    75    76    1
   133    75    74    1
   134    51    50    1
   135   126   121   am
   136   126   127    1
   137    49    48    2
   138   121   122    2
   139   129   128    2
   140   132   131    1
   141   132   133    2
   142    63    62    1
   143   131   130    1
   144    47    50    1
   145    47    48    1
   146    47    46    1
   147    62    61    1
   148    72    73    1
   149    72    71    1
   150   127   128    1
   151    61    58    1
   152    71    70    1
   153    60    59    2
   154    45    44    1
   155    59    58    1
   156    59    65   am
   157    58    57    1
   158    44    43    1
   159    68    67    2
   160    66    65    1
   161    66    67    1
   162    66    69    1
   163    70    69    1
   164    43    42    1
   165    42    39    1
   166    39    40    1
   167    39    38    1
   168    40    41    2
