@<TRIPOS>MOLECULE
tmp/3iqhA00.pdb
 132 125 0 0 0
SMALL
GASTEIGER

@<TRIPOS>ATOM
      1  N         18.3940   -6.4060   40.9070 N.3    67  THR67      -0.1218
      2  CA        17.4510   -5.2720   40.7770 C.3    67  THR67       0.1862
      3  C         16.0180   -5.6290   41.2000 C.2    67  THR67       0.2287
      4  O         15.4990   -6.6980   40.8760 O.2    67  THR67      -0.2866
      5  CB        17.4940   -4.5890   39.3510 C.3    67  THR67       0.1770
      6  OG1       16.3980   -3.6540   39.1930 O.3    67  THR67      -0.2211
      7  CG2       17.4480   -5.6150   38.2520 C.3    67  THR67       0.0375
      8  N         13.8930   -2.9140   40.8590 N.3    69  GLY69      -0.1210
      9  CA        13.3210   -1.7730   40.1460 C.3    69  GLY69       0.1956
     10  C         12.7380   -2.2580   38.8450 C.2    69  GLY69       0.2612
     11  O         12.4770   -3.4580   38.6800 O.2    69  GLY69      -0.2717
     12  N         12.5670   -1.3470   37.9000 N.am   70  ASN70      -0.1960
     13  CA        11.8530   -1.6810   36.6770 C.3    70  ASN70       0.1819
     14  C         12.5040   -2.8200   35.8930 C.2    70  ASN70       0.2621
     15  O         11.8010   -3.6900   35.3430 O.2    70  ASN70      -0.2715
     16  CB        11.6140   -0.4400   35.8220 C.3    70  ASN70       0.1195
     17  CG        10.5350    0.4480   36.4020 C.2    70  ASN70       0.2630
     18  OD1        9.6590   -0.0350   37.1030 O.2    70  ASN70      -0.2716
     19  ND2       10.6080    1.7460   36.1370 N.am   70  ASN70      -0.0877
     20  N         13.8350   -2.8480   35.9090 N.am   71  THR71      -0.1951
     21  CA        14.5710   -3.9420   35.2620 C.3    71  THR71       0.1897
     22  C         14.2730   -5.3090   35.8800 C.2    71  THR71       0.2313
     23  O         14.0950   -6.2810   35.1460 O.2    71  THR71      -0.2863
     24  CB        16.0650   -3.6570   35.1850 C.3    71  THR71       0.1794
     25  OG1       16.2610   -2.4840   34.3710 O.3    71  THR71      -0.2208
     26  CG2       16.8260   -4.8630   34.5500 C.3    71  THR71       0.0378
     27  N         13.3080   -3.6240   51.4610 N.3    94  MET94      -0.1245
     28  CA        12.4250   -3.3780   50.3190 C.3    94  MET94       0.1570
     29  C         10.9450   -3.4480   50.6990 C.2    94  MET94       0.2261
     30  O         10.5630   -4.2090   51.5890 O.2    94  MET94      -0.2867
     31  CB        12.6980   -4.4050   49.2160 C.3    94  MET94       0.0387
     32  CG        13.9880   -4.1860   48.4400 C.3    94  MET94       0.0595
     33  SD        14.0360   -2.6640   47.4770 S.3    94  MET94      -0.1393
     34  CE        12.4900   -2.7650   46.5670 C.3    94  MET94       0.0692
     35  N         22.1930   -1.8270   48.6920 N.3   118  MET118     -0.1245
     36  CA        22.3330   -2.3660   47.3310 C.3   118  MET118      0.1570
     37  C         23.6230   -3.1540   47.1420 C.2   118  MET118      0.2261
     38  O         23.6290   -4.1840   46.4520 O.2   118  MET118     -0.2867
     39  CB        22.2550   -1.2550   46.2740 C.3   118  MET118      0.0387
     40  CG        20.9220   -1.1680   45.5050 C.3   118  MET118      0.0595
     41  SD        20.7230   -2.2810   44.0700 S.3   118  MET118     -0.1393
     42  CE        21.9060   -1.5990   42.9160 C.3   118  MET118      0.0692
     43  N         24.1010   -6.7620   45.3550 N.3   122  ILE122     -0.1245
     44  CA        24.9150   -6.9500   44.1450 C.3   122  ILE122      0.1561
     45  C         25.9940   -8.0110   44.3630 C.2   122  ILE122      0.2260
     46  O         26.2890   -8.8160   43.4700 O.2   122  ILE122     -0.2867
     47  CB        25.6090   -5.6380   43.6980 C.3   122  ILE122      0.0252
     48  CG1       24.5870   -4.5490   43.3750 C.3   122  ILE122      0.0019
     49  CG2       26.5450   -5.8850   42.5070 C.3   122  ILE122      0.0019
     50  CD1       25.1180   -3.1350   43.5680 C.3   122  ILE122      0.0001
     51  N         22.5340   -4.9980   32.9320 N.3   141  GLN141     -0.1231
     52  CA        21.8800   -3.9180   32.1900 C.3   141  GLN141      0.1698
     53  C         22.7040   -2.6200   31.9740 C.2   141  GLN141      0.2592
     54  O         22.4380   -1.8850   31.0210 O.2   141  GLN141     -0.2718
     55  CB        20.5840   -3.5500   32.8960 C.3   141  GLN141      0.0381
     56  CG        20.8360   -3.0550   34.2950 C.3   141  GLN141      0.0905
     57  CD        19.6070   -2.5240   34.9380 C.2   141  GLN141      0.2608
     58  OE1       18.7320   -1.9750   34.2560 O.2   141  GLN141     -0.2717
     59  NE2       19.5090   -2.6930   36.2590 N.am  141  GLN141     -0.0878
     60  N         23.6720   -2.3260   32.8520 N.am  142  PHE142     -0.1976
     61  CA        24.5050   -1.1250   32.6450 C.3   142  PHE142      0.1639
     62  C         25.5300   -1.2530   31.5180 C.2   142  PHE142      0.2290
     63  O         25.9470   -0.2450   30.9670 O.2   142  PHE142     -0.2864
     64  CB        25.1560   -0.6450   33.9470 C.3   142  PHE142      0.0560
     65  CG        24.1640   -0.1630   34.9520 C.ar  142  PHE142     -0.0200
     66  CD1       23.7100    1.1550   34.9190 C.ar  142  PHE142     -0.0042
     67  CD2       23.6770   -1.0230   35.9330 C.ar  142  PHE142     -0.0042
     68  CE1       22.7820    1.6110   35.8480 C.ar  142  PHE142     -0.0003
     69  CE2       22.7330   -0.5740   36.8710 C.ar  142  PHE142     -0.0003
     70  CZ        22.2860    0.7320   36.8270 C.ar  142  PHE142     -0.0000
     71  N         19.4410    6.3790   33.2680 N.3   175  GLY175     -0.1210
     72  CA        19.7020    5.3910   34.3050 C.3   175  GLY175      0.1956
     73  C         20.8710    4.5220   33.8490 C.2   175  GLY175      0.2612
     74  O         22.0080    4.7010   34.2790 O.2   175  GLY175     -0.2717
     75  N         20.5770    3.5870   32.9600 N.am  176  THR176     -0.1952
     76  CA        21.6050    2.8380   32.2430 C.3   176  THR176      0.1897
     77  C         22.1790    3.6250   31.0290 C.2   176  THR176      0.2313
     78  O         23.2400    3.2730   30.5120 O.2   176  THR176     -0.2863
     79  CB        21.0540    1.4790   31.7330 C.3   176  THR176      0.1794
     80  OG1       20.1080    1.6970   30.6610 O.3   176  THR176     -0.2208
     81  CG2       20.4040    0.6980   32.9040 C.3   176  THR176      0.0378
     82  N         19.0290   11.1860   46.0080 N.3   222  HIS222     -0.1241
     83  CA        17.9510   11.9070   45.3490 C.3   222  HIS222      0.1621
     84  C         16.7320   10.9920   45.3110 C.2   222  HIS222      0.2264
     85  O         16.8330    9.7990   45.6210 O.2   222  HIS222     -0.2867
     86  CB        18.3840   12.3070   43.9240 C.3   222  HIS222      0.0745
     87  CG        18.4960   11.1380   42.9890 C.ar  222  HIS222      0.0817
     88  ND1       19.6920   10.5090   42.7130 N.ar  222  HIS222     -0.2268
     89  CD2       17.5510   10.4670   42.2890 C.ar  222  HIS222      0.1154
     90  CE1       19.4810    9.5030   41.8800 C.ar  222  HIS222      0.1986
     91  NE2       18.1890    9.4610   41.6030 N.ar  222  HIS222     -0.2212
     92  N         13.5220    8.1570   41.1530 N.3   225  GLN225     -0.1231
     93  CA        13.6980    6.7150   40.9070 C.3   225  GLN225      0.1698
     94  C         13.9030    6.3860   39.4410 C.2   225  GLN225      0.2593
     95  O         13.1100    6.7970   38.5880 O.2   225  GLN225     -0.2718
     96  CB        12.5040    5.9130   41.4350 C.3   225  GLN225      0.0381
     97  CG        12.3910    5.9290   42.9470 C.3   225  GLN225      0.0905
     98  CD        11.1550    5.1920   43.4840 C.2   225  GLN225      0.2608
     99  OE1       10.9180    4.0070   43.1770 O.2   225  GLN225     -0.2717
    100  NE2       10.3740    5.8890   44.3070 N.am  225  GLN225     -0.0878
    101  N         14.9540    5.6110   39.1700 N.am  226  GLY226     -0.1942
    102  CA        15.2150    5.0910   37.8380 C.3   226  GLY226      0.2014
    103  C         16.3220    5.8300   37.1150 C.2   226  GLY226      0.2639
    104  O         16.8150    5.3510   36.0850 O.2   226  GLY226     -0.2714
    105  N         16.7120    7.0000   37.6460 N.am  227  ILE227     -0.1963
    106  CA        17.8470    7.7540   37.1030 C.3   227  ILE227      0.1727
    107  C         18.8950    8.0620   38.1820 C.2   227  ILE227      0.2617
    108  O         18.7390    7.6570   39.3430 O.2   227  ILE227     -0.2715
    109  CB        17.4110    9.0550   36.3170 C.3   227  ILE227      0.0290
    110  CG1       16.9490   10.1700   37.2640 C.3   227  ILE227      0.0022
    111  CG2       16.3400    8.7470   35.2110 C.3   227  ILE227      0.0023
    112  CD1       16.8120   11.5510   36.6150 C.3   227  ILE227      0.0001
    113  N         19.9650    8.7570   37.7990 N.am  228  GLY228     -0.1940
    114  CA        20.9820    9.2070   38.7550 C.3   228  GLY228      0.2014
    115  C         21.6830    8.0600   39.4900 C.2   228  GLY228      0.2638
    116  O         21.6680    7.9890   40.7460 O.2   228  GLY228     -0.2714
    117  N         22.3100    7.1840   38.7160 N.am  229  ALA229     -0.1977
    118  CA        23.0170    6.0070   39.2640 C.3   229  ALA229      0.1597
    119  C         24.3200    6.3620   39.9970 C.2   229  ALA229      0.2287
    120  O         24.8250    5.5570   40.7800 O.2   229  ALA229     -0.2864
    121  CB        23.3030    4.9800   38.1770 C.3   229  ALA229      0.0319
    122  N         27.2870    7.1960   38.6010 N.3   231  PHE231     -0.1241
    123  CA        28.4430    6.8770   37.7670 C.3   231  PHE231      0.1605
    124  C         28.0180    7.0140   36.3090 C.2   231  PHE231      0.2264
    125  O         26.8380    7.1210   36.0100 O.2   231  PHE231     -0.2867
    126  CB        29.0240    5.4550   38.0410 C.3   231  PHE231      0.0534
    127  CG        28.0630    4.3260   37.7580 C.ar  231  PHE231     -0.0203
    128  CD1       28.0590    3.6870   36.5170 C.ar  231  PHE231     -0.0042
    129  CD2       27.1510    3.9110   38.7200 C.ar  231  PHE231     -0.0042
    130  CE1       27.1490    2.6510   36.2350 C.ar  231  PHE231     -0.0003
    131  CE2       26.2340    2.8490   38.4490 C.ar  231  PHE231     -0.0003
    132  CZ        26.2450    2.2340   37.2140 C.ar  231  PHE231     -0.0000
@<TRIPOS>BOND
     1    78    77    2
     2    80    79    1
     3    63    62    2
     4    54    53    2
     5    77    76    1
     6    62    61    1
     7    79    76    1
     8    79    81    1
     9    53    52    1
    10    53    60   am
    11    52    55    1
    12    52    51    1
    13    76    75    1
    14    61    60    1
    15    61    64    1
    16    55    56    1
    17    75    73   am
    18    71    72    1
    19    73    74    2
    20    73    72    1
    21    64    65    1
    22    58    57    2
    23    56    57    1
    24    25    24    1
    25    26    24    1
    26    66    65   ar
    27    66    68   ar
    28    57    59   am
    29    65    67   ar
    30    23    22    2
    31    24    21    1
    32   111   109    1
    33    21    22    1
    34    21    20    1
    35    15    14    2
    36    16    17    1
    37    16    13    1
    38    68    70   ar
    39    14    20   am
    40    14    13    1
    41    67    69   ar
    42   125   124    2
    43   104   103    2
    44    19    17   am
    45   130   128   ar
    46   130   132   ar
    47   124   123    1
    48   109   106    1
    49   109   110    1
    50    17    18    2
    51   128   127   ar
    52   112   110    1
    53    13    12    1
    54    70    69   ar
    55   106   105    1
    56   106   107    1
    57   103   105   am
    58   103   102    1
    59   132   131   ar
    60   127   126    1
    61   127   129   ar
    62   123   126    1
    63   123   122    1
    64   113   107   am
    65   113   114    1
    66   102   101    1
    67    12    10   am
    68   121   118    1
    69   107   108    2
    70     7     5    1
    71   131   129   ar
    72    95    94    2
    73    11    10    2
    74   117   118    1
    75   117   115   am
    76   114   115    1
    77    10     9    1
    78   101    94   am
    79     6     5    1
    80   118   119    1
    81     5     2    1
    82    94    93    1
    83   115   116    2
    84   119   120    2
    85     9     8    1
    86     2     1    1
    87     2     3    1
    88     4     3    2
    89    93    92    1
    90    93    96    1
    91    96    97    1
    92    91    90   ar
    93    91    89   ar
    94    90    88   ar
    95    89    87   ar
    96    49    47    1
    97    88    87   ar
    98    42    41    1
    99    97    98    1
   100    87    86    1
   101    99    98    2
   102    48    50    1
   103    48    47    1
   104    46    45    2
   105    98   100   am
   106    47    44    1
   107    86    83    1
   108    41    40    1
   109    44    45    1
   110    44    43    1
   111    84    83    1
   112    84    85    2
   113    83    82    1
   114    40    39    1
   115    39    36    1
   116    38    37    2
   117    34    33    1
   118    37    36    1
   119    36    35    1
   120    33    32    1
   121    32    31    1
   122    31    28    1
   123    28    29    1
   124    28    27    1
   125    29    30    2
