@<TRIPOS>MOLECULE
tmp/3iqiA00.pdb
 165 159 0 0 0
SMALL
GASTEIGER

@<TRIPOS>ATOM
      1  N         20.4310   -8.3720   40.7820 N.3    66  ALA66      -0.1231
      2  CA        20.3120   -7.6490   42.0370 C.3    66  ALA66       0.1694
      3  C         19.4730   -6.3880   41.8600 C.2    66  ALA66       0.2593
      4  O         19.6540   -5.4090   42.5910 O.2    66  ALA66      -0.2718
      5  CB        21.6980   -7.2930   42.5700 C.3    66  ALA66       0.0304
      6  N         18.5730   -6.4010   40.8830 N.am   67  THR67      -0.1939
      7  CA        17.6340   -5.2910   40.7180 C.3    67  THR67       0.2028
      8  C         16.2270   -5.6940   41.1480 C.2    67  THR67       0.2643
      9  O         15.7280   -6.7570   40.7730 O.2    67  THR67      -0.2714
     10  CB        17.6100   -4.6890   39.2730 C.3    67  THR67       0.1808
     11  OG1       16.4550   -3.8390   39.1340 O.3    67  THR67      -0.2208
     12  CG2       17.5830   -5.7760   38.1990 C.3    67  THR67       0.0379
     13  N         15.5990   -4.8390   41.9450 N.am   68  SER68      -0.1935
     14  CA        14.1800   -5.0070   42.2710 C.3    68  SER68       0.2055
     15  C         13.3690   -3.8100   41.7860 C.2    68  SER68       0.2644
     16  O         12.2050   -3.6340   42.1590 O.2    68  SER68      -0.2714
     17  CB        13.9800   -5.2480   43.7720 C.3    68  SER68       0.2130
     18  OG        14.8550   -4.4450   44.5470 O.3    68  SER68      -0.2179
     19  N         14.0030   -2.9800   40.9580 N.am   69  GLY69      -0.1939
     20  CA        13.3220   -1.8700   40.3160 C.3    69  GLY69       0.2014
     21  C         12.7250   -2.3320   39.0010 C.2    69  GLY69       0.2639
     22  O         12.4440   -3.5360   38.8080 O.2    69  GLY69      -0.2714
     23  N         12.5310   -1.3870   38.0820 N.am   70  ASN70      -0.1958
     24  CA        11.8330   -1.6900   36.8330 C.3    70  ASN70       0.1819
     25  C         12.5100   -2.7950   36.0320 C.2    70  ASN70       0.2621
     26  O         11.8210   -3.6300   35.4270 O.2    70  ASN70      -0.2715
     27  CB        11.6510   -0.4290   35.9810 C.3    70  ASN70       0.1195
     28  CG        10.6310    0.5310   36.5680 C.2    70  ASN70       0.2630
     29  OD1        9.7410    0.1350   37.3390 O.2    70  ASN70      -0.2716
     30  ND2       10.7500    1.8030   36.2030 N.am   70  ASN70      -0.0877
     31  N         13.8480   -2.8250   36.0520 N.am   71  THR71      -0.1951
     32  CA        14.5610   -3.9030   35.3470 C.3    71  THR71       0.1897
     33  C         14.2800   -5.2840   35.9330 C.2    71  THR71       0.2313
     34  O         14.0780   -6.2420   35.1820 O.2    71  THR71      -0.2863
     35  CB        16.0600   -3.6420   35.2110 C.3    71  THR71       0.1794
     36  OG1       16.2170   -2.4190   34.4850 O.3    71  THR71      -0.2208
     37  CG2       16.7220   -4.7740   34.4150 C.3    71  THR71       0.0378
     38  N         13.3210   -3.6600   51.5360 N.3    94  MET94      -0.1245
     39  CA        12.4930   -3.2910   50.3860 C.3    94  MET94       0.1570
     40  C         11.0070   -3.4600   50.7230 C.2    94  MET94       0.2261
     41  O         10.6440   -4.2810   51.5670 O.2    94  MET94      -0.2867
     42  CB        12.8740   -4.1270   49.1570 C.3    94  MET94       0.0387
     43  CG        14.1940   -3.7300   48.4890 C.3    94  MET94       0.0595
     44  SD        14.1390   -2.2120   47.5020 S.3    94  MET94      -0.1393
     45  CE        12.7550   -2.5430   46.4080 C.3    94  MET94       0.0692
     46  N          6.6120   -4.3460   46.6510 N.3    98  ARG98      -0.1245
     47  CA         7.5990   -4.8120   45.6760 C.3    98  ARG98       0.1563
     48  C          7.9050   -6.3060   45.8210 C.2    98  ARG98       0.2260
     49  O          7.9640   -7.0170   44.8190 O.2    98  ARG98      -0.2867
     50  CB         8.8770   -3.9690   45.7260 C.3    98  ARG98       0.0307
     51  CG         9.8350   -4.1730   44.5470 C.3    98  ARG98       0.0489
     52  CD         9.1600   -4.0420   43.1590 C.3    98  ARG98       0.2205
     53  NE         8.4180   -2.7890   42.9960 N.pl3  98  ARG98      -0.0865
     54  CZ         8.9460   -1.6250   42.6170 C.cat  98  ARG98       0.5346
     55  NH1       10.2420   -1.5130   42.3340 N.pl3  98  ARG98       0.1354
     56  NH2        8.1610   -0.5560   42.5220 N.pl3  98  ARG98       0.1354
     57  N         22.3400   -1.8110   48.6720 N.3   118  MET118     -0.1230
     58  CA        22.4950   -2.3330   47.3160 C.3   118  MET118      0.1702
     59  C         23.8170   -3.0730   47.1180 C.2   118  MET118      0.2592
     60  O         23.8730   -4.0600   46.3760 O.2   118  MET118     -0.2718
     61  CB        22.3390   -1.2240   46.2720 C.3   118  MET118      0.0401
     62  CG        20.8930   -0.8420   45.9970 C.3   118  MET118      0.0596
     63  SD        19.8570   -2.2610   45.5520 S.3   118  MET118     -0.1393
     64  CE        20.6140   -2.7360   43.9970 C.3   118  MET118      0.0692
     65  N         24.8710   -2.5980   47.7840 N.am  119  LYS119     -0.1980
     66  CA        26.1870   -3.2350   47.7130 C.3   119  LYS119      0.1596
     67  C         26.0900   -4.7180   48.0900 C.2   119  LYS119      0.2287
     68  O         26.6090   -5.5830   47.3710 O.2   119  LYS119     -0.2864
     69  CB        27.1930   -2.4960   48.6120 C.3   119  LYS119      0.0298
     70  CG        28.5070   -3.2330   48.8370 C.3   119  LYS119      0.0038
     71  CD        29.5330   -2.9520   47.7410 C.3   119  LYS119      0.0206
     72  CE        30.3890   -4.1870   47.4300 C.3   119  LYS119      0.1093
     73  NZ        30.7690   -4.9850   48.6400 N.3   119  LYS119     -0.1314
     74  N         24.0940   -6.7610   45.4920 N.3   122  ILE122     -0.1245
     75  CA        24.9310   -6.9650   44.3040 C.3   122  ILE122      0.1561
     76  C         25.9780   -8.0560   44.5490 C.2   122  ILE122      0.2260
     77  O         26.1850   -8.9330   43.7060 O.2   122  ILE122     -0.2867
     78  CB        25.6180   -5.6450   43.8440 C.3   122  ILE122      0.0252
     79  CG1       24.5680   -4.6120   43.4230 C.3   122  ILE122      0.0019
     80  CG2       26.5990   -5.9140   42.6980 C.3   122  ILE122      0.0019
     81  CD1       25.0940   -3.1830   43.3120 C.3   122  ILE122      0.0001
     82  N         22.5720   -4.9570   33.0860 N.3   141  GLN141     -0.1231
     83  CA        21.8900   -3.9150   32.3200 C.3   141  GLN141      0.1698
     84  C         22.7220   -2.6460   32.0710 C.2   141  GLN141      0.2592
     85  O         22.4580   -1.9250   31.0970 O.2   141  GLN141     -0.2718
     86  CB        20.5880   -3.5370   33.0050 C.3   141  GLN141      0.0381
     87  CG        20.8220   -2.9470   34.3700 C.3   141  GLN141      0.0905
     88  CD        19.5640   -2.4280   35.0000 C.2   141  GLN141      0.2608
     89  OE1       18.7390   -1.7980   34.3310 O.2   141  GLN141     -0.2717
     90  NE2       19.4130   -2.6680   36.2980 N.am  141  GLN141     -0.0878
     91  N         23.6810   -2.3400   32.9630 N.am  142  PHE142     -0.1976
     92  CA        24.4990   -1.1210   32.7700 C.3   142  PHE142      0.1639
     93  C         25.5090   -1.2220   31.6410 C.2   142  PHE142      0.2290
     94  O         25.9630   -0.1970   31.1350 O.2   142  PHE142     -0.2864
     95  CB        25.1660   -0.6590   34.0670 C.3   142  PHE142      0.0560
     96  CG        24.1880   -0.1830   35.0800 C.ar  142  PHE142     -0.0200
     97  CD1       23.6930    1.1260   35.0240 C.ar  142  PHE142     -0.0042
     98  CD2       23.7120   -1.0510   36.0610 C.ar  142  PHE142     -0.0042
     99  CE1       22.7470    1.5760   35.9550 C.ar  142  PHE142     -0.0003
    100  CE2       22.7690   -0.6050   36.9920 C.ar  142  PHE142     -0.0003
    101  CZ        22.2840    0.7050   36.9280 C.ar  142  PHE142     -0.0000
    102  N         19.5020    6.4380   33.3070 N.3   175  GLY175     -0.1210
    103  CA        19.7290    5.4470   34.3440 C.3   175  GLY175      0.1956
    104  C         20.9050    4.5940   33.8880 C.2   175  GLY175      0.2612
    105  O         22.0480    4.8110   34.2990 O.2   175  GLY175     -0.2717
    106  N         20.6090    3.6470   33.0070 N.am  176  THR176     -0.1952
    107  CA        21.6380    2.8660   32.3110 C.3   176  THR176      0.1897
    108  C         22.2170    3.6140   31.0830 C.2   176  THR176      0.2313
    109  O         23.2650    3.2420   30.5670 O.2   176  THR176     -0.2863
    110  CB        21.0630    1.5230   31.7840 C.3   176  THR176      0.1794
    111  OG1       20.1180    1.7780   30.7240 O.3   176  THR176     -0.2208
    112  CG2       20.3730    0.7250   32.9060 C.3   176  THR176      0.0378
    113  N         25.2980   11.9200   44.8380 N.3   220  GLY220     -0.1210
    114  CA        24.5030   12.1750   46.0330 C.3   220  GLY220      0.1940
    115  C         23.1370   11.4950   45.9640 C.2   220  GLY220      0.2454
    116  O         22.7030   11.0480   44.9030 O.2   220  GLY220     -0.2732
    117  N         22.4540   11.3950   47.1180 N.am  221  PRO221     -0.2717
    118  CA        21.1270   10.8070   47.1720 C.3   221  PRO221      0.1535
    119  C         20.0460   11.7140   46.5820 C.2   221  PRO221      0.2598
    120  O         20.1420   12.9410   46.6470 O.2   221  PRO221     -0.2715
    121  CB        20.8980   10.5850   48.6770 C.3   221  PRO221      0.0310
    122  CG        21.7650   11.5940   49.3410 C.3   221  PRO221      0.0237
    123  CD        22.9440   11.8180   48.4470 C.3   221  PRO221      0.0939
    124  N         19.0030   11.0920   46.0420 N.am  222  HIS222     -0.1974
    125  CA        17.9200   11.8230   45.4010 C.3   222  HIS222      0.1656
    126  C         16.6940   10.9160   45.3470 C.2   222  HIS222      0.2291
    127  O         16.7840    9.7200   45.6560 O.2   222  HIS222     -0.2864
    128  CB        18.3660   12.2590   43.9970 C.3   222  HIS222      0.0771
    129  CG        18.4860   11.1230   43.0280 C.ar  222  HIS222      0.0820
    130  ND1       19.6780   10.4780   42.7630 N.ar  222  HIS222     -0.2267
    131  CD2       17.5530   10.5250   42.2490 C.ar  222  HIS222      0.1154
    132  CE1       19.4710    9.5320   41.8630 C.ar  222  HIS222      0.1986
    133  NE2       18.1870    9.5300   41.5470 N.ar  222  HIS222     -0.2212
    134  N         15.0250    5.6340   39.1560 N.3   226  GLY226     -0.1210
    135  CA        15.2620    5.1560   37.7970 C.3   226  GLY226      0.1956
    136  C         16.4150    5.8690   37.1010 C.2   226  GLY226      0.2612
    137  O         16.9300    5.3610   36.0900 O.2   226  GLY226     -0.2717
    138  N         16.7850    7.0550   37.6090 N.am  227  ILE227     -0.1965
    139  CA        17.9070    7.8310   37.0690 C.3   227  ILE227      0.1727
    140  C         18.9450    8.1650   38.1530 C.2   227  ILE227      0.2617
    141  O         18.7790    7.7870   39.3110 O.2   227  ILE227     -0.2715
    142  CB        17.4330    9.1230   36.3080 C.3   227  ILE227      0.0290
    143  CG1       16.9710   10.2310   37.2720 C.3   227  ILE227      0.0022
    144  CG2       16.3450    8.7830   35.2680 C.3   227  ILE227      0.0023
    145  CD1       16.6730   11.5750   36.5620 C.3   227  ILE227      0.0001
    146  N         20.0310    8.8290   37.7630 N.am  228  GLY228     -0.1940
    147  CA        21.0570    9.2670   38.7150 C.3   228  GLY228      0.2014
    148  C         21.7210    8.0950   39.4430 C.2   228  GLY228      0.2638
    149  O         21.6900    8.0230   40.6760 O.2   228  GLY228     -0.2714
    150  N         22.3130    7.1800   38.6850 N.am  229  ALA229     -0.1977
    151  CA        22.9700    5.9920   39.2550 C.3   229  ALA229      0.1597
    152  C         24.2600    6.3110   40.0440 C.2   229  ALA229      0.2287
    153  O         24.7510    5.4640   40.8040 O.2   229  ALA229     -0.2864
    154  CB        23.2560    4.9630   38.1730 C.3   229  ALA229      0.0319
    155  N         27.2750    7.1330   38.7120 N.3   231  PHE231     -0.1241
    156  CA        28.4470    6.8750   37.8880 C.3   231  PHE231      0.1605
    157  C         28.0390    6.9840   36.4240 C.2   231  PHE231      0.2264
    158  O         26.8560    7.1370   36.1200 O.2   231  PHE231     -0.2867
    159  CB        29.0340    5.4800   38.1730 C.3   231  PHE231      0.0534
    160  CG        28.0690    4.3590   37.9210 C.ar  231  PHE231     -0.0203
    161  CD1       28.0410    3.7050   36.6800 C.ar  231  PHE231     -0.0042
    162  CD2       27.2030    3.9380   38.9270 C.ar  231  PHE231     -0.0042
    163  CE1       27.1280    2.6590   36.4460 C.ar  231  PHE231     -0.0003
    164  CE2       26.2910    2.8880   38.7050 C.ar  231  PHE231     -0.0003
    165  CZ        26.2560    2.2570   37.4700 C.ar  231  PHE231     -0.0000
@<TRIPOS>BOND
     1   109   108    2
     2   111   110    1
     3   108   107    1
     4    85    84    2
     5    94    93    2
     6    93    92    1
     7   110   107    1
     8   110   112    1
     9    84    83    1
    10    84    91   am
    11   107   106    1
    12    83    86    1
    13    83    82    1
    14    92    91    1
    15    92    95    1
    16    86    87    1
    17   106   104   am
    18   102   103    1
    19   104   105    2
    20   104   103    1
    21    95    96    1
    22    89    88    2
    23    87    88    1
    24    37    35    1
    25    36    35    1
    26    88    90   am
    27    97    96   ar
    28    97    99   ar
    29    96    98   ar
    30    34    33    2
    31    35    32    1
    32   144   142    1
    33    32    33    1
    34    32    31    1
    35    26    25    2
    36    99   101   ar
    37    27    28    1
    38    27    24    1
    39    25    31   am
    40    25    24    1
    41    98   100   ar
    42   137   136    2
    43   158   157    2
    44    30    28   am
    45   142   139    1
    46   142   143    1
    47   157   156    1
    48   163   161   ar
    49   163   165   ar
    50   145   143    1
    51    28    29    2
    52   161   160   ar
    53    24    23    1
    54   101   100   ar
    55   139   138    1
    56   139   140    1
    57   136   138   am
    58   136   135    1
    59   165   164   ar
    60   146   140   am
    61   146   147    1
    62   135   134    1
    63   156   159    1
    64   156   155    1
    65   160   159    1
    66   160   162   ar
    67    23    21   am
    68   140   141    2
    69   154   151    1
    70    12    10    1
    71   150   151    1
    72   150   148   am
    73   164   162   ar
    74   147   148    1
    75    22    21    2
    76    21    20    1
    77    11    10    1
    78   151   152    1
    79    10     7    1
    80   148   149    2
    81   152   153    2
    82    20    19    1
    83     7     6    1
    84     7     8    1
    85     9     8    2
    86     1     2    1
    87     6     3   am
    88    19    15   am
    89     8    13   am
    90   133   132   ar
    91   133   131   ar
    92    15    16    2
    93    15    14    1
    94     3     2    1
    95     3     4    2
    96   132   130   ar
    97    13    14    1
    98     2     5    1
    99   131   129   ar
   100    14    17    1
   101    55    54    1
   102    56    54    1
   103    54    53    2
   104    80    78    1
   105   130   129   ar
   106    53    52    1
   107   129   128    1
   108    52    51    1
   109    81    79    1
   110    79    78    1
   111    77    76    2
   112    17    18    1
   113    78    75    1
   114   128   125    1
   115    64    63    1
   116    75    76    1
   117    75    74    1
   118    51    50    1
   119    49    48    2
   120   113   114    1
   121   116   115    2
   122   126   125    1
   123   126   127    2
   124   125   124    1
   125    63    62    1
   126    47    50    1
   127    47    48    1
   128    47    46    1
   129   115   114    1
   130   115   117   am
   131    62    61    1
   132   124   119   am
   133    61    58    1
   134    60    59    2
   135    45    44    1
   136   119   120    2
   137   119   118    1
   138   117   118    1
   139   117   123    1
   140    59    58    1
   141    59    65   am
   142   118   121    1
   143    58    57    1
   144    68    67    2
   145    72    71    1
   146    72    73    1
   147    44    43    1
   148    66    65    1
   149    66    67    1
   150    66    69    1
   151    71    70    1
   152   123   122    1
   153    43    42    1
   154    69    70    1
   155   121   122    1
   156    42    39    1
   157    39    40    1
   158    39    38    1
   159    40    41    2
