@<TRIPOS>MOLECULE
tmp/3iqqA00.pdb
 157 152 0 0 0
SMALL
GASTEIGER

@<TRIPOS>ATOM
      1  N          3.5650   14.7320    1.5520 N.3    37  ILE37      -0.1245
      2  CA         3.6200   14.5400    3.0030 C.3    37  ILE37       0.1561
      3  C          2.4070   15.1550    3.7130 C.2    37  ILE37       0.2260
      4  O          1.7120   14.4800    4.4780 O.2    37  ILE37      -0.2867
      5  CB         4.9480   15.0770    3.5870 C.3    37  ILE37       0.0252
      6  CG1        6.1050   14.1740    3.1380 C.3    37  ILE37       0.0019
      7  CG2        4.9140   15.0710    5.1310 C.3    37  ILE37       0.0019
      8  CD1        7.5260   14.7810    3.3530 C.3    37  ILE37       0.0001
      9  N         -0.6360   12.6400    6.6850 N.3    42  SER42      -0.1202
     10  CA        -0.9890   13.4610    7.8650 C.3    42  SER42       0.2020
     11  C         -1.2450   12.6930    9.1860 C.2    42  SER42       0.2619
     12  O         -1.2120   13.2750   10.2920 O.2    42  SER42      -0.2717
     13  CB        -2.1940   14.3450    7.5430 C.3    42  SER42       0.2103
     14  OG        -3.3740   13.5870    7.4040 O.3    42  SER42      -0.2182
     15  N         -1.5410   11.3970    9.0660 N.am   43  HIS43      -0.1961
     16  CA        -1.6750   10.5300   10.2290 C.3    43  HIS43       0.1787
     17  C         -0.3490    9.9370   10.7270 C.2    43  HIS43       0.2620
     18  O         -0.2970    9.4490   11.8320 O.2    43  HIS43      -0.2715
     19  CB        -2.7080    9.4600    9.9380 C.3    43  HIS43       0.0785
     20  CG        -4.0290   10.0370    9.5400 C.ar   43  HIS43       0.0821
     21  ND1       -4.3440   10.3390    8.2330 N.ar   43  HIS43      -0.2267
     22  CD2       -5.0920   10.4270   10.2820 C.ar   43  HIS43       0.1154
     23  CE1       -5.5600   10.8560    8.1830 C.ar   43  HIS43       0.1986
     24  NE2       -6.0350   10.9250    9.4130 N.ar   43  HIS43      -0.2212
     25  N          0.7160   10.0160    9.9420 N.am   44  PHE44      -0.1960
     26  CA         2.0160    9.4390   10.3370 C.3    44  PHE44       0.1771
     27  C          3.0940   10.4830   10.5980 C.2    44  PHE44       0.2619
     28  O          4.0660   10.2040   11.3080 O.2    44  PHE44      -0.2715
     29  CB         2.5490    8.4470    9.2780 C.3    44  PHE44       0.0574
     30  CG         1.7130    7.2000    9.1270 C.ar   44  PHE44      -0.0200
     31  CD1        1.4800    6.3630   10.2030 C.ar   44  PHE44      -0.0042
     32  CD2        1.1550    6.8650    7.9070 C.ar   44  PHE44      -0.0042
     33  CE1        0.6960    5.2110   10.0630 C.ar   44  PHE44      -0.0003
     34  CE2        0.3790    5.7200    7.7720 C.ar   44  PHE44      -0.0003
     35  CZ         0.1460    4.9020    8.8360 C.ar   44  PHE44      -0.0000
     36  N          2.9450   11.6650   10.0020 N.am   45  LEU45      -0.1963
     37  CA         3.9730   12.7030   10.0530 C.3    45  LEU45       0.1728
     38  C          3.3250   14.0450   10.3350 C.2    45  LEU45       0.2616
     39  O          2.2060   14.3020    9.9120 O.2    45  LEU45      -0.2715
     40  CB         4.7370   12.7760    8.7200 C.3    45  LEU45       0.0311
     41  CG         5.5560   11.5400    8.3270 C.3    45  LEU45       0.0022
     42  CD1        6.1120   11.7120    6.9010 C.3    45  LEU45       0.0001
     43  CD2        6.6640   11.2790    9.3350 C.3    45  LEU45       0.0001
     44  N          4.0270   14.9010   11.0550 N.am   46  GLU46      -0.1963
     45  CA         3.4790   16.1990   11.3930 C.3    46  GLU46       0.1733
     46  C          3.5160   17.0470   10.1420 C.2    46  GLU46       0.2616
     47  O          4.5220   17.0480    9.4330 O.2    46  GLU46      -0.2715
     48  CB         4.2900   16.8550   12.5060 C.3    46  GLU46       0.0429
     49  CG         3.4730   17.8010   13.3860 C.3    46  GLU46       0.1163
     50  CD         4.3530   18.6630   14.2760 C.2    46  GLU46       0.3649
     51  OE1        5.3140   19.2730   13.7420 O.co2  46  GLU46      -0.2457
     52  OE2        4.0780   18.7220   15.5030 O.co2  46  GLU46      -0.2457
     53  N          2.4120   17.7470    9.8810 N.am   47  GLU47      -0.1963
     54  CA         2.3420   18.7290    8.8080 C.3    47  GLU47       0.1733
     55  C          3.6060   19.5700    8.7810 C.2    47  GLU47       0.2616
     56  O          4.0460   20.0560    9.8250 O.2    47  GLU47      -0.2715
     57  CB         1.1310   19.6330    8.9810 C.3    47  GLU47       0.0429
     58  CG         0.9050   20.5600    7.7870 C.3    47  GLU47       0.1163
     59  CD        -0.1940   21.5850    8.0130 C.2    47  GLU47       0.3649
     60  OE1       -1.0870   21.3330    8.8500 O.co2  47  GLU47      -0.2457
     61  OE2       -0.1400   22.6450    7.3490 O.co2  47  GLU47      -0.2457
     62  N          4.1930   19.7230    7.5920 N.am   48  ILE48      -0.1977
     63  CA         5.3940   20.5420    7.4210 C.3    48  ILE48       0.1596
     64  C          4.9340   21.9700    7.2360 C.2    48  ILE48       0.2287
     65  O          4.2760   22.2740    6.2390 O.2    48  ILE48      -0.2864
     66  CB         6.2450   20.1180    6.1870 C.3    48  ILE48       0.0276
     67  CG1        6.8500   18.7290    6.3900 C.3    48  ILE48       0.0022
     68  CG2        7.3700   21.1370    5.9530 C.3    48  ILE48       0.0022
     69  CD1        7.4030   18.0570    5.1280 C.3    48  ILE48       0.0001
     70  N         12.0720   22.3760    7.4160 N.3    53  VAL53      -0.1245
     71  CA        11.7150   20.9640    7.5480 C.3    53  VAL53       0.1561
     72  C         11.6200   20.3070    6.1690 C.2    53  VAL53       0.2260
     73  O         12.1700   19.2460    5.9780 O.2    53  VAL53      -0.2867
     74  CB        10.4330   20.7520    8.4180 C.3    53  VAL53       0.0252
     75  CG1       10.0090   19.2980    8.4170 C.3    53  VAL53       0.0019
     76  CG2       10.6760   21.2360    9.8760 C.3    53  VAL53       0.0019
     77  N         15.2780   19.8740    5.0350 N.3    56  LYS56      -0.1231
     78  CA        15.9400   18.7660    5.7250 C.3    56  LYS56       0.1693
     79  C         15.4270   17.3880    5.2750 C.2    56  LYS56       0.2591
     80  O         16.2030   16.4560    5.1350 O.2    56  LYS56      -0.2718
     81  CB        15.8180   18.9380    7.2470 C.3    56  LYS56       0.0285
     82  CG        16.6450   17.9680    8.0540 C.3    56  LYS56       0.0035
     83  CD        18.1280   18.2180    7.8730 C.3    56  LYS56       0.0206
     84  CE        18.8900   16.9080    7.7470 C.3    56  LYS56       0.1093
     85  NZ        20.3340   17.0830    8.1080 N.3    56  LYS56      -0.1314
     86  N         14.1190   17.2690    5.0550 N.am   57  VAL57      -0.1980
     87  CA        13.5340   16.0200    4.5650 C.3    57  VAL57       0.1595
     88  C         14.1100   15.6860    3.1870 C.2    57  VAL57       0.2287
     89  O         14.5380   14.5680    2.9420 O.2    57  VAL57      -0.2864
     90  CB        11.9860   16.0970    4.5190 C.3    57  VAL57       0.0276
     91  CG1       11.3840   14.8510    3.9000 C.3    57  VAL57       0.0022
     92  CG2       11.4550   16.2230    5.9180 C.3    57  VAL57       0.0022
     93  N         17.6960   14.5300    3.4080 N.3    60  THR60      -0.1218
     94  CA        17.7240   13.1440    3.8910 C.3    60  THR60       0.1862
     95  C         17.3570   12.1380    2.7930 C.2    60  THR60       0.2287
     96  O         18.0780   11.1800    2.5820 O.2    60  THR60      -0.2866
     97  CB        16.7690   12.9700    5.1040 C.3    60  THR60       0.1770
     98  OG1       17.1840   13.8640    6.1460 O.3    60  THR60      -0.2211
     99  CG2       16.8010   11.5210    5.6390 C.3    60  THR60       0.0375
    100  N         11.8820    6.1140    1.4320 N.3    77  PHE77      -0.1241
    101  CA        11.1050    6.9320    2.3740 C.3    77  PHE77       0.1605
    102  C          9.9520    6.1210    2.9450 C.2    77  PHE77       0.2264
    103  O          9.7430    6.1090    4.1690 O.2    77  PHE77      -0.2867
    104  CB        10.6350    8.2220    1.6800 C.3    77  PHE77       0.0534
    105  CG         9.8140    9.1640    2.5480 C.ar   77  PHE77      -0.0203
    106  CD1       10.1720    9.4470    3.8560 C.ar   77  PHE77      -0.0042
    107  CD2        8.7080    9.8200    2.0080 C.ar   77  PHE77      -0.0042
    108  CE1        9.4150   10.3190    4.6170 C.ar   77  PHE77      -0.0003
    109  CE2        7.9450   10.7130    2.7680 C.ar   77  PHE77      -0.0003
    110  CZ         8.2930   10.9580    4.0670 C.ar   77  PHE77      -0.0000
    111  N         11.1310    3.5760    5.3960 N.3    80  MET80      -0.1230
    112  CA        11.4070    4.2880    6.6500 C.3    80  MET80       0.1702
    113  C         10.1410    4.5000    7.4670 C.2    80  MET80       0.2592
    114  O         10.1170    4.2450    8.6730 O.2    80  MET80      -0.2718
    115  CB        12.0500    5.6440    6.3710 C.3    80  MET80       0.0401
    116  CG        13.5010    5.5880    5.9060 C.3    80  MET80       0.0596
    117  SD        14.0090    7.2350    5.3340 S.3    80  MET80      -0.1393
    118  CE        13.7500    8.1940    6.8150 C.3    80  MET80       0.0692
    119  N          9.1010    4.9780    6.8060 N.am   81  ILE81      -0.1980
    120  CA         7.8110    5.1500    7.4440 C.3    81  ILE81       0.1595
    121  C          7.2870    3.8340    7.9540 C.2    81  ILE81       0.2287
    122  O          6.9100    3.7580    9.1070 O.2    81  ILE81      -0.2864
    123  CB         6.7820    5.7940    6.4980 C.3    81  ILE81       0.0276
    124  CG1        7.3410    7.1290    6.0000 C.3    81  ILE81       0.0022
    125  CG2        5.4070    5.9470    7.1910 C.3    81  ILE81       0.0022
    126  CD1        6.3620    7.9920    5.3010 C.3    81  ILE81       0.0001
    127  N          9.0840    2.4420   10.8960 N.3    84  ALA84      -0.1231
    128  CA         8.8570    3.2050   12.1270 C.3    84  ALA84       0.1694
    129  C          7.4680    2.9440   12.7210 C.2    84  ALA84       0.2592
    130  O          7.2780    3.0560   13.9330 O.2    84  ALA84      -0.2718
    131  CB         9.0970    4.7000   11.9080 C.3    84  ALA84       0.0304
    132  N          6.5190    2.5610   11.8700 N.am   85  CYS85      -0.1970
    133  CA         5.1400    2.2530   12.3050 C.3    85  CYS85       0.1712
    134  C          4.9070    1.0630   13.2420 C.2    85  CYS85       0.2296
    135  O          3.9600    1.0820   14.0230 O.2    85  CYS85      -0.2864
    136  CB         4.2400    2.1180   11.1060 C.3    85  CYS85       0.0983
    137  SG         3.5720    3.6520   10.7130 S.3    85  CYS85      -0.0798
    138  N          7.7980    0.0280   15.4200 N.3    87  GLU87      -0.1231
    139  CA         7.1970    0.2820   16.7150 C.3    87  GLU87       0.1699
    140  C          6.8430    1.7790   16.8360 C.2    87  GLU87       0.2592
    141  O          7.7260    2.6210   16.6420 O.2    87  GLU87      -0.2718
    142  CB         8.3050   -0.0430   17.7340 C.3    87  GLU87       0.0402
    143  CG         9.6210   -0.6950   17.1050 C.3    87  GLU87       0.1161
    144  CD        10.1970    0.0340   15.8370 C.2    87  GLU87       0.3649
    145  OE1       10.2580    1.2840   15.8160 O.co2  87  GLU87      -0.2457
    146  OE2       10.5880   -0.6450   14.8560 O.co2  87  GLU87      -0.2457
    147  N          5.6170    2.1610   17.2010 N.am   88  PHE88      -0.1976
    148  CA         4.5940    1.3830   17.8940 C.3    88  PHE88       0.1639
    149  C          4.0920    0.0610   17.3330 C.2    88  PHE88       0.2290
    150  O          3.5900   -0.0040   16.2270 O.2    88  PHE88      -0.2864
    151  CB         3.4050    2.3220   18.1820 C.3    88  PHE88       0.0560
    152  CG         2.0790    1.8620   17.6150 C.ar   88  PHE88      -0.0200
    153  CD1        1.4780    2.5740   16.6020 C.ar   88  PHE88      -0.0042
    154  CD2        1.4170    0.7440   18.1210 C.ar   88  PHE88      -0.0042
    155  CE1        0.2560    2.1780   16.1060 C.ar   88  PHE88      -0.0003
    156  CE2        0.1980    0.3360   17.6070 C.ar   88  PHE88      -0.0003
    157  CZ        -0.3810    1.0520   16.6000 C.ar   88  PHE88      -0.0000
@<TRIPOS>BOND
     1   100   101    1
     2     1     2    1
     3   104   101    1
     4   104   105    1
     5   107   105   ar
     6   107   109   ar
     7   101   102    1
     8   105   106   ar
     9    96    95    2
    10   109   110   ar
    11    95    94    1
    12    89    88    2
    13   102   103    2
    14     2     5    1
    15     2     3    1
    16     6     8    1
    17     6     5    1
    18    88    87    1
    19    93    94    1
    20     5     7    1
    21     3     4    2
    22   106   108   ar
    23    94    97    1
    24    91    90    1
    25   110   108   ar
    26    90    87    1
    27    90    92    1
    28    87    86    1
    29    77    78    1
    30    86    79   am
    31    97    99    1
    32    97    98    1
    33    69    67    1
    34    80    79    2
    35    79    78    1
    36   126   124    1
    37   117   116    1
    38   117   118    1
    39   111   112    1
    40    78    81    1
    41   116   115    1
    42    68    66    1
    43    73    72    2
    44   124   123    1
    45    72    71    1
    46    66    67    1
    47    66    63    1
    48    65    64    2
    49   115   112    1
    50   123   125    1
    51   123   120    1
    52   112   113    1
    53     9    10    1
    54   119   120    1
    55   119   113   am
    56    42    41    1
    57    64    63    1
    58    81    82    1
    59    61    59   ar
    60    14    13    1
    61    70    71    1
    62    63    62    1
    63   120   121    1
    64   113   114    2
    65    13    10    1
    66    71    74    1
    67    62    55   am
    68    84    83    1
    69    84    85    1
    70    34    32   ar
    71    34    35   ar
    72    58    59    1
    73    58    57    1
    74    10    11    1
    75    83    82    1
    76    32    30   ar
    77   121   122    2
    78    59    60   ar
    79    23    21   ar
    80    23    24   ar
    81    21    20   ar
    82    41    40    1
    83    41    43    1
    84    75    74    1
    85    74    76    1
    86    40    37    1
    87    55    54    1
    88    55    56    2
    89    54    57    1
    90    54    53    1
    91    35    33   ar
    92    15    11   am
    93    15    16    1
    94    30    29    1
    95    30    31   ar
    96    11    12    2
    97    29    26    1
    98    24    22   ar
    99    47    46    2
   100    20    19    1
   101    20    22   ar
   102    53    46   am
   103    39    38    2
   104    19    16    1
   105    25    26    1
   106    25    17   am
   107    36    37    1
   108    36    27   am
   109    37    38    1
   110    33    31   ar
   111    46    45    1
   112    16    17    1
   113    38    44   am
   114    26    27    1
   115    27    28    2
   116   137   136    1
   117    17    18    2
   118   127   128    1
   119    44    45    1
   120   136   133    1
   121    45    48    1
   122   132   133    1
   123   132   129   am
   124   131   128    1
   125   128   129    1
   126   133   134    1
   127    48    49    1
   128   129   130    2
   129   134   135    2
   130    49    50    1
   131    51    50   ar
   132    50    52   ar
   133   146   144   ar
   134   138   139    1
   135   145   144   ar
   136   144   143    1
   137   155   157   ar
   138   155   153   ar
   139   150   149    2
   140   157   156   ar
   141   153   152   ar
   142   141   140    2
   143   139   140    1
   144   139   142    1
   145   140   147   am
   146   143   142    1
   147   147   148    1
   148   149   148    1
   149   156   154   ar
   150   152   154   ar
   151   152   151    1
   152   148   151    1
