@<TRIPOS>MOLECULE
tmp/3iqvA01.pdb
 151 139 0 0 0
SMALL
GASTEIGER

@<TRIPOS>ATOM
      1  N        -24.7740   -9.2270   -8.5910 N.3    19  GLU19      -0.1245
      2  CA       -23.5040   -9.5050   -7.9570 C.3    19  GLU19       0.1567
      3  C        -22.3570   -8.6880   -8.6060 C.2    19  GLU19       0.2260
      4  O        -21.5650   -8.0580   -7.9490 O.2    19  GLU19      -0.2867
      5  CB       -23.2170  -10.9930   -7.9980 C.3    19  GLU19       0.0388
      6  CG       -21.9990  -11.4120   -7.1710 C.3    19  GLU19       0.1160
      7  CD       -20.6360  -11.2620   -7.8630 C.2    19  GLU19       0.3649
      8  OE1      -20.5480  -11.3240   -9.1130 O.co2  19  GLU19      -0.2457
      9  OE2      -19.6460  -11.0130   -7.1150 O.co2  19  GLU19      -0.2457
     10  N        -29.7540   -8.5130   -5.4930 N.3    27  MET27      -0.1245
     11  CA       -29.3230   -9.8940   -5.6030 C.3    27  MET27       0.1570
     12  C        -30.1270  -10.8150   -4.7080 C.2    27  MET27       0.2261
     13  O        -30.5620  -11.8890   -5.0700 O.2    27  MET27      -0.2867
     14  CB       -27.8140   -9.9620   -5.2990 C.3    27  MET27       0.0387
     15  CG       -27.1830  -11.2750   -5.6330 C.3    27  MET27       0.0595
     16  SD       -25.4890  -11.2900   -5.0650 S.3    27  MET27      -0.1393
     17  CE       -25.0060  -12.9680   -5.4800 C.3    27  MET27       0.0692
     18  N        -24.1110  -23.7710   -7.3690 N.3    43  GLU43      -0.1245
     19  CA       -23.8250  -22.3880   -7.7190 C.3    43  GLU43       0.1567
     20  C        -24.9390  -21.4890   -7.1910 C.2    43  GLU43       0.2260
     21  O        -24.6480  -20.3450   -6.7630 O.2    43  GLU43      -0.2867
     22  CB       -23.7450  -22.2670   -9.2340 C.3    43  GLU43       0.0388
     23  CG       -23.4410  -20.8940   -9.7380 C.3    43  GLU43       0.1160
     24  CD       -23.2030  -20.7900  -11.2640 C.2    43  GLU43       0.3649
     25  OE1      -23.1980  -21.7860  -11.8990 O.co2  43  GLU43      -0.2457
     26  OE2      -23.0010  -19.7120  -11.7850 O.co2  43  GLU43      -0.2457
     27  N        -24.6690  -20.6530   -3.5240 N.3    46  ASN46      -0.1225
     28  CA       -23.6500  -19.6330   -3.2870 C.3    46  ASN46       0.1785
     29  C        -24.1870  -18.2540   -3.5620 C.2    46  ASN46       0.2597
     30  O        -23.8740  -17.3220   -2.8210 O.2    46  ASN46      -0.2718
     31  CB       -22.4020  -19.9080   -4.1060 C.3    46  ASN46       0.1169
     32  CG       -21.6230  -21.1110   -3.7100 C.2    46  ASN46       0.2627
     33  OD1      -21.8560  -21.6050   -2.6240 O.2    46  ASN46      -0.2716
     34  ND2      -20.6760  -21.5600   -4.4830 N.am   46  ASN46      -0.0877
     35  N        -24.9740  -18.0840   -4.6180 N.am   47  LEU47      -0.1980
     36  CA       -25.5650  -16.7840   -4.8700 C.3    47  LEU47       0.1596
     37  C        -26.4830  -16.3690   -3.7140 C.2    47  LEU47       0.2287
     38  O        -26.4580  -15.2030   -3.3290 O.2    47  LEU47      -0.2864
     39  CB       -26.3450  -16.8190   -6.2010 C.3    47  LEU47       0.0297
     40  CG       -25.5420  -17.0280   -7.4730 C.3    47  LEU47       0.0022
     41  CD1      -26.4880  -17.2900   -8.6270 C.3    47  LEU47       0.0001
     42  CD2      -24.6330  -15.8550   -7.7800 C.3    47  LEU47       0.0001
     43  N        -26.3920  -17.2930   -0.5600 N.3    49  SER49      -0.1202
     44  CA       -25.6590  -17.0210    0.6420 C.3    49  SER49       0.2020
     45  C        -24.8930  -15.7140    0.5460 C.2    49  SER49       0.2618
     46  O        -24.8610  -14.9410    1.5250 O.2    49  SER49      -0.2717
     47  CB       -24.7830  -18.1640    1.0510 C.3    49  SER49       0.2103
     48  OG       -23.6820  -18.3470    0.1890 O.3    49  SER49      -0.2182
     49  N        -24.2520  -15.4310   -0.5930 N.am   50  VAL50      -0.1979
     50  CA       -23.4560  -14.2270   -0.7190 C.3    50  VAL50       0.1595
     51  C        -24.3710  -12.9980   -0.6530 C.2    50  VAL50       0.2287
     52  O        -24.0290  -11.9690   -0.0290 O.2    50  VAL50      -0.2864
     53  CB       -22.6450  -14.2480   -2.0030 C.3    50  VAL50       0.0276
     54  CG1      -22.0990  -12.8500   -2.3290 C.3    50  VAL50       0.0022
     55  CG2      -21.5030  -15.2920   -1.8580 C.3    50  VAL50       0.0022
     56  N        -25.4880  -12.5180    2.9600 N.3    53  LYS53      -0.1245
     57  CA       -24.3360  -12.2310    3.8000 C.3    53  LYS53       0.1561
     58  C        -23.9730  -10.7600    3.6890 C.2    53  LYS53       0.2260
     59  O        -23.6380  -10.0990    4.6710 O.2    53  LYS53      -0.2867
     60  CB       -23.1450  -13.1390    3.4120 C.3    53  LYS53       0.0271
     61  CG       -21.8990  -12.8170    4.2290 C.3    53  LYS53       0.0035
     62  CD       -20.8280  -13.8470    3.8830 C.3    53  LYS53       0.0206
     63  CE       -19.3930  -13.4230    4.1960 C.3    53  LYS53       0.1093
     64  NZ       -19.2710  -13.2070    5.6850 N.3    53  LYS53      -0.1314
     65  N        -24.8440  -26.9250    4.1180 N.3   123  PHE123     -0.1241
     66  CA       -24.8670  -25.5360    3.7150 C.3   123  PHE123      0.1605
     67  C        -26.0250  -24.7640    4.3400 C.2   123  PHE123      0.2264
     68  O        -25.8650  -23.6860    4.9150 O.2   123  PHE123     -0.2867
     69  CB       -24.8750  -25.4950    2.1760 C.3   123  PHE123      0.0534
     70  CG       -24.6990  -24.1430    1.5470 C.ar  123  PHE123     -0.0203
     71  CD1      -25.7140  -23.2220    1.4970 C.ar  123  PHE123     -0.0042
     72  CD2      -23.4940  -23.8410    0.9440 C.ar  123  PHE123     -0.0042
     73  CE1      -25.5080  -21.9810    0.8780 C.ar  123  PHE123     -0.0003
     74  CE2      -23.3020  -22.6280    0.3270 C.ar  123  PHE123     -0.0003
     75  CZ       -24.3070  -21.7010    0.3220 C.ar  123  PHE123     -0.0000
     76  N        -25.7760  -24.5170    8.1850 N.3   126  LYS126     -0.1231
     77  CA       -24.8090  -23.4800    8.4930 C.3   126  LYS126      0.1693
     78  C        -25.4670  -22.0850    8.3910 C.2   126  LYS126      0.2591
     79  O        -25.3190  -21.2500    9.2740 O.2   126  LYS126     -0.2718
     80  CB       -23.5970  -23.5240    7.5830 C.3   126  LYS126      0.0285
     81  CG       -22.6350  -22.3860    7.8360 C.3   126  LYS126      0.0035
     82  CD       -21.4400  -22.3850    6.9160 C.3   126  LYS126      0.0206
     83  CE       -20.5940  -21.1090    7.0150 C.3   126  LYS126      0.1093
     84  NZ       -21.3000  -19.8960    6.4990 N.3   126  LYS126     -0.1314
     85  N        -26.1960  -21.8460    7.3000 N.am  127  MET127     -0.1979
     86  CA       -26.9240  -20.5910    7.1650 C.3   127  MET127      0.1605
     87  C        -27.8820  -20.4050    8.3330 C.2   127  MET127      0.2287
     88  O        -27.9780  -19.2800    8.8560 O.2   127  MET127     -0.2864
     89  CB       -27.6780  -20.5180    5.8420 C.3   127  MET127      0.0413
     90  CG       -26.8320  -20.3300    4.5910 C.3   127  MET127      0.0598
     91  SD       -27.7920  -20.0970    3.1010 S.3   127  MET127     -0.1393
     92  CE       -28.4830  -18.5550    3.4240 C.3   127  MET127      0.0692
     93  N        -25.9050  -19.2600   11.1930 N.3   130  ASP130     -0.1239
     94  CA       -25.4300  -17.8850   10.9740 C.3   130  ASP130      0.1674
     95  C        -26.5260  -16.8690   11.2860 C.2   130  ASP130      0.2266
     96  O        -26.2430  -15.8670   11.9440 O.2   130  ASP130     -0.2867
     97  CB       -24.9440  -17.7200    9.5380 C.3   130  ASP130      0.1410
     98  CG       -23.6460  -18.4650    9.1870 C.2   130  ASP130      0.3668
     99  OD1      -22.8570  -18.7910   10.1150 O.co2 130  ASP130     -0.2456
    100  OD2      -23.4160  -18.6890    7.9800 O.co2 130  ASP130     -0.2456
    101  N        -14.6930  -27.2880    1.6190 N.3   171  PRO171     -0.2102
    102  CA       -14.8600  -25.8940    1.9770 C.3   171  PRO171      0.1504
    103  C        -16.0730  -25.5700    2.8390 C.2   171  PRO171      0.2575
    104  O        -16.0000  -24.7170    3.7080 O.2   171  PRO171     -0.2718
    105  CB       -14.8540  -25.1890    0.6250 C.3   171  PRO171      0.0282
    106  CG       -13.9280  -26.0590   -0.1880 C.3   171  PRO171      0.0208
    107  CD       -14.3550  -27.3540    0.1880 C.3   171  PRO171      0.0893
    108  N        -17.1760  -26.2570    2.5910 N.am  172  ILE172     -0.1980
    109  CA       -18.3820  -26.0500    3.4010 C.3   172  ILE172      0.1595
    110  C        -18.0940  -26.4990    4.8280 C.2   172  ILE172      0.2287
    111  O        -18.4560  -25.8390    5.7730 O.2   172  ILE172     -0.2864
    112  CB       -19.6310  -26.7210    2.7810 C.3   172  ILE172      0.0276
    113  CG1      -19.9410  -26.1790    1.3950 C.3   172  ILE172      0.0022
    114  CG2      -20.8180  -26.5780    3.6890 C.3   172  ILE172      0.0022
    115  CD1      -20.8190  -27.0620    0.6090 C.3   172  ILE172      0.0001
    116  N        -15.8470  -23.9270    6.4350 N.3   175  GLY175     -0.1225
    117  CA       -16.5190  -22.6790    6.7280 C.3   175  GLY175      0.1811
    118  C        -17.4850  -22.8140    7.8590 C.2   175  GLY175      0.2280
    119  O        -17.6490  -21.8840    8.6550 O.2   175  GLY175     -0.2866
    120  N         -8.5590  -23.9590   -2.6590 N.3   219  ASP219     -0.1239
    121  CA        -9.8240  -23.5770   -2.0610 C.3   219  ASP219      0.1674
    122  C         -9.7800  -23.8440   -0.5220 C.2   219  ASP219      0.2266
    123  O        -10.3470  -23.1550    0.3020 O.2   219  ASP219     -0.2867
    124  CB       -10.9530  -24.4100   -2.6970 C.3   219  ASP219      0.1410
    125  CG       -11.3090  -24.0320   -4.1190 C.2   219  ASP219      0.3668
    126  OD1      -10.9680  -22.8600   -4.5610 O.co2 219  ASP219     -0.2456
    127  OD2      -11.9170  -24.9730   -4.7460 O.co2 219  ASP219     -0.2456
    128  N         -7.2990  -21.5780    1.5990 N.3   222  LEU222     -0.1231
    129  CA        -7.9660  -20.2550    1.7850 C.3   222  LEU222      0.1693
    130  C         -8.7000  -20.1830    3.1150 C.2   222  LEU222      0.2591
    131  O         -8.6560  -19.1600    3.9600 O.2   222  LEU222     -0.2718
    132  CB        -8.7470  -19.8190    0.5810 C.3   222  LEU222      0.0284
    133  CG        -9.3230  -18.4200    0.6590 C.3   222  LEU222      0.0019
    134  CD1       -9.6740  -18.0370   -0.7360 C.3   222  LEU222      0.0001
    135  CD2      -10.4340  -18.2090    1.4380 C.3   222  LEU222      0.0001
    136  N         -9.6340  -21.0760    3.2990 N.am  223  ILE223     -0.1980
    137  CA       -10.4390  -21.0240    4.5880 C.3   223  ILE223      0.1595
    138  C         -9.5930  -21.4150    5.7640 C.2   223  ILE223      0.2287
    139  O         -9.8390  -20.9220    6.9000 O.2   223  ILE223     -0.2864
    140  CB       -11.7380  -21.8760    4.4780 C.3   223  ILE223      0.0276
    141  CG1      -12.5970  -21.3180    3.3260 C.3   223  ILE223      0.0022
    142  CG2      -12.5360  -21.8560    5.8190 C.3   223  ILE223      0.0022
    143  CD1      -13.8620  -22.2110    3.1190 C.3   223  ILE223      0.0001
    144  N         -8.2440  -18.4300    7.2830 N.3   226  LEU226     -0.1245
    145  CA        -9.1860  -17.7300    8.1530 C.3   226  LEU226      0.1561
    146  C         -9.1780  -18.3070    9.5720 C.2   226  LEU226      0.2260
    147  O         -9.2860  -17.5850   10.5820 O.2   226  LEU226     -0.2867
    148  CB       -10.6180  -17.7240    7.5590 C.3   226  LEU226      0.0270
    149  CG       -10.7390  -17.1170    6.1200 C.3   226  LEU226      0.0019
    150  CD1      -12.1490  -17.2710    5.6510 C.3   226  LEU226      0.0001
    151  CD2      -10.1930  -15.6510    6.0920 C.3   226  LEU226      0.0001
@<TRIPOS>BOND
     1    25    24   ar
     2    26    24   ar
     3    24    23    1
     4    23    22    1
     5    22    19    1
     6     8     7   ar
     7    41    40    1
     8     3     2    1
     9     3     4    2
    10     1     2    1
    11     5     2    1
    12     5     6    1
    13     7     6    1
    14     7     9   ar
    15    42    40    1
    16    19    18    1
    17    19    20    1
    18    40    39    1
    19    20    21    2
    20    39    36    1
    21    15    14    1
    22    15    16    1
    23    11    10    1
    24    11    14    1
    25    11    12    1
    26    17    16    1
    27    13    12    2
    28    36    35    1
    29    36    37    1
    30   127   125   ar
    31    35    29   am
    32   126   125   ar
    33    34    32   am
    34   125   124    1
    35    31    32    1
    36    31    28    1
    37    37    38    2
    38    32    33    2
    39    29    28    1
    40    29    30    2
    41    27    28    1
    42   124   121    1
    43   120   121    1
    44    54    53    1
    45   121   122    1
    46    53    55    1
    47    53    50    1
    48   134   133    1
    49    50    51    1
    50    50    49    1
    51    51    52    2
    52    49    45   am
    53    43    44    1
    54   122   123    2
    55   106   107    1
    56   106   105    1
    57   107   101    1
    58    48    47    1
    59    75    74   ar
    60    75    73   ar
    61    74    72   ar
    62    45    44    1
    63    45    46    2
    64   132   133    1
    65   132   129    1
    66   115   113    1
    67   105   102    1
    68    44    47    1
    69   133   135    1
    70    73    71   ar
    71    72    70   ar
    72   113   112    1
    73    71    70   ar
    74    70    69    1
    75   128   129    1
    76   101   102    1
    77   129   130    1
    78   102   103    1
    79    69    66    1
    80   108   103   am
    81   108   109    1
    82   112   109    1
    83   112   114    1
    84   103   104    2
    85    56    57    1
    86    91    92    1
    87    91    90    1
    88   130   136   am
    89   130   131    2
    90   143   141    1
    91   136   137    1
    92   141   140    1
    93   109   110    1
    94    60    57    1
    95    60    61    1
    96    58    57    1
    97    58    59    2
    98    66    65    1
    99    66    67    1
   100    62    63    1
   101    62    61    1
   102    63    64    1
   103    67    68    2
   104   140   137    1
   105   140   142    1
   106   137   138    1
   107    90    89    1
   108   110   111    2
   109   150   149    1
   110   138   139    2
   111    89    86    1
   112   151   149    1
   113   149   148    1
   114   116   117    1
   115    84    83    1
   116   117   118    1
   117    82    83    1
   118    82    81    1
   119    86    85    1
   120    86    87    1
   121   144   145    1
   122    85    78   am
   123   148   145    1
   124    80    81    1
   125    80    77    1
   126   118   119    2
   127   100    98   ar
   128   145   146    1
   129    76    77    1
   130    87    88    2
   131    78    77    1
   132    78    79    2
   133    98    97    1
   134    98    99   ar
   135    97    94    1
   136   146   147    2
   137    94    93    1
   138    94    95    1
   139    95    96    2
