@<TRIPOS>MOLECULE
tmp/3iqwB01.pdb
 152 147 0 0 0
SMALL
GASTEIGER

@<TRIPOS>ATOM
      1  N        -10.4600   12.2260  -27.0990 N.3    24  GLY24      -0.1210
      2  CA       -11.8340   11.8440  -26.9000 C.3    24  GLY24       0.1956
      3  C        -12.7620   12.7220  -27.7080 C.2    24  GLY24       0.2612
      4  O        -12.6750   13.9430  -27.6500 O.2    24  GLY24      -0.2717
      5  N        -13.6560   12.1070  -28.4680 N.am   25  GLY25      -0.1942
      6  CA       -14.7060   12.8730  -29.0660 C.3    25  GLY25       0.2014
      7  C        -14.4890   13.2000  -30.5110 C.2    25  GLY25       0.2639
      8  O        -15.4380   13.5290  -31.2070 O.2    25  GLY25      -0.2714
      9  N        -13.2520   13.0920  -30.9840 N.am   26  VAL26      -0.1963
     10  CA       -12.9360   13.5860  -32.3250 C.3    26  VAL26       0.1727
     11  C        -13.6050   12.8170  -33.4490 C.2    26  VAL26       0.2617
     12  O        -13.7300   13.3180  -34.5700 O.2    26  VAL26      -0.2715
     13  CB       -11.4280   13.6990  -32.5640 C.3    26  VAL26       0.0290
     14  CG1      -10.8090   14.6070  -31.4880 C.3    26  VAL26       0.0023
     15  CG2      -10.7820   12.3260  -32.6170 C.3    26  VAL26       0.0023
     16  N        -14.0550   11.6040  -33.1410 N.am   27  GLY27      -0.1940
     17  CA       -14.7690   10.7840  -34.1270 C.3    27  GLY27       0.2014
     18  C        -13.9360    9.5780  -34.5060 C.2    27  GLY27       0.2639
     19  O        -13.8060    9.2230  -35.6850 O.2    27  GLY27      -0.2714
     20  N        -13.3470    8.9550  -33.4950 N.am   28  LYS28      -0.1963
     21  CA       -12.5250    7.7710  -33.7090 C.3    28  LYS28       0.1728
     22  C        -13.3800    6.6240  -34.2610 C.2    28  LYS28       0.2617
     23  O        -13.0990    6.0770  -35.3260 O.2    28  LYS28      -0.2715
     24  CB       -11.8310    7.3820  -32.3990 C.3    28  LYS28       0.0311
     25  CG       -10.5650    8.1890  -32.1170 C.3    28  LYS28       0.0038
     26  CD        -9.9070    7.7770  -30.8440 C.3    28  LYS28       0.0206
     27  CE       -10.9140    7.7730  -29.7770 C.3    28  LYS28       0.1093
     28  NZ       -11.3820    9.1320  -29.5710 N.3    28  LYS28      -0.1314
     29  N        -14.4400    6.2810  -33.5390 N.am   29  THR29      -0.1937
     30  CA       -15.3210    5.2310  -33.9870 C.3    29  THR29       0.2028
     31  C        -15.8850    5.5620  -35.3880 C.2    29  THR29       0.2642
     32  O        -15.7300    4.7850  -36.3580 O.2    29  THR29      -0.2714
     33  CB       -16.4720    5.0040  -32.9900 C.3    29  THR29       0.1808
     34  OG1      -15.9820    4.2910  -31.8590 O.3    29  THR29      -0.2208
     35  CG2      -17.5390    4.1620  -33.6200 C.3    29  THR29       0.0379
     36  N        -16.5400    6.7140  -35.4930 N.am   30  THR30      -0.1950
     37  CA       -17.1590    7.0590  -36.7330 C.3    30  THR30       0.1897
     38  C        -16.1870    6.7060  -37.8230 C.2    30  THR30       0.2313
     39  O        -16.5770    6.1500  -38.8410 O.2    30  THR30      -0.2863
     40  CB       -17.5010    8.5340  -36.8070 C.3    30  THR30       0.1794
     41  OG1      -18.5730    8.8260  -35.8950 O.3    30  THR30      -0.2208
     42  CG2      -17.9440    8.8850  -38.1950 C.3    30  THR30       0.0378
     43  N        -13.0140   -0.0790  -26.4640 N.3    52  ASP52      -0.1239
     44  CA       -13.6360    0.7810  -25.4340 C.3    52  ASP52       0.1674
     45  C        -14.3050   -0.1470  -24.4060 C.2    52  ASP52       0.2266
     46  O        -15.0690   -1.0380  -24.7720 O.2    52  ASP52      -0.2867
     47  CB       -14.6480    1.8200  -26.0120 C.3    52  ASP52       0.1410
     48  CG       -15.7890    2.2350  -24.9790 C.2    52  ASP52       0.3668
     49  OD1      -15.5670    2.2560  -23.7310 O.co2  52  ASP52      -0.2456
     50  OD2      -16.9300    2.5480  -25.4290 O.co2  52  ASP52      -0.2456
     51  N        -19.2040    1.5960  -28.5150 N.3    56  ASN56      -0.1240
     52  CA       -19.9690    2.3840  -29.4110 C.3    56  ASN56       0.1653
     53  C        -20.0050    1.7700  -30.7950 C.2    56  ASN56       0.2266
     54  O        -20.5800    2.3400  -31.7060 O.2    56  ASN56      -0.2867
     55  CB       -19.3380    3.7670  -29.4530 C.3    56  ASN56       0.1155
     56  CG       -19.4400    4.4760  -28.1170 C.2    56  ASN56       0.2627
     57  OD1      -18.6380    5.3530  -27.8050 O.2    56  ASN56      -0.2716
     58  ND2      -20.4370    4.0950  -27.3220 N.am   56  ASN56      -0.0877
     59  N         -8.5560    6.2770  -25.6860 N.3   113  PRO113     -0.2116
     60  CA        -7.6130    7.3460  -26.0260 C.3   113  PRO113      0.1372
     61  C         -6.1810    7.1370  -25.5710 C.2   113  PRO113      0.2244
     62  O         -5.9210    6.5310  -24.5360 O.2   113  PRO113     -0.2868
     63  CB        -8.2420    8.5850  -25.3820 C.3   113  PRO113      0.0268
     64  CG        -9.6900    8.3200  -25.4630 C.3   113  PRO113      0.0207
     65  CD        -9.8240    6.8310  -25.1740 C.3   113  PRO113      0.0892
     66  N        -11.4690   15.9040  -38.8710 N.3   188  ASN188     -0.1225
     67  CA       -12.8940   15.6970  -38.8920 C.3   188  ASN188      0.1785
     68  C        -13.6830   16.9220  -38.4640 C.2   188  ASN188      0.2597
     69  O        -13.1180   17.8990  -37.9830 O.2   188  ASN188     -0.2718
     70  CB       -13.2120   14.5710  -37.9410 C.3   188  ASN188      0.1169
     71  CG       -14.6370   14.1060  -38.0590 C.2   188  ASN188      0.2627
     72  OD1      -15.2600   14.2850  -39.1000 O.2   188  ASN188     -0.2716
     73  ND2      -15.1590   13.4830  -36.9970 N.am  188  ASN188     -0.0877
     74  N        -14.9960   16.8560  -38.6400 N.am  189  GLN189     -0.1979
     75  CA       -15.9110   17.9020  -38.2120 C.3   189  GLN189      0.1601
     76  C        -15.5830   19.2940  -38.7200 C.2   189  GLN189      0.2287
     77  O        -15.8110   20.2650  -38.0200 O.2   189  GLN189     -0.2864
     78  CB       -16.0020   17.9060  -36.7000 C.3   189  GLN189      0.0394
     79  CG       -16.4020   16.5710  -36.2050 C.3   189  GLN189      0.0908
     80  CD       -16.5330   16.4950  -34.7090 C.2   189  GLN189      0.2608
     81  OE1      -16.8140   17.4850  -34.0440 O.2   189  GLN189     -0.2717
     82  NE2      -16.3470   15.2960  -34.1670 N.am  189  GLN189     -0.0878
     83  N        -16.2420   16.7220  -43.5890 N.3   230  PRO230     -0.2102
     84  CA       -17.1150   17.8210  -43.2110 C.3   230  PRO230      0.1504
     85  C        -17.9960   17.4630  -42.0420 C.2   230  PRO230      0.2576
     86  O        -18.3700   16.3070  -41.8680 O.2   230  PRO230     -0.2718
     87  CB       -17.9820   18.0030  -44.4550 C.3   230  PRO230      0.0282
     88  CG       -18.1090   16.6480  -44.9780 C.3   230  PRO230      0.0208
     89  CD       -16.7670   15.9990  -44.7570 C.3   230  PRO230      0.0893
     90  N        -18.3400   18.4680  -41.2590 N.am  231  LEU231     -0.1966
     91  CA       -19.2340   18.2920  -40.1480 C.3   231  LEU231      0.1728
     92  C        -20.6530   18.1570  -40.6580 C.2   231  LEU231      0.2616
     93  O        -21.1370   19.0510  -41.3090 O.2   231  LEU231     -0.2715
     94  CB       -19.1350   19.5240  -39.2750 C.3   231  LEU231      0.0311
     95  CG       -20.1420   19.5600  -38.1400 C.3   231  LEU231      0.0022
     96  CD1      -19.8410   18.4140  -37.2180 C.3   231  LEU231      0.0001
     97  CD2      -20.0530   20.8630  -37.4310 C.3   231  LEU231      0.0001
     98  N        -21.3310   17.0570  -40.3650 N.am  232  LEU232     -0.1977
     99  CA       -22.7120   16.8840  -40.8530 C.3   232  LEU232      0.1596
    100  C        -23.7730   17.3310  -39.8450 C.2   232  LEU232      0.2287
    101  O        -23.5420   17.3430  -38.6530 O.2   232  LEU232     -0.2864
    102  CB       -22.9730   15.4310  -41.2700 C.3   232  LEU232      0.0297
    103  CG       -22.4710   14.9530  -42.6330 C.3   232  LEU232      0.0022
    104  CD1      -21.3320   15.8320  -43.1090 C.3   232  LEU232      0.0001
    105  CD2      -22.0060   13.5390  -42.4960 C.3   232  LEU232      0.0001
    106  N        -26.5510   15.7970  -38.9610 N.3   234  GLU234     -0.1231
    107  CA       -26.9500   14.7470  -38.0360 C.3   234  GLU234      0.1699
    108  C        -25.7730   13.8490  -37.6600 C.2   234  GLU234      0.2592
    109  O        -24.7120   13.8700  -38.3030 O.2   234  GLU234     -0.2718
    110  CB       -28.1470   13.9680  -38.5710 C.3   234  GLU234      0.0402
    111  CG       -29.3370   14.8770  -38.8130 C.3   234  GLU234      0.1161
    112  CD       -30.5720   14.4620  -38.0260 C.2   234  GLU234      0.3649
    113  OE1      -30.6770   13.2700  -37.6550 O.co2 234  GLU234     -0.2457
    114  OE2      -31.4410   15.3310  -37.7800 O.co2 234  GLU234     -0.2457
    115  N        -25.9160   13.0970  -36.5820 N.am  235  GLU235     -0.1966
    116  CA       -24.8330   12.1970  -36.2460 C.3   235  GLU235      0.1733
    117  C        -24.7060   11.2660  -37.4380 C.2   235  GLU235      0.2616
    118  O        -25.6540   11.0770  -38.2210 O.2   235  GLU235     -0.2715
    119  CB       -25.1060   11.3840  -34.9690 C.3   235  GLU235      0.0429
    120  CG       -25.2760   12.1730  -33.6910 C.3   235  GLU235      0.1163
    121  CD       -26.7180   12.3190  -33.2590 C.2   235  GLU235      0.3649
    122  OE1      -27.6510   11.9750  -34.0070 O.co2 235  GLU235     -0.2457
    123  OE2      -26.9060   12.7910  -32.1370 O.co2 235  GLU235     -0.2457
    124  N        -23.5280   10.6880  -37.5770 N.am  236  VAL236     -0.1963
    125  CA       -23.3110    9.6340  -38.5480 C.3   236  VAL236      0.1727
    126  C        -23.5920    8.2400  -37.9470 C.2   236  VAL236      0.2616
    127  O        -22.7050    7.6370  -37.3500 O.2   236  VAL236     -0.2715
    128  CB       -21.8780    9.7180  -39.0790 C.3   236  VAL236      0.0290
    129  CG1      -21.5420    8.5220  -39.8980 C.3   236  VAL236      0.0023
    130  CG2      -21.7250   10.9810  -39.8830 C.3   236  VAL236      0.0023
    131  N        -24.8230    7.7430  -38.1130 N.am  237  ARG237     -0.1977
    132  CA       -25.2180    6.4190  -37.6170 C.3   237  ARG237      0.1597
    133  C        -25.9110    5.5080  -38.6440 C.2   237  ARG237      0.2287
    134  O        -26.5770    5.9530  -39.5870 O.2   237  ARG237     -0.2864
    135  CB       -26.1840    6.5720  -36.4590 C.3   237  ARG237      0.0334
    136  CG       -25.6060    7.2350  -35.2730 C.3   237  ARG237      0.0492
    137  CD       -26.7000    7.4630  -34.2150 C.3   237  ARG237      0.2205
    138  NE       -27.1270    6.2140  -33.5960 N.pl3 237  ARG237     -0.0865
    139  CZ       -28.3000    6.0610  -32.9980 C.cat 237  ARG237      0.5346
    140  NH1      -29.1430    7.0870  -32.9460 N.pl3 237  ARG237      0.1354
    141  NH2      -28.6300    4.8910  -32.4620 N.pl3 237  ARG237      0.1354
    142  N        -20.8250    8.7970  -45.5310 N.3   245  PHE245     -0.1241
    143  CA       -19.7030    9.4380  -44.9020 C.3   245  PHE245      0.1605
    144  C        -18.4080    8.8300  -45.4160 C.2   245  PHE245      0.2264
    145  O        -17.5530    9.5600  -45.9010 O.2   245  PHE245     -0.2867
    146  CB       -19.7790    9.2710  -43.4100 C.3   245  PHE245      0.0534
    147  CG       -18.9070   10.2180  -42.6600 C.ar  245  PHE245     -0.0203
    148  CD1      -19.1430   11.5870  -42.7110 C.ar  245  PHE245     -0.0042
    149  CD2      -17.8610    9.7500  -41.8830 C.ar  245  PHE245     -0.0042
    150  CE1      -18.3530   12.4590  -42.0020 C.ar  245  PHE245     -0.0003
    151  CE2      -17.0720   10.6230  -41.1700 C.ar  245  PHE245     -0.0003
    152  CZ       -17.3120   11.9710  -41.2320 C.ar  245  PHE245     -0.0000
@<TRIPOS>BOND
     1   145   144    2
     2   142   143    1
     3   144   143    1
     4    88    89    1
     5    88    87    1
     6   143   146    1
     7    89    83    1
     8    87    84    1
     9    83    84    1
    10   146   147    1
    11    84    85    1
    12   104   103    1
    13   148   147   ar
    14   148   150   ar
    15   147   149   ar
    16   103   105    1
    17   103   102    1
    18    85    86    2
    19    85    90   am
    20   150   152   ar
    21   149   151   ar
    22    93    92    2
    23   102    99    1
    24    90    91    1
    25   152   151   ar
    26    99    98    1
    27    99   100    1
    28    92    98   am
    29    92    91    1
    30    91    94    1
    31   129   128    1
    32   130   128    1
    33   100   101    2
    34   134   133    2
    35    94    95    1
    36    72    71    2
    37   128   125    1
    38   106   107    1
    39    67    66    1
    40    67    68    1
    41    67    70    1
    42    39    38    2
    43   111   110    1
    44   111   112    1
    45    76    75    1
    46    76    77    2
    47   133   132    1
    48    74    68   am
    49    74    75    1
    50   110   107    1
    51   125   126    1
    52   125   124    1
    53    68    69    2
    54   109   108    2
    55   118   117    2
    56    75    78    1
    57    42    40    1
    58    95    97    1
    59    95    96    1
    60   131   126   am
    61   131   132    1
    62    71    70    1
    63    71    73   am
    64   107   108    1
    65   112   114   ar
    66   112   113   ar
    67   126   127    2
    68    38    37    1
    69   108   115   am
    70   132   135    1
    71   124   117   am
    72   117   116    1
    73    40    37    1
    74    40    41    1
    75    37    36    1
    76    78    79    1
    77   115   116    1
    78   135   136    1
    79    32    31    2
    80   116   119    1
    81    79    80    1
    82    19    18    2
    83    36    31   am
    84    31    30    1
    85    23    22    2
    86   136   137    1
    87   119   120    1
    88    80    82   am
    89    80    81    2
    90    12    11    2
    91    18    17    1
    92    18    20   am
    93    22    21    1
    94    22    29   am
    95   137   138    1
    96    17    16    1
    97   122   121   ar
    98    30    29    1
    99    30    33    1
   100    21    20    1
   101    21    24    1
   102   120   121    1
   103    35    33    1
   104   138   139    2
   105    11    16   am
   106    11    10    1
   107   121   123   ar
   108   139   140    1
   109   139   141    1
   110    33    34    1
   111    15    13    1
   112    13    10    1
   113    13    14    1
   114    24    25    1
   115    10     9    1
   116    25    26    1
   117    54    53    2
   118     8     7    2
   119     9     7   am
   120    26    27    1
   121    53    52    1
   122     7     6    1
   123    27    28    1
   124    55    52    1
   125    55    56    1
   126    52    51    1
   127     6     5    1
   128     5     3   am
   129    56    57    2
   130    56    58   am
   131     3     4    2
   132     3     2    1
   133     1     2    1
   134    43    44    1
   135    60    59    1
   136    60    61    1
   137    60    63    1
   138    47    44    1
   139    47    48    1
   140    59    65    1
   141    61    62    2
   142    64    63    1
   143    64    65    1
   144    44    45    1
   145    50    48   ar
   146    48    49   ar
   147    46    45    2
