@<TRIPOS>MOLECULE
tmp/3iqxA00.pdb
 137 133 0 0 0
SMALL
GASTEIGER

@<TRIPOS>ATOM
      1  N        -16.0390  -12.0250   23.4430 N.3    24  GLY24      -0.1210
      2  CA       -14.8200  -12.6370   23.9160 C.3    24  GLY24       0.1956
      3  C        -15.0030  -13.8670   24.7710 C.2    24  GLY24       0.2612
      4  O        -15.4820  -13.7900   25.8940 O.2    24  GLY24      -0.2717
      5  N        -14.5960  -15.0020   24.2370 N.am   25  GLY25      -0.1942
      6  CA       -14.5960  -16.2040   25.0150 C.3    25  GLY25       0.2014
      7  C        -15.9420  -16.8810   25.1420 C.2    25  GLY25       0.2639
      8  O        -16.1060  -17.7550   26.0060 O.2    25  GLY25      -0.2714
      9  N        -16.9050  -16.5000   24.3030 N.am   26  VAL26      -0.1963
     10  CA       -18.1650  -17.2340   24.2690 C.3    26  VAL26       0.1727
     11  C        -17.9220  -18.5800   23.6150 C.2    26  VAL26       0.2617
     12  O        -18.7380  -19.4660   23.7130 O.2    26  VAL26      -0.2715
     13  CB       -19.2050  -16.5280   23.4680 C.3    26  VAL26       0.0290
     14  CG1      -19.4540  -15.1840   24.0480 C.3    26  VAL26       0.0023
     15  CG2      -18.7210  -16.3990   22.0720 C.3    26  VAL26       0.0023
     16  N        -16.7830  -18.7320   22.9560 N.am   27  GLY27      -0.1940
     17  CA       -16.4280  -20.0010   22.3820 C.3    27  GLY27       0.2014
     18  C        -16.2370  -19.8650   20.8900 C.2    27  GLY27       0.2639
     19  O        -16.3090  -20.8380   20.1500 O.2    27  GLY27      -0.2714
     20  N        -15.9830  -18.6530   20.4260 N.am   28  LYS28      -0.1963
     21  CA       -15.7200  -18.4540   19.0120 C.3    28  LYS28       0.1728
     22  C        -14.7720  -19.5210   18.5010 C.2    28  LYS28       0.2617
     23  O        -15.1720  -20.4130   17.7690 O.2    28  LYS28      -0.2715
     24  CB       -15.1390  -17.0670   18.7720 C.3    28  LYS28       0.0311
     25  CG       -16.1150  -15.9420   19.1080 C.3    28  LYS28       0.0038
     26  CD       -15.6500  -14.5760   18.5750 C.3    28  LYS28       0.0206
     27  CE       -14.6100  -13.8820   19.4840 C.3    28  LYS28       0.1093
     28  NZ       -15.2330  -13.1430   20.6290 N.3    28  LYS28      -0.1314
     29  N        -13.5120  -19.4380   18.9010 N.am   29  THR29      -0.1937
     30  CA       -12.4890  -20.2990   18.3250 C.3    29  THR29       0.2028
     31  C        -12.9150  -21.7500   18.2180 C.2    29  THR29       0.2642
     32  O        -12.9220  -22.3220   17.1240 O.2    29  THR29      -0.2714
     33  CB       -11.2100  -20.2070   19.1080 C.3    29  THR29       0.1808
     34  OG1      -10.8940  -18.8210   19.2870 O.3    29  THR29      -0.2208
     35  CG2      -10.0970  -20.8810   18.3510 C.3    29  THR29       0.0379
     36  N        -13.2630  -22.3410   19.3520 N.am   30  THR30      -0.1950
     37  CA       -13.8150  -23.6830   19.3740 C.3    30  THR30       0.1897
     38  C        -14.8240  -24.0440   18.2540 C.2    30  THR30       0.2313
     39  O        -14.7720  -25.1410   17.6940 O.2    30  THR30      -0.2863
     40  CB       -14.5520  -23.9060   20.6340 C.3    30  THR30       0.1794
     41  OG1      -13.6200  -24.2220   21.6580 O.3    30  THR30      -0.2208
     42  CG2      -15.5030  -25.0590   20.4230 C.3    30  THR30       0.0378
     43  N         -4.6730  -18.8940   19.1480 N.3    56  ASN56      -0.1240
     44  CA        -5.5300  -19.9400   19.7410 C.3    56  ASN56       0.1653
     45  C         -5.8960  -21.1370   18.8730 C.2    56  ASN56       0.2266
     46  O         -6.3300  -22.1650   19.3920 O.2    56  ASN56      -0.2867
     47  CB        -6.7780  -19.3550   20.3480 C.3    56  ASN56       0.1155
     48  CG        -6.4780  -18.4120   21.4800 C.2    56  ASN56       0.2627
     49  OD1       -6.6600  -17.2020   21.3500 O.2    56  ASN56      -0.2716
     50  ND2       -6.0300  -18.9590   22.6050 N.am   56  ASN56      -0.0877
     51  N        -24.1290  -21.5850   23.0170 N.3   193  ASN193     -0.1225
     52  CA       -23.1450  -22.5100   23.4860 C.3   193  ASN193      0.1785
     53  C        -22.9970  -22.5300   24.9860 C.2   193  ASN193      0.2597
     54  O        -23.2310  -21.5550   25.6630 O.2   193  ASN193     -0.2718
     55  CB       -21.8090  -22.2090   22.8120 C.3   193  ASN193      0.1169
     56  CG       -20.7160  -23.1240   23.2720 C.2   193  ASN193      0.2627
     57  OD1      -20.9050  -24.3110   23.3760 O.2   193  ASN193     -0.2716
     58  ND2      -19.5670  -22.5760   23.5550 N.am  193  ASN193     -0.0877
     59  N        -22.6130  -23.6850   25.4830 N.am  194  GLN194     -0.1979
     60  CA       -22.2910  -23.8640   26.8750 C.3   194  GLN194      0.1601
     61  C        -23.5180  -24.1420   27.7020 C.2   194  GLN194      0.2287
     62  O        -23.5040  -23.9980   28.9220 O.2   194  GLN194     -0.2864
     63  CB       -21.5250  -22.6710   27.3960 C.3   194  GLN194      0.0394
     64  CG       -20.3450  -22.3860   26.5250 C.3   194  GLN194      0.0908
     65  CD       -19.2830  -21.6260   27.2450 C.2   194  GLN194      0.2608
     66  OE1      -19.1820  -21.7170   28.4650 O.2   194  GLN194     -0.2717
     67  NE2      -18.4770  -20.8640   26.5000 N.am  194  GLN194     -0.0878
     68  N        -23.8560  -28.4140   24.2540 N.3   235  PRO235     -0.2102
     69  CA       -23.7120  -28.7090   25.6650 C.3   235  PRO235      0.1504
     70  C        -22.3880  -28.2390   26.2010 C.2   235  PRO235      0.2576
     71  O        -21.4200  -28.1630   25.4770 O.2   235  PRO235     -0.2718
     72  CB       -23.7490  -30.2270   25.6940 C.3   235  PRO235      0.0282
     73  CG       -23.2020  -30.6170   24.3980 C.3   235  PRO235      0.0208
     74  CD       -23.7200  -29.6230   23.4340 C.3   235  PRO235      0.0893
     75  N        -22.3570  -27.9230   27.4760 N.am  236  LEU236     -0.1966
     76  CA       -21.1580  -27.4400   28.0800 C.3   236  LEU236      0.1728
     77  C        -20.4660  -28.6560   28.5900 C.2   236  LEU236      0.2616
     78  O        -21.0120  -29.3730   29.4210 O.2   236  LEU236     -0.2715
     79  CB       -21.5110  -26.5590   29.2530 C.3   236  LEU236      0.0311
     80  CG       -20.3340  -26.4720   30.1870 C.3   236  LEU236      0.0022
     81  CD1      -19.5180  -25.3110   29.7600 C.3   236  LEU236      0.0001
     82  CD2      -20.8840  -26.2700   31.5350 C.3   236  LEU236      0.0001
     83  N        -19.2710  -28.9120   28.0890 N.am  237  LEU237     -0.1977
     84  CA       -18.6060  -30.1520   28.4340 C.3   237  LEU237      0.1596
     85  C        -17.7610  -30.0060   29.6780 C.2   237  LEU237      0.2287
     86  O        -17.3560  -28.8920   30.0260 O.2   237  LEU237     -0.2864
     87  CB       -17.7650  -30.6540   27.2780 C.3   237  LEU237      0.0297
     88  CG       -18.6650  -31.4130   26.3330 C.3   237  LEU237      0.0022
     89  CD1      -19.5890  -30.4400   25.6900 C.3   237  LEU237      0.0001
     90  CD2      -17.8550  -32.1250   25.3010 C.3   237  LEU237      0.0001
     91  N        -14.6520  -31.1360   30.2060 N.3   239  GLU239     -0.1231
     92  CA       -13.2710  -30.7960   29.9260 C.3   239  GLU239      0.1699
     93  C        -13.1370  -29.7150   28.8580 C.2   239  GLU239      0.2592
     94  O        -14.0730  -29.4780   28.0970 O.2   239  GLU239     -0.2718
     95  CB       -12.5280  -32.0560   29.5300 C.3   239  GLU239      0.0402
     96  CG       -12.4340  -33.0390   30.6850 C.3   239  GLU239      0.1161
     97  CD       -11.3140  -32.6770   31.6500 C.2   239  GLU239      0.3649
     98  OE1      -10.2360  -32.3100   31.1370 O.co2 239  GLU239     -0.2457
     99  OE2      -11.4910  -32.7490   32.9000 O.co2 239  GLU239     -0.2457
    100  N        -11.9980  -29.0300   28.7920 N.am  240  GLU240     -0.1966
    101  CA       -11.8790  -28.0470   27.7370 C.3   240  GLU240      0.1733
    102  C        -12.0310  -28.8360   26.4770 C.2   240  GLU240      0.2616
    103  O        -11.6970  -30.0160   26.4440 O.2   240  GLU240     -0.2715
    104  CB       -10.5130  -27.4040   27.6910 C.3   240  GLU240      0.0429
    105  CG       -10.3070  -26.2610   28.6010 C.3   240  GLU240      0.1163
    106  CD        -9.4670  -26.6810   29.7780 C.2   240  GLU240      0.3649
    107  OE1       -8.8080  -27.7510   29.6840 O.co2 240  GLU240     -0.2457
    108  OE2       -9.4700  -25.9470   30.7920 O.co2 240  GLU240     -0.2457
    109  N        -12.4970  -28.1760   25.4280 N.am  241  VAL241     -0.1963
    110  CA       -12.5090  -28.7570   24.0940 C.3   241  VAL241      0.1727
    111  C        -11.2090  -28.5070   23.2970 C.2   241  VAL241      0.2616
    112  O        -11.1140  -27.5050   22.5710 O.2   241  VAL241     -0.2715
    113  CB       -13.6870  -28.2010   23.3180 C.3   241  VAL241      0.0290
    114  CG1      -13.7060  -28.7660   21.9220 C.3   241  VAL241      0.0023
    115  CG2      -14.9700  -28.5300   24.0580 C.3   241  VAL241      0.0023
    116  N        -10.2330  -29.4240   23.4390 N.am  242  ARG242     -0.1977
    117  CA        -8.9380  -29.3670   22.7370 C.3   242  ARG242      0.1597
    118  C         -8.5970  -30.6800   22.1220 C.2   242  ARG242      0.2287
    119  O         -9.1260  -31.7030   22.4880 O.2   242  ARG242     -0.2864
    120  CB        -7.8110  -29.0530   23.6910 C.3   242  ARG242      0.0334
    121  CG        -8.0730  -27.8410   24.5450 C.3   242  ARG242      0.0492
    122  CD        -7.0560  -27.6880   25.6660 C.3   242  ARG242      0.2205
    123  NE        -5.7320  -27.7060   25.0920 N.pl3 242  ARG242     -0.0865
    124  CZ        -4.6330  -27.9900   25.7670 C.cat 242  ARG242      0.5346
    125  NH1       -4.6890  -28.2750   27.0650 N.pl3 242  ARG242      0.1354
    126  NH2       -3.4770  -27.9820   25.1260 N.pl3 242  ARG242      0.1354
    127  N        -17.1340  -32.8900   19.6540 N.3   250  PHE250     -0.1241
    128  CA       -17.9180  -31.7100   19.8210 C.3   250  PHE250      0.1605
    129  C        -18.5520  -31.3860   18.4730 C.2   250  PHE250      0.2264
    130  O        -19.7720  -31.3170   18.3680 O.2   250  PHE250     -0.2867
    131  CB       -17.0360  -30.5570   20.2830 C.3   250  PHE250      0.0534
    132  CG       -17.7910  -29.3900   20.8550 C.ar  250  PHE250     -0.0203
    133  CD1      -18.4090  -29.5010   22.0650 C.ar  250  PHE250     -0.0042
    134  CD2      -17.8350  -28.1690   20.1980 C.ar  250  PHE250     -0.0042
    135  CE1      -19.0750  -28.4330   22.6000 C.ar  250  PHE250     -0.0003
    136  CE2      -18.4970  -27.1140   20.7330 C.ar  250  PHE250     -0.0003
    137  CZ       -19.1160  -27.2420   21.9360 C.ar  250  PHE250     -0.0000
@<TRIPOS>BOND
     1    32    31    2
     2    39    38    2
     3    23    22    2
     4    31    30    1
     5    31    36   am
     6    38    37    1
     7    30    29    1
     8    30    33    1
     9    35    33    1
    10   130   129    2
    11   129   128    1
    12    22    29   am
    13    22    21    1
    14    26    25    1
    15    26    27    1
    16    24    21    1
    17    24    25    1
    18    45    46    2
    19    45    44    1
    20    21    20    1
    21    33    34    1
    22    43    44    1
    23    36    37    1
    24    37    40    1
    25    27    28    1
    26   127   128    1
    27    44    47    1
    28   128   131    1
    29    19    18    2
    30   134   136   ar
    31   134   132   ar
    32   131   132    1
    33    47    48    1
    34    42    40    1
    35    20    18   am
    36    40    41    1
    37   136   137   ar
    38   132   133   ar
    39    18    17    1
    40    49    48    2
    41    48    50   am
    42   114   113    1
    43   137   135   ar
    44   133   135   ar
    45    15    13    1
    46   118   119    2
    47   118   117    1
    48    17    16    1
    49   112   111    2
    50   117   116    1
    51   117   120    1
    52    55    56    1
    53    55    52    1
    54    16    11   am
    55    51    52    1
    56    56    57    2
    57    56    58   am
    58   111   116   am
    59   111   110    1
    60   113   115    1
    61   113   110    1
    62    74    68    1
    63    74    73    1
    64     1     2    1
    65    13    14    1
    66    13    10    1
    67    52    53    1
    68    11    12    2
    69    11    10    1
    70   120   121    1
    71     2     3    1
    72   110   109    1
    73     5     3   am
    74     5     6    1
    75    68    69    1
    76    10     9    1
    77     9     7   am
    78    73    72    1
    79   121   122    1
    80     3     4    2
    81    53    59   am
    82    53    54    2
    83     6     7    1
    84   123   122    1
    85   123   124    2
    86   126   124    1
    87     7     8    2
    88    90    88    1
    89   109   102   am
    90    71    70    2
    91    59    60    1
    92    69    72    1
    93    69    70    1
    94    89    88    1
    95   124   125    1
    96    70    75   am
    97    88    87    1
    98   103   102    2
    99   102   101    1
   100    67    65   am
   101    64    65    1
   102    64    63    1
   103    60    63    1
   104    60    61    1
   105    65    66    2
   106    87    84    1
   107    75    76    1
   108   104   101    1
   109   104   105    1
   110    61    62    2
   111   101   100    1
   112    76    77    1
   113    76    79    1
   114    83    84    1
   115    83    77   am
   116    94    93    2
   117    84    85    1
   118    77    78    2
   119   105   106    1
   120   100    93   am
   121    93    92    1
   122    79    80    1
   123    95    92    1
   124    95    96    1
   125    85    86    2
   126   107   106   ar
   127    81    80    1
   128   106   108   ar
   129    92    91    1
   130    80    82    1
   131    96    97    1
   132    98    97   ar
   133    97    99   ar
