@<TRIPOS>MOLECULE
tmp/3ir6C01.pdb
 209 201 0 0 0
SMALL
GASTEIGER

@<TRIPOS>ATOM
      1  N       -148.8520  -19.9700  -17.8670 N.3    36  ALA36      -0.1231
      2  CA      -147.9560  -19.0700  -17.1510 C.3    36  ALA36       0.1694
      3  C       -146.5060  -19.5010  -17.2880 C.2    36  ALA36       0.2592
      4  O       -145.5890  -18.7270  -17.0100 O.2    36  ALA36      -0.2718
      5  CB      -148.3430  -19.0060  -15.6950 C.3    36  ALA36       0.0304
      6  N       -146.2970  -20.7410  -17.7150 N.am   37  ALA37      -0.1966
      7  CA      -144.9480  -21.2550  -17.9130 C.3    37  ALA37       0.1728
      8  C       -144.0950  -21.2150  -16.6590 C.2    37  ALA37       0.2617
      9  O       -143.0160  -20.6230  -16.6580 O.2    37  ALA37      -0.2715
     10  CB      -144.2580  -20.4730  -19.0080 C.3    37  ALA37       0.0334
     11  N       -144.5640  -21.8540  -15.5940 N.am   38  SER38      -0.1936
     12  CA      -143.8020  -21.8740  -14.3550 C.3    38  SER38       0.2055
     13  C       -142.4370  -22.5450  -14.5150 C.2    38  SER38       0.2644
     14  O       -142.2910  -23.5340  -15.2230 O.2    38  SER38      -0.2714
     15  CB      -144.5870  -22.6000  -13.2700 C.3    38  SER38       0.2130
     16  OG      -143.7270  -22.9490  -12.2030 O.3    38  SER38      -0.2179
     17  N       -141.4320  -21.9980  -13.8500 N.am   39  SER39      -0.1935
     18  CA      -140.1000  -22.5740  -13.9060 C.3    39  SER39       0.2055
     19  C       -139.7210  -22.9600  -12.4930 C.2    39  SER39       0.2642
     20  O       -138.6720  -23.5410  -12.2690 O.2    39  SER39      -0.2714
     21  CB      -139.0820  -21.5640  -14.4600 C.3    39  SER39       0.2130
     22  OG      -138.9850  -20.3990  -13.6540 O.3    39  SER39      -0.2179
     23  N       -140.6000  -22.6550  -11.5460 N.am   40  GLN40      -0.1976
     24  CA      -140.3490  -22.9250  -10.1370 C.3    40  GLN40       0.1601
     25  C       -139.7800  -24.3080   -9.8110 C.2    40  GLN40       0.2287
     26  O       -138.8020  -24.4260   -9.0790 O.2    40  GLN40      -0.2864
     27  CB      -141.6270  -22.7170   -9.3380 C.3    40  GLN40       0.0394
     28  CG      -141.4010  -22.5650   -7.8400 C.3    40  GLN40       0.0908
     29  CD      -142.6930  -22.6370   -7.0390 C.2    40  GLN40       0.2608
     30  OE1     -143.7870  -22.4090   -7.5670 O.2    40  GLN40      -0.2717
     31  NE2     -142.5690  -22.9460   -5.7560 N.am   40  GLN40      -0.0878
     32  N       -137.3240  -18.1320   -5.3300 N.3    47  MET47      -0.1245
     33  CA      -138.5560  -17.9330   -6.0850 C.3    47  MET47       0.1570
     34  C       -139.6940  -17.4090   -5.2420 C.2    47  MET47       0.2261
     35  O       -140.4950  -16.5990   -5.7050 O.2    47  MET47      -0.2867
     36  CB      -138.9860  -19.2240   -6.7660 C.3    47  MET47       0.0387
     37  CG      -138.3660  -19.3670   -8.1180 C.3    47  MET47       0.0595
     38  SD      -138.8130  -17.9640   -9.1460 S.3    47  MET47      -0.1393
     39  CE      -140.1960  -18.6540  -10.0200 C.3    47  MET47       0.0692
     40  N       -140.5460  -13.8780   -6.7630 N.3    51  SER51      -0.1217
     41  CA      -141.8030  -13.8290   -7.5110 C.3    51  SER51       0.1889
     42  C       -142.8900  -13.0550   -6.7740 C.2    51  SER51       0.2288
     43  O       -143.6350  -12.3000   -7.3950 O.2    51  SER51      -0.2866
     44  CB      -142.2990  -15.2460   -7.8450 C.3    51  SER51       0.2089
     45  OG      -143.5170  -15.2100   -8.5740 O.3    51  SER51      -0.2183
     46  N       -142.0780   -9.2920   -6.9670 N.3    54  PHE54      -0.1227
     47  CA      -142.4260   -8.8470   -8.3040 C.3    54  PHE54       0.1736
     48  C       -143.9410   -8.7370   -8.5500 C.2    54  PHE54       0.2595
     49  O       -144.4320   -7.6690   -8.9250 O.2    54  PHE54      -0.2718
     50  CB      -141.7740   -9.7630   -9.3530 C.3    54  PHE54       0.0547
     51  CG      -142.2280   -9.4820  -10.7580 C.ar   54  PHE54      -0.0202
     52  CD1     -143.3250  -10.1510  -11.2940 C.ar   54  PHE54      -0.0042
     53  CD2     -141.6080   -8.5000  -11.5230 C.ar   54  PHE54      -0.0042
     54  CE1     -143.7990   -9.8390  -12.5650 C.ar   54  PHE54      -0.0003
     55  CE2     -142.0750   -8.1810  -12.7970 C.ar   54  PHE54      -0.0003
     56  CZ      -143.1710   -8.8490  -13.3180 C.ar   54  PHE54      -0.0000
     57  N       -144.6820   -9.8210   -8.3350 N.am   55  HIS55      -0.1975
     58  CA      -146.1230   -9.7830   -8.5800 C.3    55  HIS55       0.1656
     59  C       -146.9250   -8.8470   -7.6960 C.2    55  HIS55       0.2291
     60  O       -147.8650   -8.2060   -8.1650 O.2    55  HIS55      -0.2864
     61  CB      -146.7440  -11.1880   -8.5050 C.3    55  HIS55       0.0771
     62  CG      -146.5480  -11.9950   -9.7520 C.ar   55  HIS55       0.0820
     63  ND1     -145.5420  -12.9270   -9.8840 N.ar   55  HIS55      -0.2267
     64  CD2     -147.1670  -11.9340  -10.9570 C.ar   55  HIS55       0.1154
     65  CE1     -145.5450  -13.3970  -11.1190 C.ar   55  HIS55       0.1986
     66  NE2     -146.5200  -12.8100  -11.7920 N.ar   55  HIS55      -0.2212
     67  N       -145.9470   -5.3470   -8.9860 N.3    58  ILE58      -0.1231
     68  CA      -146.5570   -5.1060  -10.2830 C.3    58  ILE58       0.1692
     69  C       -148.0720   -4.9110  -10.1670 C.2    58  ILE58       0.2591
     70  O       -148.6640   -4.1240  -10.9040 O.2    58  ILE58      -0.2718
     71  CB      -146.2470   -6.2750  -11.2640 C.3    58  ILE58       0.0266
     72  CG1     -146.4200   -5.8090  -12.7060 C.3    58  ILE58       0.0019
     73  CG2     -147.1740   -7.4530  -11.0090 C.3    58  ILE58       0.0020
     74  CD1     -145.2350   -5.0730  -13.2490 C.3    58  ILE58       0.0001
     75  N       -148.7020   -5.6210   -9.2430 N.am   59  LEU59      -0.1980
     76  CA      -150.1420   -5.4880   -9.0790 C.3    59  LEU59       0.1596
     77  C       -150.5300   -4.1490   -8.4410 C.2    59  LEU59       0.2287
     78  O       -151.5810   -3.5860   -8.7640 O.2    59  LEU59      -0.2864
     79  CB      -150.6880   -6.6760   -8.2850 C.3    59  LEU59       0.0297
     80  CG      -150.8130   -7.9280   -9.1670 C.3    59  LEU59       0.0022
     81  CD1     -150.9780   -9.1740   -8.3350 C.3    59  LEU59       0.0001
     82  CD2     -151.9910   -7.7570  -10.0920 C.3    59  LEU59       0.0001
     83  N       -150.3330   -1.6720  -11.3650 N.3    62  PHE62      -0.1241
     84  CA      -151.5250   -1.7970  -12.1880 C.3    62  PHE62       0.1605
     85  C       -152.7870   -1.1830  -11.5700 C.2    62  PHE62       0.2264
     86  O       -153.5680   -0.5250  -12.2600 O.2    62  PHE62      -0.2867
     87  CB      -151.7840   -3.2710  -12.5440 C.3    62  PHE62       0.0534
     88  CG      -153.0260   -3.4720  -13.3560 C.ar   62  PHE62      -0.0203
     89  CD1     -154.2730   -3.5770  -12.7340 C.ar   62  PHE62      -0.0042
     90  CD2     -152.9720   -3.4340  -14.7470 C.ar   62  PHE62      -0.0042
     91  CE1     -155.4550   -3.6300  -13.4870 C.ar   62  PHE62      -0.0003
     92  CE2     -154.1430   -3.4860  -15.5120 C.ar   62  PHE62      -0.0003
     93  CZ      -155.3870   -3.5820  -14.8800 C.ar   62  PHE62      -0.0000
     94  N       -135.5850  -12.1370  -10.2930 N.3   107  LEU107     -0.1245
     95  CA      -136.0730  -13.1370  -11.2330 C.3   107  LEU107      0.1561
     96  C       -135.2440  -13.1450  -12.5140 C.2   107  LEU107      0.2260
     97  O       -134.9840  -14.2000  -13.0890 O.2   107  LEU107     -0.2867
     98  CB      -137.5300  -12.8790  -11.5860 C.3   107  LEU107      0.0270
     99  CG      -138.5380  -13.2400  -10.4990 C.3   107  LEU107      0.0019
    100  CD1     -139.9050  -12.6940  -10.8670 C.3   107  LEU107      0.0001
    101  CD2     -138.5790  -14.7480  -10.3260 C.3   107  LEU107      0.0001
    102  N       -131.9330  -14.7500  -11.9860 N.3   110  ARG110     -0.1231
    103  CA      -132.2240  -16.1810  -11.9960 C.3   110  ARG110      0.1694
    104  C       -132.3770  -16.7570  -13.4020 C.2   110  ARG110      0.2591
    105  O       -131.6850  -17.7080  -13.7540 O.2   110  ARG110     -0.2718
    106  CB      -133.4970  -16.4490  -11.1820 C.3   110  ARG110      0.0321
    107  CG      -133.9370  -17.9150  -11.1190 C.3   110  ARG110      0.0489
    108  CD      -135.0640  -18.0650  -10.1220 C.3   110  ARG110      0.2205
    109  NE      -135.7550  -19.3460  -10.1930 N.pl3 110  ARG110     -0.0865
    110  CZ      -136.5220  -19.7420  -11.2090 C.cat 110  ARG110      0.5346
    111  NH1     -137.1200  -20.9280  -11.1680 N.pl3 110  ARG110      0.1354
    112  NH2     -136.6890  -18.9650  -12.2710 N.pl3 110  ARG110      0.1354
    113  N       -133.2750  -16.1820  -14.1990 N.am  111  ARG111     -0.1980
    114  CA      -133.5140  -16.6620  -15.5590 C.3   111  ARG111      0.1597
    115  C       -132.2460  -16.7180  -16.3780 C.2   111  ARG111      0.2287
    116  O       -132.0590  -17.6290  -17.1850 O.2   111  ARG111     -0.2864
    117  CB      -134.5290  -15.7730  -16.2740 C.3   111  ARG111      0.0334
    118  CG      -134.8100  -16.1480  -17.7240 C.3   111  ARG111      0.0492
    119  CD      -136.1490  -15.5640  -18.1760 C.3   111  ARG111      0.2205
    120  NE      -137.2220  -16.1140  -17.3540 N.pl3 111  ARG111     -0.0865
    121  CZ      -137.6450  -17.3690  -17.4400 C.cat 111  ARG111      0.5346
    122  NH1     -137.0960  -18.1880  -18.3290 N.pl3 111  ARG111      0.1354
    123  NH2     -138.5760  -17.8280  -16.6160 N.pl3 111  ARG111      0.1354
    124  N       -139.2410  -10.1480  -22.5730 N.3   128  ILE128     -0.1231
    125  CA      -140.3540   -9.6460  -21.7930 C.3   128  ILE128      0.1692
    126  C       -140.0020   -9.2600  -20.3600 C.2   128  ILE128      0.2591
    127  O       -140.4330   -8.2240  -19.8640 O.2   128  ILE128     -0.2718
    128  CB      -141.5240  -10.6630  -21.8360 C.3   128  ILE128      0.0266
    129  CG1     -142.6020  -10.1100  -22.7670 C.3   128  ILE128      0.0019
    130  CG2     -142.0860  -10.9420  -20.4650 C.3   128  ILE128      0.0020
    131  CD1     -143.0710   -8.7220  -22.3920 C.3   128  ILE128      0.0001
    132  N       -139.2090  -10.0820  -19.6950 N.am  129  LEU129     -0.1980
    133  CA      -138.8380   -9.7920  -18.3240 C.3   129  LEU129      0.1596
    134  C       -137.8810   -8.6200  -18.2740 C.2   129  LEU129      0.2287
    135  O       -137.8430   -7.8750  -17.2980 O.2   129  LEU129     -0.2864
    136  CB      -138.1660  -10.9990  -17.6870 C.3   129  LEU129      0.0297
    137  CG      -137.8020  -10.7260  -16.2360 C.3   129  LEU129      0.0022
    138  CD1     -139.1030  -10.5920  -15.4470 C.3   129  LEU129      0.0001
    139  CD2     -136.9030  -11.8280  -15.6940 C.3   129  LEU129      0.0001
    140  N       -139.8980   -5.1660  -18.7760 N.3   132  LEU132     -0.1245
    141  CA      -140.6340   -4.7930  -17.5680 C.3   132  LEU132      0.1561
    142  C       -139.6840   -4.2490  -16.4950 C.2   132  LEU132      0.2260
    143  O       -140.0130   -3.2920  -15.8010 O.2   132  LEU132     -0.2867
    144  CB      -141.3980   -5.9910  -17.0030 C.3   132  LEU132      0.0270
    145  CG      -142.6280   -6.5420  -17.7310 C.3   132  LEU132      0.0019
    146  CD1     -142.8550   -7.9620  -17.2760 C.3   132  LEU132      0.0001
    147  CD2     -143.8740   -5.6940  -17.4680 C.3   132  LEU132      0.0001
    148  N       -147.3730   -8.0510  -26.0360 N.3   197  PHE197     -0.1241
    149  CA      -148.1560   -8.8330  -25.0970 C.3   197  PHE197      0.1605
    150  C       -148.6870  -10.1900  -25.5870 C.2   197  PHE197      0.2264
    151  O       -148.3190  -11.2220  -25.0270 O.2   197  PHE197     -0.2867
    152  CB      -149.3140   -7.9770  -24.5990 C.3   197  PHE197      0.0534
    153  CG      -150.1340   -8.6170  -23.5220 C.ar  197  PHE197     -0.0203
    154  CD1     -149.9480   -8.2640  -22.1920 C.ar  197  PHE197     -0.0042
    155  CD2     -151.1420   -9.5210  -23.8400 C.ar  197  PHE197     -0.0042
    156  CE1     -150.7640   -8.7900  -21.1980 C.ar  197  PHE197     -0.0003
    157  CE2     -151.9560  -10.0520  -22.8560 C.ar  197  PHE197     -0.0003
    158  CZ      -151.7740   -9.6860  -21.5340 C.ar  197  PHE197     -0.0000
    159  N       -145.5580  -14.5410  -22.6620 N.3   201  ARG201     -0.1231
    160  CA      -146.1770  -15.2490  -21.5620 C.3   201  ARG201      0.1694
    161  C       -147.2230  -14.3770  -20.8580 C.2   201  ARG201      0.2591
    162  O       -148.1000  -14.8930  -20.1540 O.2   201  ARG201     -0.2718
    163  CB      -145.0990  -15.6660  -20.5660 C.3   201  ARG201      0.0321
    164  CG      -144.4250  -14.5010  -19.8580 C.3   201  ARG201      0.0489
    165  CD      -143.1960  -14.9440  -19.1060 C.3   201  ARG201      0.2205
    166  NE      -143.5250  -16.0110  -18.1730 N.pl3 201  ARG201     -0.0865
    167  CZ      -142.6290  -16.8050  -17.6030 C.cat 201  ARG201      0.5346
    168  NH1     -141.3430  -16.6560  -17.8770 N.pl3 201  ARG201      0.1354
    169  NH2     -143.0240  -17.7320  -16.7450 N.pl3 201  ARG201      0.1354
    170  N       -147.1310  -13.0600  -21.0510 N.am  202  LEU202     -0.1980
    171  CA      -148.0580  -12.1260  -20.4140 C.3   202  LEU202      0.1596
    172  C       -149.5370  -12.4820  -20.5570 C.2   202  LEU202      0.2287
    173  O       -150.3640  -11.9650  -19.8110 O.2   202  LEU202     -0.2864
    174  CB      -147.8110  -10.6880  -20.9030 C.3   202  LEU202      0.0297
    175  CG      -146.4130  -10.1280  -20.5680 C.3   202  LEU202      0.0022
    176  CD1     -146.3790   -8.6290  -20.8050 C.3   202  LEU202      0.0001
    177  CD2     -146.0570  -10.4140  -19.1180 C.3   202  LEU202      0.0001
    178  N       -150.9900  -14.8120  -19.4290 N.3   204  HIS204     -0.1226
    179  CA      -151.4960  -15.4640  -18.2130 C.3   204  HIS204      0.1752
    180  C       -152.3580  -14.4940  -17.4320 C.2   204  HIS204      0.2595
    181  O       -153.2860  -14.8860  -16.7200 O.2   204  HIS204     -0.2718
    182  CB      -150.3610  -16.0310  -17.3220 C.3   204  HIS204      0.0759
    183  CG      -149.4820  -15.0070  -16.6620 C.ar  204  HIS204      0.0818
    184  ND1     -148.7010  -14.1210  -17.3720 N.ar  204  HIS204     -0.2268
    185  CD2     -149.1390  -14.8400  -15.3590 C.ar  204  HIS204      0.1154
    186  CE1     -147.9090  -13.4650  -16.5400 C.ar  204  HIS204      0.1986
    187  NE2     -148.1510  -13.8840  -15.3100 N.ar  204  HIS204     -0.2212
    188  N       -152.0600  -13.2140  -17.6180 N.am  205  ILE205     -0.1980
    189  CA      -152.7760  -12.1510  -16.9530 C.3   205  ILE205      0.1595
    190  C       -154.2760  -12.1830  -17.2200 C.2   205  ILE205      0.2287
    191  O       -155.0560  -11.9330  -16.3130 O.2   205  ILE205     -0.2864
    192  CB      -152.1840  -10.7990  -17.3490 C.3   205  ILE205      0.0276
    193  CG1     -150.6820  -10.8200  -17.0540 C.3   205  ILE205      0.0022
    194  CG2     -152.8710   -9.6730  -16.5710 C.3   205  ILE205      0.0022
    195  CD1     -149.9820   -9.5390  -17.3970 C.3   205  ILE205      0.0001
    196  N       -156.3490  -14.6100  -14.7690 N.3   208  VAL208     -0.1231
    197  CA      -156.4400  -14.4630  -13.3130 C.3   208  VAL208      0.1678
    198  C       -157.6830  -15.2630  -12.8660 C.2   208  VAL208      0.2434
    199  O       -158.8150  -14.9530  -13.2460 O.2   208  VAL208     -0.2733
    200  CB      -156.5470  -12.9570  -12.9280 C.3   208  VAL208      0.0265
    201  CG1     -157.4880  -12.2510  -13.8700 C.3   208  VAL208      0.0020
    202  CG2     -157.0360  -12.8070  -11.4980 C.3   208  VAL208      0.0020
    203  N       -157.4750  -16.3040  -12.0480 N.am  209  PRO209     -0.2729
    204  CA      -158.5100  -17.2060  -11.5280 C.3   209  PRO209      0.1401
    205  C       -159.5150  -16.6590  -10.5240 C.2   209  PRO209      0.2269
    206  O       -159.7460  -17.2780   -9.4790 O.2   209  PRO209     -0.2865
    207  CB      -157.6880  -18.3360  -10.9290 C.3   209  PRO209      0.0296
    208  CG      -156.5670  -17.5710  -10.2960 C.3   209  PRO209      0.0237
    209  CD      -156.1880  -16.5540  -11.3730 C.3   209  PRO209      0.0939
@<TRIPOS>BOND
     1   148   149    1
     2   150   149    1
     3   150   151    2
     4   149   152    1
     5   152   153    1
     6   155   153   ar
     7   155   157   ar
     8   153   154   ar
     9   157   158   ar
    10   129   131    1
    11   129   128    1
    12   159   160    1
    13   124   125    1
    14   154   156   ar
    15   128   125    1
    16   128   130    1
    17   125   126    1
    18   160   161    1
    19   160   163    1
    20   158   156   ar
    21   170   161   am
    22   170   171    1
    23   174   175    1
    24   174   171    1
    25   161   162    2
    26   176   175    1
    27   175   177    1
    28   163   164    1
    29   172   171    1
    30   172   173    2
    31   126   127    2
    32   126   132   am
    33   164   165    1
    34   132   133    1
    35   178   179    1
    36   165   166    1
    37    10     7    1
    38   140   141    1
    39   122   121    1
    40   133   134    1
    41   133   136    1
    42   134   135    2
    43   179   180    1
    44   179   182    1
    45   119   118    1
    46   119   120    1
    47   166   167    2
    48     7     6    1
    49     7     8    1
    50   168   167    1
    51     1     2    1
    52   145   147    1
    53   145   146    1
    54   145   144    1
    55   118   117    1
    56     6     3   am
    57   136   137    1
    58   188   180   am
    59   188   189    1
    60   167   169    1
    61   141   144    1
    62   141   142    1
    63   121   120    2
    64   121   123    1
    65   180   181    2
    66   195   193    1
    67   184   183   ar
    68   184   186   ar
    69   192   193    1
    70   192   189    1
    71   192   194    1
    72   182   183    1
    73     3     2    1
    74     3     4    2
    75   190   189    1
    76   190   191    2
    77   116   115    2
    78     2     5    1
    79   183   185   ar
    80     8     9    2
    81     8    11   am
    82   186   187   ar
    83   142   143    2
    84   115   114    1
    85   117   114    1
    86   137   139    1
    87   137   138    1
    88    11    12    1
    89   114   113    1
    90    92    93   ar
    91    92    90   ar
    92   185   187   ar
    93    14    13    2
    94    93    91   ar
    95   196   197    1
    96    90    88   ar
    97    13    12    1
    98    13    17   am
    99    21    18    1
   100    21    22    1
   101    12    15    1
   102   113   104   am
   103    18    17    1
   104    18    19    1
   105   201   200    1
   106   105   104    2
   107    91    89   ar
   108   104   103    1
   109    88    89   ar
   110    88    87    1
   111    56    55   ar
   112    56    54   ar
   113   197   200    1
   114   197   198    1
   115    15    16    1
   116    74    72    1
   117   199   198    2
   118    97    96    2
   119   200   202    1
   120   198   203   am
   121    55    53   ar
   122    72    71    1
   123    54    52   ar
   124    87    84    1
   125    96    95    1
   126    19    20    2
   127    19    23   am
   128   112   110    1
   129    86    85    2
   130    84    85    1
   131    84    83    1
   132   203   204    1
   133   203   209    1
   134   103   102    1
   135   103   106    1
   136    66    65   ar
   137    66    64   ar
   138    98    95    1
   139    98    99    1
   140    23    24    1
   141   204   207    1
   142   204   205    1
   143    53    51   ar
   144   209   208    1
   145    52    51   ar
   146    71    73    1
   147    71    68    1
   148    95    94    1
   149   110   111    1
   150   110   109    2
   151   106   107    1
   152    65    63   ar
   153   107   108    1
   154    64    62   ar
   155   207   208    1
   156    70    69    2
   157   100    99    1
   158    51    50    1
   159   205   206    2
   160    99   101    1
   161    68    69    1
   162    68    67    1
   163   109   108    1
   164    69    75   am
   165    24    25    1
   166    24    27    1
   167    82    80    1
   168    39    38    1
   169    63    62   ar
   170    25    26    2
   171    62    61    1
   172    50    47    1
   173    27    28    1
   174    75    76    1
   175    80    81    1
   176    80    79    1
   177    38    37    1
   178    76    77    1
   179    76    79    1
   180    49    48    2
   181    78    77    2
   182    58    61    1
   183    58    57    1
   184    58    59    1
   185    45    44    1
   186    48    57   am
   187    48    47    1
   188    47    46    1
   189    60    59    2
   190    37    36    1
   191    44    41    1
   192    28    29    1
   193    30    29    2
   194    41    42    1
   195    41    40    1
   196    43    42    2
   197    29    31   am
   198    36    33    1
   199    33    32    1
   200    33    34    1
   201    35    34    2
