@<TRIPOS>MOLECULE
tmp/3irdA00.pdb
 121 110 0 0 0
SMALL
GASTEIGER

@<TRIPOS>ATOM
      1  N         27.2010   -0.5950  -36.9540 N.3     9  ALA9       -0.1245
      2  CA        26.7510   -1.9760  -36.7930 C.3     9  ALA9        0.1562
      3  C         27.0470   -2.6530  -38.1410 C.2     9  ALA9        0.2260
      4  O         26.2630   -2.5710  -39.1100 O.2     9  ALA9       -0.2867
      5  CB        25.2460   -2.0120  -36.4030 C.3     9  ALA9        0.0290
      6  N         26.3020   -7.6300  -34.3590 N.3    43  GLY43      -0.1210
      7  CA        24.9870   -7.1630  -33.8890 C.3    43  GLY43       0.1956
      8  C         23.9030   -7.7240  -34.8130 C.2    43  GLY43       0.2613
      9  O         24.1720   -8.5590  -35.6790 O.2    43  GLY43      -0.2717
     10  N         22.6790   -7.2230  -34.6780 N.am   44  THR44      -0.1938
     11  CA        21.5720   -7.6530  -35.5350 C.3    44  THR44       0.2028
     12  C         21.8300   -7.3650  -37.0170 C.2    44  THR44       0.2642
     13  O         21.4100   -8.1430  -37.9150 O.2    44  THR44      -0.2714
     14  CB        20.2640   -6.9160  -35.1150 C.3    44  THR44       0.1808
     15  OG1       20.1920   -6.8370  -33.6760 O.3    44  THR44      -0.2208
     16  CG2       19.0380   -7.5860  -35.6710 C.3    44  THR44       0.0379
     17  N         22.4680   -6.2150  -37.2670 N.am   45  THR45      -0.1950
     18  CA        22.8110   -5.8160  -38.6260 C.3    45  THR45       0.1897
     19  C         23.8100   -6.8260  -39.2120 C.2    45  THR45       0.2313
     20  O         23.8440   -7.0400  -40.4190 O.2    45  THR45      -0.2863
     21  CB        23.2930   -4.3210  -38.7100 C.3    45  THR45       0.1794
     22  OG1       22.2810   -3.4740  -38.1430 O.3    45  THR45      -0.2208
     23  CG2       23.5480   -3.8670  -40.1930 C.3    45  THR45       0.0378
     24  N         27.9180   -5.6200  -26.3980 N.3   101  LEU101     -0.1245
     25  CA        26.5950   -5.1600  -26.7110 C.3   101  LEU101      0.1561
     26  C         25.6300   -6.2920  -26.3590 C.2   101  LEU101      0.2260
     27  O         25.6450   -7.3500  -26.9970 O.2   101  LEU101     -0.2867
     28  CB        26.4570   -4.7380  -28.1830 C.3   101  LEU101      0.0270
     29  CG        25.0480   -4.2230  -28.5480 C.3   101  LEU101      0.0019
     30  CD1       24.7360   -2.8930  -27.8390 C.3   101  LEU101      0.0001
     31  CD2       24.8390   -4.1570  -30.0930 C.3   101  LEU101      0.0001
     32  N         21.2210   -3.1620  -24.7170 N.3   133  TYR133     -0.1241
     33  CA        20.5910   -2.8620  -25.9930 C.3   133  TYR133      0.1605
     34  C         19.0800   -3.1170  -25.8330 C.2   133  TYR133      0.2264
     35  O         18.6400   -4.2540  -25.5990 O.2   133  TYR133     -0.2867
     36  CB        21.2390   -3.7050  -27.1140 C.3   133  TYR133      0.0534
     37  CG        20.5780   -3.6640  -28.5060 C.ar  133  TYR133     -0.0201
     38  CD1       19.8620   -2.5420  -28.9360 C.ar  133  TYR133     -0.0009
     39  CD2       20.7110   -4.7330  -29.3950 C.ar  133  TYR133     -0.0009
     40  CE1       19.2680   -2.4930  -30.2030 C.ar  133  TYR133      0.0417
     41  CE2       20.1230   -4.7130  -30.6610 C.ar  133  TYR133      0.0417
     42  CZ        19.3890   -3.5840  -31.0650 C.ar  133  TYR133      0.1957
     43  OH        18.7830   -3.5000  -32.3360 O.3   133  TYR133     -0.2866
     44  N         15.4290   -2.8330  -27.6530 N.3   135  VAL135     -0.1245
     45  CA        14.8050   -2.7880  -28.9770 C.3   135  VAL135      0.1561
     46  C         13.4460   -3.5250  -28.9490 C.2   135  VAL135      0.2260
     47  O         13.2630   -4.5950  -29.5850 O.2   135  VAL135     -0.2867
     48  CB        15.7850   -3.2730  -30.0990 C.3   135  VAL135      0.0252
     49  CG1       16.2760   -4.7210  -29.8810 C.3   135  VAL135      0.0019
     50  CG2       15.2450   -2.9990  -31.6040 C.3   135  VAL135      0.0019
     51  N         11.6400   -5.4770  -31.7050 N.3   138  ARG138     -0.1245
     52  CA        12.2020   -6.7630  -32.1020 C.3   138  ARG138      0.1563
     53  C         12.0160   -7.8310  -31.0190 C.2   138  ARG138      0.2260
     54  O         11.7460   -9.0010  -31.3580 O.2   138  ARG138     -0.2867
     55  CB        13.6980   -6.6890  -32.4620 C.3   138  ARG138      0.0307
     56  CG        14.0270   -5.9170  -33.7440 C.3   138  ARG138      0.0489
     57  CD        15.5510   -6.0130  -34.0140 C.3   138  ARG138      0.2205
     58  NE        15.8860   -5.3690  -35.2830 N.pl3 138  ARG138     -0.0865
     59  CZ        15.7990   -5.9260  -36.4930 C.cat 138  ARG138      0.5346
     60  NH1       16.1120   -5.2020  -37.5400 N.pl3 138  ARG138      0.1354
     61  NH2       15.3900   -7.1850  -36.6790 N.pl3 138  ARG138      0.1354
     62  N         22.0680    1.2390  -25.6990 N.3   161  LYS161     -0.1245
     63  CA        21.7010    1.5020  -27.0590 C.3   161  LYS161      0.1561
     64  C         20.1640    1.4560  -27.1240 C.2   161  LYS161      0.2260
     65  O         19.5150    0.3720  -26.9500 O.2   161  LYS161     -0.2867
     66  CB        22.3380    0.4840  -27.9990 C.3   161  LYS161      0.0271
     67  CG        21.7990    0.5660  -29.4160 C.3   161  LYS161      0.0035
     68  CD        22.3180   -0.5660  -30.3460 C.3   161  LYS161      0.0206
     69  CE        21.5500   -0.4430  -31.6550 C.3   161  LYS161      0.1093
     70  NZ        21.8820   -1.5210  -32.5970 N.3   161  LYS161     -0.1314
     71  N         16.8420    1.8170  -28.8190 N.3   163  ALA163     -0.1245
     72  CA        16.0820    1.7680  -30.0670 C.3   163  ALA163      0.1562
     73  C         14.6100    1.6020  -29.8180 C.2   163  ALA163      0.2260
     74  O         13.9520    1.0030  -30.6380 O.2   163  ALA163     -0.2867
     75  CB        16.5640    0.6080  -30.9580 C.3   163  ALA163      0.0290
     76  N         19.8380    4.0740  -31.0490 N.3   186  GLY186     -0.1210
     77  CA        19.7650    2.8500  -31.8040 C.3   186  GLY186      0.1956
     78  C         19.0180    3.0430  -33.1270 C.2   186  GLY186      0.2611
     79  O         18.7420    2.0600  -33.8250 O.2   186  GLY186     -0.2717
     80  N         18.6710    4.2970  -33.4760 N.am  187  ASN187     -0.1974
     81  CA        18.0050    4.6120  -34.7560 C.3   187  ASN187      0.1688
     82  C         18.6710    5.7950  -35.4090 C.2   187  ASN187      0.2292
     83  O         18.8850    6.8340  -34.7540 O.2   187  ASN187     -0.2864
     84  CB        16.4950    4.8390  -34.5980 C.3   187  ASN187      0.1181
     85  CG        15.7610    3.5500  -34.2240 C.2   187  ASN187      0.2629
     86  OD1       15.8140    2.5560  -34.9680 O.2   187  ASN187     -0.2716
     87  ND2       15.0970    3.5540  -33.0710 N.am  187  ASN187     -0.0877
     88  N         24.8440    3.7910  -32.6140 N.3   203  ILE203     -0.1245
     89  CA        25.2670    2.5060  -33.1710 C.3   203  ILE203      0.1561
     90  C         24.3780    2.3100  -34.4140 C.2   203  ILE203      0.2260
     91  O         23.1470    2.1450  -34.3080 O.2   203  ILE203     -0.2867
     92  CB        25.1860    1.3580  -32.1530 C.3   203  ILE203      0.0252
     93  CG1       26.2350    1.6010  -31.0280 C.3   203  ILE203      0.0019
     94  CG2       25.3730   -0.0500  -32.8790 C.3   203  ILE203      0.0019
     95  CD1       25.9180    0.9250  -29.6860 C.3   203  ILE203      0.0001
     96  N         23.2220    1.7110  -38.5900 N.3   205  VAL205     -0.1245
     97  CA        23.1040    0.9560  -39.8340 C.3   205  VAL205      0.1561
     98  C         23.5520    1.8050  -41.0180 C.2   205  VAL205      0.2260
     99  O         24.2310    1.3130  -41.9000 O.2   205  VAL205     -0.2867
    100  CB        21.6440    0.6200  -40.0610 C.3   205  VAL205      0.0252
    101  CG1       21.4630   -0.0510  -41.4020 C.3   205  VAL205      0.0019
    102  CG2       21.1940   -0.2560  -38.9010 C.3   205  VAL205      0.0019
    103  N         15.0410    1.2440  -43.9610 N.3   244  PHE244     -0.1241
    104  CA        14.1500    0.5030  -43.0600 C.3   244  PHE244      0.1605
    105  C         12.8150    0.0730  -43.7110 C.2   244  PHE244      0.2264
    106  O         11.9300   -0.4010  -43.0330 O.2   244  PHE244     -0.2867
    107  CB        14.0150    1.2060  -41.6930 C.3   244  PHE244      0.0534
    108  CG        15.2860    1.0920  -40.8900 C.ar  244  PHE244     -0.0203
    109  CD1       15.4680    0.0160  -39.9790 C.ar  244  PHE244     -0.0042
    110  CD2       16.3560    1.9780  -41.1390 C.ar  244  PHE244     -0.0042
    111  CE1       16.6930   -0.1500  -39.3000 C.ar  244  PHE244     -0.0003
    112  CE2       17.5790    1.8560  -40.4870 C.ar  244  PHE244     -0.0003
    113  CZ        17.7520    0.7750  -39.5490 C.ar  244  PHE244     -0.0000
    114  N         15.7020   -4.6690  -41.5650 N.3   248  ASN248     -0.1240
    115  CA        17.1520   -4.5160  -41.5630 C.3   248  ASN248      0.1653
    116  C         17.7870   -5.8370  -41.1240 C.2   248  ASN248      0.2266
    117  O         17.3010   -6.4650  -40.1950 O.2   248  ASN248     -0.2867
    118  CB        17.5180   -3.3980  -40.6100 C.3   248  ASN248      0.1155
    119  CG        18.9990   -3.2880  -40.3910 C.2   248  ASN248      0.2627
    120  OD1       19.4940   -3.6240  -39.3110 O.2   248  ASN248     -0.2716
    121  ND2       19.7300   -2.8400  -41.4130 N.am  248  ASN248     -0.0877
@<TRIPOS>BOND
     1   103   104    1
     2   105   104    1
     3   105   106    2
     4   104   107    1
     5    99    98    2
     6   107   108    1
     7   114   115    1
     8   115   116    1
     9   115   118    1
    10   121   119   am
    11   101   100    1
    12   110   108   ar
    13   110   112   ar
    14   116   117    2
    15    98    97    1
    16   108   109   ar
    17   118   119    1
    18   112   113   ar
    19    20    19    2
    20   119   120    2
    21    23    21    1
    22   100    97    1
    23   100   102    1
    24   109   111   ar
    25    97    96    1
    26   113   111   ar
    27    19    18    1
    28     4     3    2
    29    21    18    1
    30    21    22    1
    31    18    17    1
    32     3     2    1
    33    13    12    2
    34    60    59    1
    35    17    12   am
    36    12    11    1
    37     1     2    1
    38     2     5    1
    39    61    59    1
    40    59    58    2
    41     9     8    2
    42    16    14    1
    43    11    14    1
    44    11    10    1
    45    82    81    1
    46    82    83    2
    47    58    57    1
    48    14    15    1
    49    86    85    2
    50     8    10   am
    51     8     7    1
    52    81    84    1
    53    81    80    1
    54    84    85    1
    55    90    91    2
    56    90    89    1
    57     6     7    1
    58    85    87   am
    59    57    56    1
    60    79    78    2
    61    56    55    1
    62    80    78   am
    63    89    88    1
    64    89    92    1
    65    78    77    1
    66    94    92    1
    67    70    69    1
    68    55    52    1
    69    43    42    1
    70    92    93    1
    71    52    51    1
    72    52    53    1
    73    77    76    1
    74    69    68    1
    75    50    48    1
    76    54    53    2
    77    42    41   ar
    78    42    40   ar
    79    93    95    1
    80    75    72    1
    81    41    39   ar
    82    74    73    2
    83    68    67    1
    84    40    38   ar
    85    48    49    1
    86    48    45    1
    87    31    29    1
    88    72    73    1
    89    72    71    1
    90    47    46    2
    91    67    66    1
    92    39    37   ar
    93    45    46    1
    94    45    44    1
    95    38    37   ar
    96    29    28    1
    97    29    30    1
    98    37    36    1
    99    28    25    1
   100    66    63    1
   101    64    63    1
   102    64    65    2
   103    36    33    1
   104    63    62    1
   105    27    26    2
   106    25    24    1
   107    25    26    1
   108    33    34    1
   109    33    32    1
   110    34    35    2
