@<TRIPOS>MOLECULE
tmp/3irhB02.pdb
 238 231 0 0 0
SMALL
GASTEIGER

@<TRIPOS>ATOM
      1  N        -51.9360   26.9450   -2.9890 N.3    48  GLN48      -0.1231
      2  CA       -51.3990   27.7010   -1.8630 C.3    48  GLN48       0.1698
      3  C        -52.3220   27.6510   -0.6390 C.2    48  GLN48       0.2592
      4  O        -51.8470   27.5280    0.4910 O.2    48  GLN48      -0.2718
      5  CB       -51.1220   29.1440   -2.2700 C.3    48  GLN48       0.0381
      6  CG       -50.7700   30.0690   -1.1100 C.3    48  GLN48       0.0905
      7  CD       -49.3380   29.9340   -0.6820 C.2    48  GLN48       0.2608
      8  OE1      -48.5140   29.3800   -1.4060 O.2    48  GLN48      -0.2717
      9  NE2      -49.0250   30.4470    0.4950 N.am   48  GLN48      -0.0878
     10  N        -53.6340   27.6900   -0.8820 N.am   49  LEU49      -0.1966
     11  CA       -54.6210   27.8780    0.1900 C.3    49  LEU49       0.1728
     12  C        -55.5340   26.7060    0.4950 C.2    49  LEU49       0.2617
     13  O        -56.3710   26.7870    1.4120 O.2    49  LEU49      -0.2715
     14  CB       -55.4540   29.1420   -0.0460 C.3    49  LEU49       0.0311
     15  CG       -54.7520   30.4180    0.3940 C.3    49  LEU49       0.0022
     16  CD1      -55.5650   31.6550   -0.0160 C.3    49  LEU49       0.0001
     17  CD2      -54.4740   30.3700    1.8990 C.3    49  LEU49       0.0001
     18  N        -55.3710   25.6220   -0.2560 N.am   50  GLY50      -0.1940
     19  CA       -56.0470   24.3650    0.0570 C.3    50  GLY50       0.2014
     20  C        -57.5470   24.4670   -0.1180 C.2    50  GLY50       0.2640
     21  O        -58.0390   24.5370   -1.2460 O.2    50  GLY50      -0.2714
     22  N        -58.2690   24.5120    0.9980 N.am   51  THR51      -0.1936
     23  CA       -59.7360   24.5010    0.9730 C.3    51  THR51       0.2028
     24  C        -60.3910   25.8910    0.8870 C.2    51  THR51       0.2642
     25  O        -61.6210   25.9910    0.8220 O.2    51  THR51      -0.2714
     26  CB       -60.3220   23.7960    2.2160 C.3    51  THR51       0.1808
     27  OG1      -59.9430   24.5370    3.3720 O.3    51  THR51      -0.2208
     28  CG2      -59.8510   22.3190    2.3300 C.3    51  THR51       0.0379
     29  N        -59.5880   26.9530    0.8970 N.am   52  SER52      -0.1949
     30  CA       -60.1500   28.3160    0.8140 C.3    52  SER52       0.1924
     31  C        -60.9350   28.5450   -0.4870 C.2    52  SER52       0.2314
     32  O        -61.9610   29.2310   -0.4870 O.2    52  SER52      -0.2863
     33  CB       -59.0660   29.3770    0.9960 C.3    52  SER52       0.2116
     34  OG       -58.3760   29.1830    2.2280 O.3    52  SER52      -0.2180
     35  N        -48.5080   26.9440   -5.0640 N.3    63  ARG63      -0.1245
     36  CA       -47.3420   27.2490   -4.2510 C.3    63  ARG63       0.1563
     37  C        -46.1740   27.7020   -5.1120 C.2    63  ARG63       0.2260
     38  O        -45.3300   28.4640   -4.6470 O.2    63  ARG63      -0.2867
     39  CB       -46.9370   26.0500   -3.4010 C.3    63  ARG63       0.0307
     40  CG       -47.9850   25.7200   -2.3930 C.3    63  ARG63       0.0489
     41  CD       -47.3960   25.0980   -1.1680 C.3    63  ARG63       0.2205
     42  NE       -48.4390   24.7290   -0.2230 N.pl3  63  ARG63      -0.0865
     43  CZ       -48.8180   25.4860    0.8020 C.cat  63  ARG63       0.5346
     44  NH1      -48.2400   26.6620    1.0280 N.pl3  63  ARG63       0.1354
     45  NH2      -49.7800   25.0620    1.6040 N.pl3  63  ARG63       0.1354
     46  N        -46.3960   31.5180   -5.4910 N.3    66  HIS66      -0.1241
     47  CA       -45.9640   32.0900   -4.2250 C.3    66  HIS66       0.1621
     48  C        -44.4410   32.0590   -4.0350 C.2    66  HIS66       0.2264
     49  O        -43.8540   33.0720   -3.6720 O.2    66  HIS66      -0.2867
     50  CB       -46.6690   31.4390   -3.0400 C.3    66  HIS66       0.0745
     51  CG       -46.1010   31.8360   -1.7150 C.ar   66  HIS66       0.0817
     52  ND1      -46.0920   33.1420   -1.2650 N.ar   66  HIS66      -0.2268
     53  CD2      -45.5080   31.1020   -0.7480 C.ar   66  HIS66       0.1154
     54  CE1      -45.5310   33.1950   -0.0710 C.ar   66  HIS66       0.1986
     55  NE2      -45.1720   31.9690    0.2690 N.ar   66  HIS66      -0.2212
     56  N        -40.4770   27.0120    0.7400 N.3   111  ASP111     -0.1239
     57  CA       -41.7150   26.2230    0.8510 C.3   111  ASP111      0.1674
     58  C        -41.7050   24.9200    0.0890 C.2   111  ASP111      0.2266
     59  O        -42.7400   24.2800   -0.0410 O.2   111  ASP111     -0.2867
     60  CB       -42.9320   27.0400    0.3890 C.3   111  ASP111      0.1410
     61  CG       -43.5040   27.9010    1.4960 C.2   111  ASP111      0.3668
     62  OD1      -43.3170   27.5610    2.6960 O.co2 111  ASP111     -0.2456
     63  OD2      -44.1380   28.9350    1.1600 O.co2 111  ASP111     -0.2456
     64  N        -43.5140   21.6730    1.2820 N.3   114  HIS114     -0.1241
     65  CA       -44.9650   21.6250    1.4070 C.3   114  HIS114      0.1621
     66  C        -45.5540   20.5630    0.4960 C.2   114  HIS114      0.2264
     67  O        -45.2000   20.4910   -0.6720 O.2   114  HIS114     -0.2867
     68  CB       -45.5710   22.9740    1.0490 C.3   114  HIS114      0.0745
     69  CG       -45.8080   23.8600    2.2260 C.ar  114  HIS114      0.0817
     70  ND1      -45.0420   24.9770    2.4840 N.ar  114  HIS114     -0.2268
     71  CD2      -46.7330   23.7990    3.2140 C.ar  114  HIS114      0.1154
     72  CE1      -45.4880   25.5690    3.5780 C.ar  114  HIS114      0.1986
     73  NE2      -46.5070   24.8690    4.0450 N.ar  114  HIS114     -0.2212
     74  N        -52.5780   20.0090    0.6980 N.3   117  TYR117     -0.1227
     75  CA       -53.4170   20.2580    1.8850 C.3   117  TYR117      0.1736
     76  C        -52.6070   20.0940    3.1670 C.2   117  TYR117      0.2596
     77  O        -52.9020   19.2290    3.9900 O.2   117  TYR117     -0.2718
     78  CB       -54.6400   19.3300    1.8910 C.3   117  TYR117      0.0548
     79  CG       -55.5110   19.4590    0.6630 C.ar  117  TYR117     -0.0200
     80  CD1      -55.5230   18.4640   -0.3160 C.ar  117  TYR117     -0.0009
     81  CD2      -56.3150   20.5840    0.4720 C.ar  117  TYR117     -0.0009
     82  CE1      -56.3190   18.5840   -1.4550 C.ar  117  TYR117      0.0417
     83  CE2      -57.1130   20.7190   -0.6680 C.ar  117  TYR117      0.0417
     84  CZ       -57.1090   19.7150   -1.6240 C.ar  117  TYR117      0.1957
     85  OH       -57.8930   19.8480   -2.7500 O.3   117  TYR117     -0.2866
     86  N        -51.5910   20.9400    3.3220 N.am  118  SER118     -0.1938
     87  CA       -50.5510   20.7560    4.3360 C.3   118  SER118      0.2055
     88  C        -50.9980   20.5920    5.7900 C.2   118  SER118      0.2643
     89  O        -50.5350   19.6700    6.4560 O.2   118  SER118     -0.2714
     90  CB       -49.4630   21.8310    4.2040 C.3   118  SER118      0.2130
     91  OG       -48.3260   21.2930    3.5360 O.3   118  SER118     -0.2179
     92  N        -51.8930   21.4530    6.2780 N.am  119  HIS119     -0.1973
     93  CA       -52.3400   21.3860    7.6810 C.3   119  HIS119      0.1656
     94  C        -53.0080   20.0560    8.0090 C.2   119  HIS119      0.2291
     95  O        -52.7630   19.4640    9.0570 O.2   119  HIS119     -0.2864
     96  CB       -53.3220   22.5120    8.0110 C.3   119  HIS119      0.0771
     97  CG       -52.7170   23.8800    7.9670 C.ar  119  HIS119      0.0820
     98  ND1      -52.8300   24.7100    6.8710 N.ar  119  HIS119     -0.2267
     99  CD2      -51.9930   24.5660    8.8860 C.ar  119  HIS119      0.1154
    100  CE1      -52.1940   25.8430    7.1110 C.ar  119  HIS119      0.1986
    101  NE2      -51.6820   25.7830    8.3280 N.ar  119  HIS119     -0.2212
    102  N        -43.3440   19.7780    7.0430 N.3   129  HIS129     -0.1241
    103  CA       -42.8830   20.3870    5.7890 C.3   129  HIS129      0.1621
    104  C        -41.5850   21.1960    5.9100 C.2   129  HIS129      0.2264
    105  O        -40.8590   21.3580    4.9380 O.2   129  HIS129     -0.2867
    106  CB       -43.9930   21.2420    5.1610 C.3   129  HIS129      0.0745
    107  CG       -44.4160   22.3940    6.0110 C.ar  129  HIS129      0.0817
    108  ND1      -45.3020   22.2600    7.0590 N.ar  129  HIS129     -0.2268
    109  CD2      -44.0710   23.7020    5.9750 C.ar  129  HIS129      0.1154
    110  CE1      -45.4960   23.4390    7.6230 C.ar  129  HIS129      0.1986
    111  NE2      -44.7600   24.3320    6.9840 N.ar  129  HIS129     -0.2212
    112  N        -41.7980   36.5360    2.5930 N.3   183  ASP183     -0.1225
    113  CA       -42.7170   35.4000    2.6510 C.3   183  ASP183      0.1805
    114  C        -44.1440   35.8590    2.9240 C.2   183  ASP183      0.2597
    115  O        -45.0550   35.5800    2.1410 O.2   183  ASP183     -0.2718
    116  CB       -42.2480   34.4160    3.7420 C.3   183  ASP183      0.1424
    117  CG       -43.0640   33.1200    3.7790 C.2   183  ASP183      0.3668
    118  OD1      -43.8330   32.8390    2.8410 O.co2 183  ASP183     -0.2456
    119  OD2      -42.9260   32.3350    4.7390 O.co2 183  ASP183     -0.2456
    120  N        -44.3170   36.5730    4.0310 N.am  184  ARG184     -0.1979
    121  CA       -45.6150   37.0530    4.4730 C.3   184  ARG184      0.1597
    122  C        -46.1370   38.1420    3.5740 C.2   184  ARG184      0.2287
    123  O        -47.3280   38.2370    3.3710 O.2   184  ARG184     -0.2864
    124  CB       -45.5220   37.5870    5.8980 C.3   184  ARG184      0.0334
    125  CG       -45.1520   36.5230    6.8780 C.3   184  ARG184      0.0492
    126  CD       -45.0740   37.0530    8.2790 C.3   184  ARG184      0.2205
    127  NE       -45.0020   35.9220    9.1900 N.pl3 184  ARG184     -0.0865
    128  CZ       -45.2830   35.9740   10.4820 C.cat 184  ARG184      0.5346
    129  NH1      -45.6650   37.1130   11.0540 N.pl3 184  ARG184      0.1354
    130  NH2      -45.1830   34.8750   11.2030 N.pl3 184  ARG184      0.1354
    131  N        -47.5730   36.3400    0.3920 N.3   187  TYR187     -0.1241
    132  CA       -48.8200   35.6090    0.4860 C.3   187  TYR187      0.1605
    133  C        -49.9950   36.5140    0.8290 C.2   187  TYR187      0.2264
    134  O        -51.0840   36.3120    0.3200 O.2   187  TYR187     -0.2867
    135  CB       -48.7370   34.3130    1.3090 C.3   187  TYR187      0.0534
    136  CG       -48.5900   34.4060    2.8250 C.ar  187  TYR187     -0.0201
    137  CD1      -49.5710   35.0100    3.6250 C.ar  187  TYR187     -0.0009
    138  CD2      -47.5010   33.8080    3.4620 C.ar  187  TYR187     -0.0009
    139  CE1      -49.4270   35.0630    5.0200 C.ar  187  TYR187      0.0417
    140  CE2      -47.3590   33.8400    4.8380 C.ar  187  TYR187      0.0417
    141  CZ       -48.3190   34.4690    5.6110 C.ar  187  TYR187      0.1957
    142  OH       -48.1580   34.4930    6.9800 O.3   187  TYR187     -0.2866
    143  N        -52.6660   36.2790   -1.9070 N.3   191  ASP191     -0.1239
    144  CA       -53.9630   35.7840   -1.4450 C.3   191  ASP191      0.1674
    145  C        -55.0630   36.8510   -1.6130 C.2   191  ASP191      0.2266
    146  O        -56.1720   36.5250   -2.0490 O.2   191  ASP191     -0.2867
    147  CB       -53.8850   35.2500   -0.0160 C.3   191  ASP191      0.1410
    148  CG       -52.8530   34.1240    0.1400 C.2   191  ASP191      0.3668
    149  OD1      -52.4090   33.5590   -0.8860 O.co2 191  ASP191     -0.2456
    150  OD2      -52.4800   33.8050    1.2940 O.co2 191  ASP191     -0.2456
    151  N        -52.6330   42.3080    7.3870 N.3   235  ARG235     -0.1245
    152  CA       -52.4460   40.9440    7.8580 C.3   235  ARG235      0.1563
    153  C        -53.6290   40.5420    8.7430 C.2   235  ARG235      0.2260
    154  O        -54.1580   39.4390    8.6130 O.2   235  ARG235     -0.2867
    155  CB       -51.1100   40.8050    8.5950 C.3   235  ARG235      0.0307
    156  CG       -50.7290   39.3740    8.9500 C.3   235  ARG235      0.0489
    157  CD       -49.3090   39.2760    9.5080 C.3   235  ARG235      0.2205
    158  NE       -49.0780   38.0170   10.2200 N.pl3 235  ARG235     -0.0865
    159  CZ       -48.8100   36.8510    9.6300 C.cat 235  ARG235      0.5346
    160  NH1      -48.7370   36.7560    8.3100 N.pl3 235  ARG235      0.1354
    161  NH2      -48.6170   35.7680   10.3700 N.pl3 235  ARG235      0.1354
    162  N        -56.4280   37.6220    8.0750 N.3   239  TYR239     -0.1241
    163  CA       -56.6400   36.5310    9.0300 C.3   239  TYR239      0.1605
    164  C        -58.0980   36.3840    9.4090 C.2   239  TYR239      0.2264
    165  O        -58.6430   35.2720    9.3660 O.2   239  TYR239     -0.2867
    166  CB       -55.7020   36.6020   10.2430 C.3   239  TYR239      0.0534
    167  CG       -54.3710   35.9560    9.9240 C.ar  239  TYR239     -0.0201
    168  CD1      -54.1010   34.6410   10.2830 C.ar  239  TYR239     -0.0009
    169  CD2      -53.4100   36.6410    9.1970 C.ar  239  TYR239     -0.0009
    170  CE1      -52.8750   34.0420    9.9550 C.ar  239  TYR239      0.0417
    171  CE2      -52.2030   36.0600    8.8610 C.ar  239  TYR239      0.0417
    172  CZ       -51.9330   34.7650    9.2440 C.ar  239  TYR239      0.1957
    173  OH       -50.7130   34.2130    8.8900 O.3   239  TYR239     -0.2866
    174  N        -60.3310   35.9070    5.6420 N.3   242  VAL242     -0.1231
    175  CA       -60.0240   34.7950    4.7410 C.3   242  VAL242      0.1692
    176  C        -59.5530   33.5440    5.4810 C.2   242  VAL242      0.2592
    177  O        -60.2330   32.5160    5.4590 O.2   242  VAL242     -0.2718
    178  CB       -59.0190   35.2050    3.6300 C.3   242  VAL242      0.0266
    179  CG1      -58.5840   33.9910    2.8090 C.3   242  VAL242      0.0020
    180  CG2      -59.6380   36.2640    2.7280 C.3   242  VAL242      0.0020
    181  N        -58.3960   33.6360    6.1320 N.am  243  TYR243     -0.1976
    182  CA       -57.7480   32.4510    6.7100 C.3   243  TYR243      0.1639
    183  C        -58.5960   31.7200    7.7610 C.2   243  TYR243      0.2290
    184  O        -58.5530   30.5000    7.8350 O.2   243  TYR243     -0.2864
    185  CB       -56.3550   32.7960    7.2600 C.3   243  TYR243      0.0560
    186  CG       -55.4580   33.4700    6.2400 C.ar  243  TYR243     -0.0198
    187  CD1      -54.6430   34.5460    6.6020 C.ar  243  TYR243     -0.0009
    188  CD2      -55.4430   33.0430    4.9030 C.ar  243  TYR243     -0.0009
    189  CE1      -53.8110   35.1720    5.6700 C.ar  243  TYR243      0.0417
    190  CE2      -54.6200   33.6660    3.9480 C.ar  243  TYR243      0.0417
    191  CZ       -53.8040   34.7310    4.3360 C.ar  243  TYR243      0.1957
    192  OH       -52.9990   35.3410    3.3980 O.3   243  TYR243     -0.2866
    193  N        -64.4130   27.4210    4.8360 N.3   248  SER248     -0.1202
    194  CA       -63.2110   26.7180    4.3880 C.3   248  SER248      0.2020
    195  C        -62.7720   25.7080    5.4470 C.2   248  SER248      0.2618
    196  O        -62.3760   24.5780    5.1200 O.2   248  SER248     -0.2717
    197  CB       -62.0970   27.7160    4.0900 C.3   248  SER248      0.2103
    198  OG       -62.5850   28.7470    3.2510 O.3   248  SER248     -0.2182
    199  N        -62.8670   26.1100    6.7150 N.am  249  ARG249     -0.1979
    200  CA       -62.6010   25.2020    7.8260 C.3   249  ARG249      0.1597
    201  C        -63.5980   24.0470    7.8430 C.2   249  ARG249      0.2287
    202  O        -63.2240   22.9200    8.1380 O.2   249  ARG249     -0.2864
    203  CB       -62.6210   25.9420    9.1610 C.3   249  ARG249      0.0334
    204  CG       -61.5260   26.9850    9.3290 C.3   249  ARG249      0.0492
    205  CD       -61.4240   27.3570   10.8020 C.3   249  ARG249      0.2205
    206  NE       -62.1580   28.5700   11.1180 N.pl3 249  ARG249     -0.0865
    207  CZ       -62.8000   28.8120   12.2600 C.cat 249  ARG249      0.5346
    208  NH1      -62.8480   27.9050   13.2240 N.pl3 249  ARG249      0.1354
    209  NH2      -63.4170   29.9760   12.4260 N.pl3 249  ARG249      0.1354
    210  N        -62.2490   21.6620    5.5560 N.3   252  GLU252     -0.1245
    211  CA       -61.0060   21.1410    6.1150 C.3   252  GLU252      0.1567
    212  C        -61.2970   19.9700    7.0780 C.2   252  GLU252      0.2260
    213  O        -60.5890   18.9580    7.0900 O.2   252  GLU252     -0.2867
    214  CB       -60.2700   22.2890    6.8220 C.3   252  GLU252      0.0388
    215  CG       -58.7640   22.1810    6.8520 C.3   252  GLU252      0.1160
    216  CD       -58.0690   23.3910    7.5170 C.2   252  GLU252      0.3649
    217  OE1      -57.0000   23.1740    8.1400 O.co2 252  GLU252     -0.2457
    218  OE2      -58.5620   24.5520    7.4140 O.co2 252  GLU252     -0.2457
    219  N        -57.4490   27.2870   11.2490 N.3   368  TYR368     -0.1227
    220  CA       -56.9660   26.4660   10.1360 C.3   368  TYR368      0.1736
    221  C        -55.8870   25.4940   10.6470 C.2   368  TYR368      0.2595
    222  O        -55.6180   24.4700   10.0180 O.2   368  TYR368     -0.2718
    223  CB       -56.4150   27.3560    9.0020 C.3   368  TYR368      0.0548
    224  CG       -55.3340   28.3200    9.4620 C.ar  368  TYR368     -0.0200
    225  CD1      -55.6670   29.5380   10.0520 C.ar  368  TYR368     -0.0009
    226  CD2      -53.9840   28.0000    9.3350 C.ar  368  TYR368     -0.0009
    227  CE1      -54.6890   30.4160   10.4990 C.ar  368  TYR368      0.0417
    228  CE2      -52.9980   28.8700    9.7830 C.ar  368  TYR368      0.0417
    229  CZ       -53.3580   30.0800   10.3640 C.ar  368  TYR368      0.1957
    230  OH       -52.3970   30.9600   10.8130 O.3   368  TYR368     -0.2866
    231  N        -55.2630   25.8420   11.7770 N.am  369  ASP369     -0.1974
    232  CA       -54.3650   24.9440   12.5090 C.3   369  ASP369      0.1709
    233  C        -55.2000   23.9310   13.2820 C.2   369  ASP369      0.2293
    234  O        -55.9920   24.3140   14.1540 O.2   369  ASP369     -0.2864
    235  CB       -53.5030   25.7230   13.5160 C.3   369  ASP369      0.1436
    236  CG       -52.4270   26.5710   12.8560 C.2   369  ASP369      0.3671
    237  OD1      -51.7530   26.0910   11.9210 O.co2 369  ASP369     -0.2456
    238  OD2      -52.2330   27.7220   13.3000 O.co2 369  ASP369     -0.2456
@<TRIPOS>BOND
     1    46    47    1
     2    37    38    2
     3    37    36    1
     4    35    36    1
     5    36    39    1
     6    47    48    1
     7    47    50    1
     8    48    49    2
     9    39    40    1
    10    50    51    1
    11     1     2    1
    12    85    84    1
    13    40    41    1
    14     5     2    1
    15     5     6    1
    16   146   145    2
    17   143   144    1
    18     2     3    1
    19    51    52   ar
    20    51    53   ar
    21    84    82   ar
    22    84    83   ar
    23   145   144    1
    24    82    80   ar
    25   144   147    1
    26     8     7    2
    27    52    54   ar
    28    21    20    2
    29    41    42    1
    30     6     7    1
    31   149   148   ar
    32    10     3   am
    33    10    11    1
    34    53    55   ar
    35     7     9   am
    36    67    66    2
    37    83    81   ar
    38     3     4    2
    39    31    32    2
    40    31    30    1
    41    80    79   ar
    42    18    19    1
    43    18    12   am
    44    42    43    2
    45    20    19    1
    46    20    22   am
    47    54    55   ar
    48    14    11    1
    49    14    15    1
    50    59    58    2
    51    16    15    1
    52   147   148    1
    53    58    57    1
    54   148   150   ar
    55    11    12    1
    56   134   133    2
    57    60    57    1
    58    60    61    1
    59   131   132    1
    60    15    17    1
    61    81    79   ar
    62   132   133    1
    63   132   135    1
    64    12    13    2
    65    66    65    1
    66    79    78    1
    67    74    75    1
    68    56    57    1
    69    43    44    1
    70    43    45    1
    71    30    29    1
    72    30    33    1
    73    25    24    2
    74    24    29   am
    75    24    23    1
    76    23    22    1
    77    23    26    1
    78    33    34    1
    79    68    65    1
    80    68    69    1
    81    63    61   ar
    82    64    65    1
    83   135   136    1
    84    61    62   ar
    85    75    78    1
    86    75    76    1
    87   115   114    2
    88    26    28    1
    89    26    27    1
    90    69    70   ar
    91    69    71   ar
    92    70    72   ar
    93   112   113    1
    94   113   114    1
    95   113   116    1
    96   180   178    1
    97   179   178    1
    98   136   138   ar
    99   136   137   ar
   100   118   117   ar
   101   114   120   am
   102    76    86   am
   103    76    77    2
   104    71    73   ar
   105   198   197    1
   106    86    87    1
   107   123   122    2
   108   192   191    1
   109   138   140   ar
   110    91    90    1
   111   122   121    1
   112    72    73   ar
   113   137   139   ar
   114   178   175    1
   115   116   117    1
   116   117   119   ar
   117   190   191   ar
   118   190   188   ar
   119   120   121    1
   120   197   194    1
   121    90    87    1
   122    87    88    1
   123   191   189   ar
   124   194   193    1
   125   194   195    1
   126   121   124    1
   127   175   176    1
   128   175   174    1
   129   140   141   ar
   130   188   186   ar
   131   105   104    2
   132   139   141   ar
   133   196   195    2
   134   106   103    1
   135   106   107    1
   136   195   199   am
   137   177   176    2
   138   176   181   am
   139   210   211    1
   140   141   142    1
   141   189   187   ar
   142   103   104    1
   143   103   102    1
   144    88    92   am
   145    88    89    2
   146   124   125    1
   147   109   107   ar
   148   109   111   ar
   149   107   108   ar
   150   211   214    1
   151   211   212    1
   152   181   182    1
   153   186   187   ar
   154   186   185    1
   155    92    93    1
   156   182   185    1
   157   182   183    1
   158   199   200    1
   159   214   215    1
   160   215   216    1
   161    98   100   ar
   162    98    97   ar
   163   125   126    1
   164   111   110   ar
   165   108   110   ar
   166   212   213    2
   167   100   101   ar
   168   151   152    1
   169   218   216   ar
   170   216   217   ar
   171    93    94    1
   172    93    96    1
   173   183   184    2
   174   200   201    1
   175   200   203    1
   176   201   202    2
   177   152   155    1
   178   152   153    1
   179    97    96    1
   180    97    99   ar
   181    94    95    2
   182   162   163    1
   183   126   127    1
   184   160   159    1
   185   101    99   ar
   186   155   156    1
   187   154   153    2
   188   171   169   ar
   189   171   172   ar
   190   173   172    1
   191   156   157    1
   192   223   224    1
   193   223   220    1
   194   163   164    1
   195   163   166    1
   196   203   204    1
   197   127   128    2
   198   169   167   ar
   199   172   170   ar
   200   204   205    1
   201   226   224   ar
   202   226   228   ar
   203   165   164    2
   204   224   225   ar
   205   157   158    1
   206   159   158    2
   207   159   161    1
   208   228   229   ar
   209   167   166    1
   210   167   168   ar
   211   170   168   ar
   212   222   221    2
   213   225   227   ar
   214   220   221    1
   215   220   219    1
   216   229   227   ar
   217   229   230    1
   218   128   129    1
   219   128   130    1
   220   221   231   am
   221   205   206    1
   222   206   207    2
   223   231   232    1
   224   237   236   ar
   225   207   209    1
   226   207   208    1
   227   232   233    1
   228   232   235    1
   229   236   238   ar
   230   236   235    1
   231   233   234    2
