@<TRIPOS>MOLECULE
tmp/3irmA00.pdb
 139 133 0 0 0
SMALL
GASTEIGER

@<TRIPOS>ATOM
      1  N         37.5040   -0.8050   32.5960 N.3    26  VAL26      -0.1231
      2  CA        38.5240   -1.7960   32.2700 C.3    26  VAL26       0.1692
      3  C         39.0450   -2.3760   33.5810 C.2    26  VAL26       0.2592
      4  O         39.3890   -1.6410   34.5090 O.2    26  VAL26      -0.2718
      5  CB        39.6610   -1.1870   31.4240 C.3    26  VAL26       0.0266
      6  CG1       40.1730    0.0880   32.0600 C.3    26  VAL26       0.0020
      7  CG2       40.7740   -2.2050   31.2560 C.3    26  VAL26       0.0020
      8  N         39.0820   -3.7040   33.6550 N.am   27  VAL27      -0.1966
      9  CA        39.4870   -4.3780   34.8820 C.3    27  VAL27       0.1727
     10  C         40.1310   -5.7260   34.6070 C.2    27  VAL27       0.2616
     11  O         39.9490   -6.2990   33.5320 O.2    27  VAL27      -0.2715
     12  CB        38.2400   -4.6010   35.7930 C.3    27  VAL27       0.0290
     13  CG1       37.2020   -5.4600   35.0540 C.3    27  VAL27       0.0023
     14  CG2       38.6330   -5.2670   37.0940 C.3    27  VAL27       0.0023
     15  N         40.9070   -6.2100   35.5780 N.am   28  ALA28      -0.1977
     16  CA        41.5360   -7.5200   35.4830 C.3    28  ALA28       0.1597
     17  C         41.0940   -8.3050   36.7150 C.2    28  ALA28       0.2287
     18  O         41.1520   -7.7990   37.8350 O.2    28  ALA28      -0.2864
     19  CB        43.0560   -7.3980   35.4520 C.3    28  ALA28       0.0319
     20  N         47.9060   -6.1230   43.9350 N.3    41  ILE41      -0.1245
     21  CA        47.6410   -6.9690   42.7680 C.3    41  ILE41       0.1561
     22  C         48.8470   -7.8630   42.4510 C.2    41  ILE41       0.2260
     23  O         49.6860   -7.5180   41.6170 O.2    41  ILE41      -0.2867
     24  CB        47.3250   -6.1190   41.5130 C.3    41  ILE41       0.0252
     25  CG1       46.1600   -5.1690   41.7980 C.3    41  ILE41       0.0019
     26  CG2       46.9780   -7.0270   40.3440 C.3    41  ILE41       0.0019
     27  CD1       45.8230   -4.2500   40.6440 C.3    41  ILE41       0.0001
     28  N         49.5210  -10.0710   40.5390 N.3    43  TRP43      -0.1241
     29  CA        49.7160  -10.5520   39.1730 C.3    43  TRP43       0.1605
     30  C         49.9650   -9.4330   38.1610 C.2    43  TRP43       0.2264
     31  O         49.0960   -8.6000   37.9000 O.2    43  TRP43      -0.2867
     32  CB        48.5310  -11.4100   38.6980 C.3    43  TRP43       0.0550
     33  CG        47.3240  -11.4340   39.5940 C.ar   43  TRP43       0.0003
     34  CD1       47.1920  -12.0990   40.7810 C.ar   43  TRP43       0.0946
     35  CD2       46.0630  -10.7950   39.3510 C.ar   43  TRP43       0.0152
     36  NE1       45.9270  -11.9170   41.2880 N.ar   43  TRP43      -0.2442
     37  CE2       45.2140  -11.1210   40.4310 C.ar   43  TRP43       0.0810
     38  CE3       45.5700   -9.9800   38.3230 C.ar   43  TRP43       0.0012
     39  CZ2       43.8940  -10.6590   40.5150 C.ar   43  TRP43       0.0191
     40  CZ3       44.2570   -9.5200   38.4060 C.ar   43  TRP43       0.0001
     41  CH2       43.4350   -9.8630   39.4960 C.ar   43  TRP43       0.0015
     42  N         48.4040   -7.8720   29.5860 N.3    48  ASP48      -0.1225
     43  CA        47.2330   -7.1610   30.0830 C.3    48  ASP48       0.1805
     44  C         47.5930   -5.6950   30.3020 C.2    48  ASP48       0.2597
     45  O         46.8040   -4.7990   30.0050 O.2    48  ASP48      -0.2718
     46  CB        46.7540   -7.7630   31.4060 C.3    48  ASP48       0.1424
     47  CG        45.6910   -6.9060   32.0830 C.2    48  ASP48       0.3668
     48  OD1       44.5630   -6.8090   31.5500 O.co2  48  ASP48      -0.2456
     49  OD2       45.9900   -6.3220   33.1430 O.co2  48  ASP48      -0.2456
     50  N         48.7940   -5.4570   30.8220 N.am   49  MET49      -0.1979
     51  CA        49.2500   -4.0970   31.0880 C.3    49  MET49       0.1605
     52  C         49.3150   -3.2950   29.8010 C.2    49  MET49       0.2287
     53  O         48.9490   -2.1220   29.7750 O.2    49  MET49      -0.2864
     54  CB        50.6290   -4.1080   31.7490 C.3    49  MET49       0.0413
     55  CG        50.7400   -3.1430   32.9110 C.3    49  MET49       0.0598
     56  SD        49.9330   -3.7870   34.3950 S.3    49  MET49      -0.1393
     57  CE        51.2480   -3.5650   35.6110 C.3    49  MET49       0.0692
     58  N         47.5830   -3.9360   26.9430 N.3    51  PHE51      -0.1227
     59  CA        46.2150   -3.7420   26.4710 C.3    51  PHE51       0.1736
     60  C         45.6150   -2.5190   27.1530 C.2    51  PHE51       0.2595
     61  O         45.0920   -1.6230   26.4960 O.2    51  PHE51      -0.2718
     62  CB        45.3530   -4.9660   26.8000 C.3    51  PHE51       0.0547
     63  CG        43.8870   -4.7750   26.4960 C.ar   51  PHE51      -0.0202
     64  CD1       43.4240   -4.8160   25.1880 C.ar   51  PHE51      -0.0042
     65  CD2       42.9740   -4.5490   27.5230 C.ar   51  PHE51      -0.0042
     66  CE1       42.0740   -4.6380   24.9020 C.ar   51  PHE51      -0.0003
     67  CE2       41.6170   -4.3690   27.2480 C.ar   51  PHE51      -0.0003
     68  CZ        41.1670   -4.4150   25.9400 C.ar   51  PHE51      -0.0000
     69  N         45.6820   -2.5000   28.4810 N.am   52  PHE52      -0.1976
     70  CA        45.1550   -1.3810   29.2470 C.3    52  PHE52       0.1639
     71  C         45.7390   -0.0700   28.7490 C.2    52  PHE52       0.2290
     72  O         45.0190    0.9050   28.5060 O.2    52  PHE52      -0.2864
     73  CB        45.4840   -1.5420   30.7300 C.3    52  PHE52       0.0560
     74  CG        45.1730   -0.3250   31.5390 C.ar   52  PHE52      -0.0200
     75  CD1       46.1250    0.6780   31.7110 C.ar   52  PHE52      -0.0042
     76  CD2       43.9060   -0.1480   32.0890 C.ar   52  PHE52      -0.0042
     77  CE1       45.8100    1.8460   32.4200 C.ar   52  PHE52      -0.0003
     78  CE2       43.5910    1.0090   32.7950 C.ar   52  PHE52      -0.0003
     79  CZ        44.5430    2.0040   32.9590 C.ar   52  PHE52      -0.0000
     80  N         44.1710    3.5300   44.3430 N.3    80  THR80      -0.1218
     81  CA        44.7010    3.0670   43.0580 C.3    80  THR80       0.1862
     82  C         45.7730    4.0520   42.5720 C.2    80  THR80       0.2287
     83  O         46.8260    3.6540   42.0600 O.2    80  THR80      -0.2866
     84  CB        43.5690    2.9450   42.0050 C.3    80  THR80       0.1770
     85  OG1       42.7280    1.8350   42.3450 O.3    80  THR80      -0.2211
     86  CG2       44.1330    2.7340   40.6120 C.3    80  THR80       0.0375
     87  N         48.8770    3.4390   44.3210 N.3    83  SER83      -0.1202
     88  CA        49.5550    2.2150   43.9190 C.3    83  SER83       0.2020
     89  C         50.4740    2.4660   42.7270 C.2    83  SER83       0.2618
     90  O         51.3040    1.6240   42.3890 O.2    83  SER83      -0.2717
     91  CB        48.5380    1.1200   43.5770 C.3    83  SER83       0.2103
     92  OG        47.8750    1.3840   42.3520 O.3    83  SER83      -0.2182
     93  N         50.3270    3.6220   42.0870 N.am   84  ILE84      -0.1979
     94  CA        51.1740    3.9570   40.9460 C.3    84  ILE84       0.1595
     95  C         52.4830    4.5420   41.4500 C.2    84  ILE84       0.2287
     96  O         52.4860    5.4810   42.2430 O.2    84  ILE84      -0.2864
     97  CB        50.5240    5.0090   40.0250 C.3    84  ILE84       0.0276
     98  CG1       49.2140    4.4670   39.4480 C.3    84  ILE84       0.0022
     99  CG2       51.4930    5.3780   38.8960 C.3    84  ILE84       0.0022
    100  CD1       48.4640    5.4650   38.5790 C.3    84  ILE84       0.0001
    101  N         49.5350    8.7670   34.7210 N.3    91  LEU91      -0.1245
    102  CA        49.5860    7.9140   33.5360 C.3    91  LEU91       0.1561
    103  C         49.5830    8.9050   32.3670 C.2    91  LEU91       0.2260
    104  O         48.6750    9.7220   32.2380 O.2    91  LEU91      -0.2867
    105  CB        48.3600    6.9920   33.4920 C.3    91  LEU91       0.0270
    106  CG        48.1510    6.1370   34.7490 C.3    91  LEU91       0.0019
    107  CD1       46.9190    5.2540   34.5870 C.3    91  LEU91       0.0001
    108  CD2       49.3900    5.2790   34.9980 C.3    91  LEU91       0.0001
    109  N         39.0550    2.9970   35.8320 N.3   154  ILE154     -0.1231
    110  CA        40.1360    2.0200   35.8600 C.3   154  ILE154      0.1692
    111  C         40.4530    1.2880   37.1470 C.2   154  ILE154      0.2592
    112  O         41.4850    0.6180   37.2370 O.2   154  ILE154     -0.2718
    113  CB        41.4610    2.6360   35.3860 C.3   154  ILE154      0.0266
    114  CG1       42.0050    3.5910   36.4520 C.3   154  ILE154      0.0019
    115  CG2       41.2600    3.3520   34.0560 C.3   154  ILE154      0.0020
    116  CD1       43.4000    4.0890   36.1440 C.3   154  ILE154      0.0001
    117  N         39.6210    1.4000   38.1650 N.am  155  GLY155     -0.1957
    118  CA        40.0060    0.6430   39.3230 C.3   155  GLY155      0.1869
    119  C         39.6510    1.1150   40.6980 C.2   155  GLY155      0.2309
    120  O         39.5700    2.3120   41.0030 O.2   155  GLY155     -0.2863
    121  N         34.4010    0.2980   41.0650 N.3   160  TYR160     -0.1241
    122  CA        33.7330   -0.6560   40.1920 C.3   160  TYR160      0.1605
    123  C         32.3090   -0.8850   40.6610 C.2   160  TYR160      0.2264
    124  O         31.3790   -0.9140   39.8570 O.2   160  TYR160     -0.2867
    125  CB        34.4710   -2.0010   40.1680 C.3   160  TYR160      0.0534
    126  CG        35.7800   -1.9670   39.4210 C.ar  160  TYR160     -0.0201
    127  CD1       35.8640   -1.3670   38.1590 C.ar  160  TYR160     -0.0009
    128  CD2       36.9300   -2.5480   39.9590 C.ar  160  TYR160     -0.0009
    129  CE1       37.0580   -1.3450   37.4510 C.ar  160  TYR160      0.0417
    130  CE2       38.1320   -2.5340   39.2560 C.ar  160  TYR160      0.0417
    131  CZ        38.1840   -1.9320   38.0020 C.ar  160  TYR160      0.1957
    132  OH        39.3510   -1.9400   37.2800 O.3   160  TYR160     -0.2866
    133  N         39.6470   -8.5520   31.7100 N.3   178  THR178     -0.1218
    134  CA        40.7390   -9.4740   31.4510 C.3   178  THR178      0.1862
    135  C         40.6800  -10.5040   32.5720 C.2   178  THR178      0.2287
    136  O         40.6790  -10.1480   33.7490 O.2   178  THR178     -0.2866
    137  CB        42.1110   -8.7650   31.5060 C.3   178  THR178      0.1770
    138  OG1       42.1820   -7.7730   30.4780 O.3   178  THR178     -0.2211
    139  CG2       43.2390   -9.7690   31.3200 C.3   178  THR178      0.0375
@<TRIPOS>BOND
     1    66    64   ar
     2    66    68   ar
     3    64    63   ar
     4    68    67   ar
     5    59    62    1
     6    59    58    1
     7    59    60    1
     8    63    62    1
     9    63    65   ar
    10    61    60    2
    11    60    69   am
    12    67    65   ar
    13    69    70    1
    14    72    71    2
    15    71    70    1
    16    70    73    1
    17    42    43    1
    18    53    52    2
    19    52    51    1
    20    45    44    2
    21    43    44    1
    22    43    46    1
    23    44    50   am
    24   138   137    1
    25    73    74    1
    26    50    51    1
    27    51    54    1
    28     7     5    1
    29   139   137    1
    30    46    47    1
    31     5     6    1
    32     5     2    1
    33   134   137    1
    34   134   133    1
    35   134   135    1
    36    74    75   ar
    37    74    76   ar
    38    48    47   ar
    39    75    77   ar
    40    54    55    1
    41    47    49   ar
    42    76    78   ar
    43   104   103    2
    44     2     1    1
    45     2     3    1
    46   103   102    1
    47    77    79   ar
    48   135   136    2
    49    78    79   ar
    50    55    56    1
    51   105   102    1
    52   105   106    1
    53    11    10    2
    54   102   101    1
    55     3     8   am
    56     3     4    2
    57     8     9    1
    58   115   113    1
    59    56    57    1
    60   107   106    1
    61    10     9    1
    62    10    15   am
    63   106   108    1
    64     9    12    1
    65    13    12    1
    66   113   110    1
    67   113   114    1
    68    19    16    1
    69    16    15    1
    70    16    17    1
    71    12    14    1
    72   109   110    1
    73   110   111    1
    74   116   114    1
    75    17    18    2
    76   111   112    2
    77   111   117   am
    78   132   131    1
    79   129   131   ar
    80   129   127   ar
    81    31    30    2
    82   131   130   ar
    83   127   126   ar
    84    30    29    1
    85   117   118    1
    86    38    40   ar
    87    38    35   ar
    88    40    41   ar
    89   100    98    1
    90    32    29    1
    91    32    33    1
    92    99    97    1
    93    29    28    1
    94   130   128   ar
    95   118   119    1
    96    35    33   ar
    97    35    37   ar
    98   126   128   ar
    99   126   125    1
   100    98    97    1
   101    41    39   ar
   102    33    34   ar
   103   124   123    2
   104    97    94    1
   105   125   122    1
   106   122   123    1
   107   122   121    1
   108    26    24    1
   109    37    39   ar
   110    37    36   ar
   111    86    84    1
   112    27    25    1
   113   119   120    2
   114    34    36   ar
   115    94    95    1
   116    94    93    1
   117    95    96    2
   118    24    25    1
   119    24    21    1
   120    23    22    2
   121    84    85    1
   122    84    81    1
   123    83    82    2
   124    93    89   am
   125    92    91    1
   126    90    89    2
   127    22    21    1
   128    82    81    1
   129    89    88    1
   130    21    20    1
   131    81    80    1
   132    91    88    1
   133    88    87    1
