@<TRIPOS>MOLECULE
tmp/3iroD00.pdb
 166 160 0 0 0
SMALL
GASTEIGER

@<TRIPOS>ATOM
      1  N          2.6240    5.2060   50.3580 N.3    24  VAL24      -0.1231
      2  CA         1.3040    5.8520   50.3300 C.3    24  VAL24       0.1692
      3  C          1.5070    7.3250   50.0010 C.2    24  VAL24       0.2592
      4  O          2.3910    7.9750   50.5630 O.2    24  VAL24      -0.2718
      5  CB         0.5740    5.7780   51.6850 C.3    24  VAL24       0.0266
      6  CG1       -0.8580    6.1970   51.5100 C.3    24  VAL24       0.0020
      7  CG2        0.6260    4.3740   52.2460 C.3    24  VAL24       0.0020
      8  N          0.6830    7.8670   49.1110 N.am   25  VAL25      -0.1966
      9  CA         0.8650    9.2520   48.7140 C.3    25  VAL25       0.1727
     10  C         -0.3630    9.8890   48.0570 C.2    25  VAL25       0.2616
     11  O         -1.1990    9.2010   47.4760 O.2    25  VAL25      -0.2715
     12  CB         2.0510    9.3510   47.7350 C.3    25  VAL25       0.0290
     13  CG1        1.6810    8.6830   46.4330 C.3    25  VAL25       0.0023
     14  CG2        2.4370   10.7990   47.4960 C.3    25  VAL25       0.0023
     15  N         -0.4520   11.2150   48.1620 N.am   26  ALA26      -0.1977
     16  CA        -1.5370   11.9850   47.5730 C.3    26  ALA26       0.1597
     17  C         -0.9070   13.0520   46.6990 C.2    26  ALA26       0.2287
     18  O          0.0550   13.6970   47.0960 O.2    26  ALA26      -0.2864
     19  CB        -2.3770   12.6320   48.6460 C.3    26  ALA26       0.0319
     20  N         -0.1110   20.4300   52.9500 N.3    39  ILE39      -0.1245
     21  CA        -0.8840   19.7700   51.9060 C.3    39  ILE39       0.1561
     22  C         -2.1600   20.6140   51.8490 C.2    39  ILE39       0.2260
     23  O         -3.2110   20.1790   52.3190 O.2    39  ILE39      -0.2867
     24  CB        -1.2700   18.3300   52.3230 C.3    39  ILE39       0.0252
     25  CG1       -0.0280   17.5570   52.7680 C.3    39  ILE39       0.0019
     26  CG2       -1.9530   17.6210   51.1700 C.3    39  ILE39       0.0019
     27  CD1       -0.3410   16.1970   53.3620 C.3    39  ILE39       0.0001
     28  N         -9.7080   10.5600   51.9190 N.3    46  ASP46      -0.1225
     29  CA        -8.3250   10.1020   51.7490 C.3    46  ASP46       0.1805
     30  C         -7.5910   10.0530   53.0850 C.2    46  ASP46       0.2597
     31  O         -6.7760    9.1620   53.3240 O.2    46  ASP46      -0.2718
     32  CB        -7.5540   11.0130   50.7890 C.3    46  ASP46       0.1424
     33  CG        -6.1480   10.5020   50.5070 C.2    46  ASP46       0.3668
     34  OD1       -6.0000    9.4780   49.8090 O.co2  46  ASP46      -0.2456
     35  OD2       -5.1890   11.1190   50.9930 O.co2  46  ASP46      -0.2456
     36  N         -7.8690   11.0220   53.9460 N.am   47  MET47      -0.1979
     37  CA        -7.2590   11.0450   55.2580 C.3    47  MET47       0.1605
     38  C         -7.6000    9.6970   55.9170 C.2    47  MET47       0.2287
     39  O         -6.7100    8.9680   56.3640 O.2    47  MET47      -0.2864
     40  CB        -7.8390   12.1900   56.0790 C.3    47  MET47       0.0413
     41  CG        -6.8410   12.8750   56.9960 C.3    47  MET47       0.0598
     42  SD        -5.4910   13.6470   56.0880 S.3    47  MET47      -0.1393
     43  CE        -6.3740   14.3500   54.6550 C.3    47  MET47       0.0692
     44  N         -8.7170    6.8350   54.5580 N.3    49  PHE49      -0.1227
     45  CA        -8.0850    5.7360   53.8190 C.3    49  PHE49       0.1736
     46  C         -6.6530    5.5610   54.2970 C.2    49  PHE49       0.2595
     47  O         -6.2460    4.4610   54.6820 O.2    49  PHE49      -0.2718
     48  CB        -8.0600    6.0170   52.3140 C.3    49  PHE49       0.0547
     49  CG        -7.1320    5.1030   51.5400 C.ar   49  PHE49      -0.0202
     50  CD1       -7.3300    3.7250   51.5320 C.ar   49  PHE49      -0.0042
     51  CD2       -6.0470    5.6200   50.8400 C.ar   49  PHE49      -0.0042
     52  CE1       -6.4630    2.8740   50.8440 C.ar   49  PHE49      -0.0003
     53  CE2       -5.1750    4.7790   50.1490 C.ar   49  PHE49      -0.0003
     54  CZ        -5.3890    3.4020   50.1550 C.ar   49  PHE49      -0.0000
     55  N         -5.8900    6.6510   54.2470 N.am   50  PHE50      -0.1962
     56  CA        -4.5060    6.6410   54.7010 C.3    50  PHE50       0.1771
     57  C         -4.4430    5.9760   56.0630 C.2    50  PHE50       0.2619
     58  O         -3.7170    5.0020   56.2560 O.2    50  PHE50      -0.2715
     59  CB        -3.9800    8.0620   54.8340 C.3    50  PHE50       0.0574
     60  CG        -2.6590    8.1450   55.5320 C.ar   50  PHE50      -0.0200
     61  CD1       -1.4890    7.8020   54.8720 C.ar   50  PHE50      -0.0042
     62  CD2       -2.5890    8.5480   56.8600 C.ar   50  PHE50      -0.0042
     63  CE1       -0.2710    7.8590   55.5180 C.ar   50  PHE50      -0.0003
     64  CE2       -1.3680    8.6090   57.5230 C.ar   50  PHE50      -0.0003
     65  CZ        -0.2060    8.2650   56.8510 C.ar   50  PHE50      -0.0000
     66  N         -5.2070    6.5230   57.0050 N.am   51  ARG51      -0.1977
     67  CA        -5.2750    5.9960   58.3590 C.3    51  ARG51       0.1597
     68  C         -5.5530    4.4830   58.3550 C.2    51  ARG51       0.2287
     69  O         -4.8070    3.7000   58.9500 O.2    51  ARG51      -0.2864
     70  CB        -6.3770    6.7230   59.1390 C.3    51  ARG51       0.0334
     71  CG        -6.4240    6.4290   60.6400 C.3    51  ARG51       0.0492
     72  CD        -7.5630    7.1930   61.3230 C.3    51  ARG51       0.2205
     73  NE        -8.8830    6.6830   60.9470 N.pl3  51  ARG51      -0.0865
     74  CZ        -9.8290    7.3880   60.3230 C.cat  51  ARG51       0.5346
     75  NH1       -9.6160    8.6600   59.9880 N.pl3  51  ARG51       0.1354
     76  NH2      -10.9980    6.8160   60.0360 N.pl3  51  ARG51       0.1354
     77  N          8.2060   16.0990   57.0930 N.3    78  THR78      -0.1218
     78  CA         6.8490   15.5530   57.1460 C.3    78  THR78       0.1862
     79  C          6.4390   15.2980   58.6000 C.2    78  THR78       0.2287
     80  O          5.3000   15.5780   58.9990 O.2    78  THR78      -0.2866
     81  CB         6.7490   14.2370   56.3580 C.3    78  THR78       0.1770
     82  OG1        6.6040   14.5360   54.9650 O.3    78  THR78      -0.2211
     83  CG2        5.5570   13.4070   56.8300 C.3    78  THR78       0.0375
     84  N          5.2550   18.5080   59.7900 N.3    81  SER81      -0.1202
     85  CA         3.9750   18.9710   59.2530 C.3    81  SER81       0.2020
     86  C          2.7790   18.2500   59.8720 C.2    81  SER81       0.2619
     87  O          1.6710   18.3380   59.3520 O.2    81  SER81      -0.2717
     88  CB         3.9260   18.7860   57.7310 C.3    81  SER81       0.2103
     89  OG         3.7540   17.4200   57.3850 O.3    81  SER81      -0.2182
     90  N          3.0010   17.5290   60.9660 N.am   82  ILE82      -0.1966
     91  CA         1.9180   16.8120   61.6250 C.3    82  ILE82       0.1712
     92  C          1.5690   17.5300   62.9210 C.2    82  ILE82       0.2458
     93  O          2.4270   17.7140   63.7790 O.2    82  ILE82      -0.2730
     94  CB         2.3140   15.3590   61.9760 C.3    82  ILE82       0.0289
     95  CG1        2.9830   14.6900   60.7820 C.3    82  ILE82       0.0022
     96  CG2        1.0770   14.5510   62.3410 C.3    82  ILE82       0.0023
     97  CD1        3.4240   13.2630   61.0670 C.3    82  ILE82       0.0001
     98  N          0.3000   17.9440   63.0800 N.am   83  PRO83      -0.2727
     99  CA        -0.1500   18.6430   64.2880 C.3    83  PRO83       0.1402
    100  C          0.2410   17.8680   65.5390 C.2    83  PRO83       0.2269
    101  O         -0.0920   16.6910   65.6710 O.2    83  PRO83      -0.2865
    102  CB        -1.6630   18.7060   64.1030 C.3    83  PRO83       0.0296
    103  CG        -1.9530   17.4910   63.2710 C.3    83  PRO83       0.0237
    104  CD        -0.8530   17.5670   62.2480 C.3    83  PRO83       0.0939
    105  N         -1.6070   14.7120   66.6850 N.3    86  PHE86      -0.1241
    106  CA        -1.7840   13.4970   65.8930 C.3    86  PHE86       0.1605
    107  C         -0.4270   12.8080   65.7770 C.2    86  PHE86       0.2264
    108  O         -0.2760   11.8490   65.0270 O.2    86  PHE86      -0.2867
    109  CB        -2.3130   13.8270   64.4890 C.3    86  PHE86       0.0534
    110  CG        -3.6850   14.4760   64.4720 C.ar   86  PHE86      -0.0203
    111  CD1       -4.2150   14.9710   63.2760 C.ar   86  PHE86      -0.0042
    112  CD2       -4.4420   14.6020   65.6350 C.ar   86  PHE86      -0.0042
    113  CE1       -5.4700   15.5810   63.2380 C.ar   86  PHE86      -0.0003
    114  CE2       -5.7000   15.2120   65.6050 C.ar   86  PHE86      -0.0003
    115  CZ        -6.2120   15.7020   64.4010 C.ar   86  PHE86      -0.0000
    116  N          1.8900    9.2500   64.9730 N.3    89  LEU89      -0.1245
    117  CA         0.7570    8.6020   64.3350 C.3    89  LEU89       0.1561
    118  C          0.5240    7.3080   65.0980 C.2    89  LEU89       0.2260
    119  O          1.3670    6.4230   65.1100 O.2    89  LEU89      -0.2867
    120  CB         1.0700    8.3140   62.8680 C.3    89  LEU89       0.0270
    121  CG         1.3480    9.5480   62.0010 C.3    89  LEU89       0.0019
    122  CD1        1.6380    9.1050   60.5880 C.3    89  LEU89       0.0001
    123  CD2        0.1500   10.5040   62.0220 C.3    89  LEU89       0.0001
    124  N          5.4130    6.9690   54.0840 N.3   152  ILE152     -0.1231
    125  CA         4.3660    7.9750   54.0040 C.3   152  ILE152      0.1696
    126  C          4.7100    9.4260   53.7500 C.2   152  ILE152      0.2631
    127  O          3.8280   10.2830   53.8780 O.2   152  ILE152     -0.2714
    128  CB         3.4900    7.9620   55.2730 C.3   152  ILE152      0.0266
    129  CG1        4.2700    8.5320   56.4520 C.3   152  ILE152      0.0019
    130  CG2        3.0330    6.5440   55.5830 C.3   152  ILE152      0.0020
    131  CD1        3.4240    8.6970   57.6640 C.3   152  ILE152      0.0001
    132  N          5.9470    9.7490   53.3950 N.am  153  GLY153     -0.1732
    133  CA         6.1750   11.1570   53.1840 C.2   153  GLY153      0.1340
    134  C          7.5170   11.7690   52.9130 C.2   153  GLY153      0.2521
    135  O          8.5600   11.3010   53.3680 O.2   153  GLY153     -0.2816
    136  N         10.3620    9.9260   49.0160 N.3   158  TYR158     -0.1241
    137  CA         9.6460    9.2190   47.9570 C.3   158  TYR158      0.1605
    138  C         10.6520    8.9860   46.8430 C.2   158  TYR158      0.2264
    139  O         10.7240    7.9080   46.2590 O.2   158  TYR158     -0.2867
    140  CB         8.4910   10.0530   47.3880 C.3   158  TYR158      0.0534
    141  CG         7.2530   10.1390   48.2560 C.ar  158  TYR158     -0.0201
    142  CD1        6.7240    9.0060   48.8720 C.ar  158  TYR158     -0.0009
    143  CD2        6.5900   11.3510   48.4340 C.ar  158  TYR158     -0.0009
    144  CE1        5.5680    9.0800   49.6400 C.ar  158  TYR158      0.0417
    145  CE2        5.4320   11.4350   49.2010 C.ar  158  TYR158      0.0417
    146  CZ         4.9270   10.2950   49.7980 C.ar  158  TYR158      0.1957
    147  OH         3.7730   10.3720   50.5350 O.3   158  TYR158     -0.2866
    148  N          0.4500    3.1810   46.6150 N.3   174  TYR174     -0.1241
    149  CA        -0.9230    3.6540   46.8120 C.3   174  TYR174      0.1605
    150  C         -1.0000    5.1530   46.5310 C.2   174  TYR174      0.2264
    151  O         -0.6440    5.9630   47.3780 O.2   174  TYR174     -0.2867
    152  CB        -1.3830    3.4040   48.2500 C.3   174  TYR174      0.0534
    153  CG        -1.4510    1.9570   48.6350 C.ar  174  TYR174     -0.0201
    154  CD1       -0.3720    1.3230   49.2570 C.ar  174  TYR174     -0.0009
    155  CD2       -2.5900    1.2050   48.3620 C.ar  174  TYR174     -0.0009
    156  CE1       -0.4280   -0.0290   49.6000 C.ar  174  TYR174      0.0417
    157  CE2       -2.6580   -0.1490   48.6970 C.ar  174  TYR174      0.0417
    158  CZ        -1.5740   -0.7590   49.3130 C.ar  174  TYR174      0.1957
    159  OH        -1.6440   -2.0990   49.6160 O.3   174  TYR174     -0.2866
    160  N         -3.1430    8.6450   45.5660 N.3   176  THR176     -0.1218
    161  CA        -4.4300    9.3100   45.6000 C.3   176  THR176      0.1862
    162  C         -4.2590   10.6060   44.8250 C.2   176  THR176      0.2287
    163  O         -3.3770   11.4090   45.1290 O.2   176  THR176     -0.2866
    164  CB        -4.8470    9.6620   47.0410 C.3   176  THR176      0.1770
    165  OG1       -4.7270    8.5040   47.8780 O.3   176  THR176     -0.2211
    166  CG2       -6.2810   10.1580   47.0640 C.3   176  THR176      0.0375
@<TRIPOS>BOND
     1   162   163    2
     2   162   161    1
     3   160   161    1
     4   161   164    1
     5   139   138    2
     6    13    12    1
     7   150   149    1
     8   150   151    2
     9   148   149    1
    10    17    18    2
    11    17    16    1
    12   149   152    1
    13   138   137    1
    14   164   166    1
    15   164   165    1
    16   140   137    1
    17   140   141    1
    18    11    10    2
    19    14    12    1
    20    16    15    1
    21    16    19    1
    22    12     9    1
    23   137   136    1
    24    10    15   am
    25    10     9    1
    26   152   153    1
    27   141   143   ar
    28   141   142   ar
    29   155   153   ar
    30   155   157   ar
    31   143   145   ar
    32   153   154   ar
    33   157   158   ar
    34     9     8    1
    35   142   144   ar
    36     8     3   am
    37   145   146   ar
    38   154   156   ar
    39   158   156   ar
    40   158   159    1
    41   144   146   ar
    42   146   147    1
    43    34    33   ar
    44     3     2    1
    45     3     4    2
    46    53    54   ar
    47    53    51   ar
    48    54    52   ar
    49     2     1    1
    50     2     5    1
    51    33    32    1
    52    33    35   ar
    53    32    29    1
    54    51    49   ar
    55    52    50   ar
    56    26    24    1
    57     6     5    1
    58    50    49   ar
    59    49    48    1
    60     5     7    1
    61    29    28    1
    62    29    30    1
    63    22    21    1
    64    22    23    2
    65    21    24    1
    66    21    20    1
    67    48    45    1
    68    24    25    1
    69    25    27    1
    70   134   133    1
    71   134   135    2
    72    30    31    2
    73    30    36   am
    74   133   132    2
    75   132   126    1
    76   126   127    2
    77   126   125    1
    78    45    46    1
    79    45    44    1
    80    36    37    1
    81   125   124    1
    82   125   128    1
    83    55    46   am
    84    55    56    1
    85    46    47    2
    86    43    42    1
    87    56    59    1
    88    56    57    1
    89    59    60    1
    90    61    63   ar
    91    61    60   ar
    92    82    81    1
    93    37    38    1
    94    37    40    1
    95   128   130    1
    96   128   129    1
    97    63    65   ar
    98    60    62   ar
    99    38    39    2
   100    57    58    2
   101    57    66   am
   102    40    41    1
   103    42    41    1
   104    81    83    1
   105    81    78    1
   106   129   131    1
   107    65    64   ar
   108    62    64   ar
   109    66    67    1
   110    77    78    1
   111    78    79    1
   112    89    88    1
   113    88    85    1
   114    68    67    1
   115    68    69    2
   116    67    70    1
   117    79    80    2
   118    70    71    1
   119    85    84    1
   120    85    86    1
   121    87    86    2
   122    86    90   am
   123    75    74    1
   124    76    74    1
   125    74    73    2
   126   122   121    1
   127    71    72    1
   128    95    97    1
   129    95    94    1
   130    73    72    1
   131    90    91    1
   132    91    94    1
   133    91    92    1
   134    94    96    1
   135   121   123    1
   136   121   120    1
   137   104    98    1
   138   104   103    1
   139   120   117    1
   140    92    98   am
   141    92    93    2
   142    98    99    1
   143   113   111   ar
   144   113   115   ar
   145   103   102    1
   146   111   110   ar
   147   102    99    1
   148    99   100    1
   149   117   116    1
   150   117   118    1
   151   115   114   ar
   152   110   109    1
   153   110   112   ar
   154   109   106    1
   155   108   107    2
   156   118   119    2
   157   100   101    2
   158   114   112   ar
   159   107   106    1
   160   106   105    1
