@<TRIPOS>MOLECULE
tmp/3irxA00.pdb
 201 199 0 0 0
SMALL
GASTEIGER

@<TRIPOS>ATOM
      1  N        -46.3050  -19.8200  -37.7940 N.3    96  PRO96      -0.2116
      2  CA       -46.6630  -20.2060  -36.4280 C.3    96  PRO96       0.1372
      3  C        -45.4760  -20.8550  -35.7350 C.2    96  PRO96       0.2244
      4  O        -44.4500  -21.1210  -36.3640 O.2    96  PRO96      -0.2868
      5  CB       -47.7870  -21.2230  -36.6330 C.3    96  PRO96       0.0268
      6  CG       -48.4410  -20.7700  -37.8590 C.3    96  PRO96       0.0207
      7  CD       -47.2960  -20.3400  -38.7570 C.3    96  PRO96       0.0892
      8  N        -49.3140  -24.4760  -31.0100 N.3   101  LEU101     -0.1231
      9  CA       -50.3970  -25.3020  -31.5190 C.3   101  LEU101      0.1693
     10  C        -51.0170  -26.0780  -30.3660 C.2   101  LEU101      0.2592
     11  O        -50.4550  -26.1560  -29.2680 O.2   101  LEU101     -0.2718
     12  CB       -49.8750  -26.2770  -32.5750 C.3   101  LEU101      0.0284
     13  CG       -49.1020  -25.5940  -33.7070 C.3   101  LEU101      0.0019
     14  CD1      -48.4520  -26.6310  -34.6250 C.3   101  LEU101      0.0001
     15  CD2      -50.0510  -24.6930  -34.4780 C.3   101  LEU101      0.0001
     16  N        -52.1960  -26.6210  -30.6120 N.am  102  LYS102     -0.1966
     17  CA       -52.8760  -27.4280  -29.6170 C.3   102  LYS102      0.1728
     18  C        -53.1380  -28.7520  -30.3290 C.2   102  LYS102      0.2616
     19  O        -53.6210  -28.7650  -31.4650 O.2   102  LYS102     -0.2715
     20  CB       -54.1720  -26.7440  -29.1630 C.3   102  LYS102      0.0311
     21  CG       -54.9660  -26.1180  -30.2910 C.3   102  LYS102      0.0038
     22  CD       -56.2800  -25.5250  -29.8070 C.3   102  LYS102      0.0206
     23  CE       -56.0190  -24.4810  -28.7500 C.3   102  LYS102      0.1093
     24  NZ       -54.9150  -23.5820  -29.1740 N.3   102  LYS102     -0.1314
     25  N        -52.7730  -29.8560  -29.6780 N.am  103  LYS103     -0.1963
     26  CA       -52.9410  -31.1880  -30.2610 C.3   103  LYS103      0.1728
     27  C        -54.3250  -31.4350  -30.7960 C.2   103  LYS103      0.2616
     28  O        -55.3020  -30.8330  -30.3560 O.2   103  LYS103     -0.2715
     29  CB       -52.6010  -32.3010  -29.2560 C.3   103  LYS103      0.0311
     30  CG       -53.1900  -32.1490  -27.8410 C.3   103  LYS103      0.0038
     31  CD       -54.6900  -31.8210  -27.8130 C.3   103  LYS103      0.0206
     32  CE       -54.9630  -30.3100  -27.6730 C.3   103  LYS103      0.1093
     33  NZ       -56.4310  -29.9780  -27.7120 N.3   103  LYS103     -0.1314
     34  N        -54.3970  -32.3340  -31.7620 N.am  104  LYS104     -0.1977
     35  CA       -55.6630  -32.6930  -32.3600 C.3   104  LYS104      0.1596
     36  C        -55.7130  -34.2160  -32.5270 C.2   104  LYS104      0.2287
     37  O        -54.6860  -34.8490  -32.7790 O.2   104  LYS104     -0.2864
     38  CB       -55.8210  -31.9630  -33.7000 C.3   104  LYS104      0.0298
     39  CG       -56.0670  -30.4500  -33.5690 C.3   104  LYS104      0.0038
     40  CD       -57.4330  -30.1600  -32.9250 C.3   104  LYS104      0.0206
     41  CE       -57.7990  -28.6760  -32.8890 C.3   104  LYS104      0.1093
     42  NZ       -56.9150  -27.8590  -32.0160 N.3   104  LYS104     -0.1314
     43  N        -55.6290  -35.0560  -38.0450 N.3   107  VAL107     -0.1231
     44  CA       -55.0810  -33.9840  -38.8690 C.3   107  VAL107      0.1692
     45  C        -54.7910  -34.3620  -40.3130 C.2   107  VAL107      0.2593
     46  O        -53.9160  -35.1810  -40.5750 O.2   107  VAL107     -0.2718
     47  CB       -53.7920  -33.4770  -38.2750 C.3   107  VAL107      0.0266
     48  CG1      -53.1700  -32.4370  -39.1890 C.3   107  VAL107      0.0020
     49  CG2      -54.0780  -32.9080  -36.9260 C.3   107  VAL107      0.0020
     50  N        -55.4990  -33.7300  -41.2460 N.am  108  THR108     -0.1939
     51  CA       -55.3360  -34.0110  -42.6740 C.3   108  THR108      0.2028
     52  C        -54.6780  -32.8760  -43.4380 C.2   108  THR108      0.2642
     53  O        -54.6870  -31.7390  -42.9940 O.2   108  THR108     -0.2714
     54  CB       -56.6830  -34.2310  -43.3600 C.3   108  THR108      0.1808
     55  OG1      -57.5280  -35.0480  -42.5390 O.3   108  THR108     -0.2208
     56  CG2      -56.4630  -34.8890  -44.7080 C.3   108  THR108      0.0379
     57  N        -54.1350  -33.1840  -44.6070 N.am  109  VAL109     -0.1977
     58  CA       -53.5050  -32.1710  -45.4340 C.3   109  VAL109      0.1596
     59  C        -54.1080  -32.1980  -46.8320 C.2   109  VAL109      0.2287
     60  O        -54.1640  -33.2530  -47.4610 O.2   109  VAL109     -0.2864
     61  CB       -52.0000  -32.4170  -45.5760 C.3   109  VAL109      0.0276
     62  CG1      -51.3740  -31.3890  -46.5230 C.3   109  VAL109      0.0022
     63  CG2      -51.3550  -32.3480  -44.2240 C.3   109  VAL109      0.0022
     64  N        -60.3600  -26.6580  -37.4520 N.3   180  VAL180     -0.1245
     65  CA       -59.4220  -25.5560  -37.6300 C.3   180  VAL180      0.1561
     66  C        -58.6730  -25.7070  -38.9440 C.2   180  VAL180      0.2260
     67  O        -58.2810  -26.8110  -39.3070 O.2   180  VAL180     -0.2867
     68  CB       -58.4220  -25.5350  -36.4520 C.3   180  VAL180      0.0252
     69  CG1      -57.4310  -24.4000  -36.6120 C.3   180  VAL180      0.0019
     70  CG2      -59.1850  -25.3930  -35.1360 C.3   180  VAL180      0.0019
     71  N        -55.3910  -24.1590  -41.1200 N.3   182  TYR182     -0.1241
     72  CA       -54.2670  -23.2560  -41.3460 C.3   182  TYR182      0.1605
     73  C        -53.9890  -23.2090  -42.8490 C.2   182  TYR182      0.2264
     74  O        -54.0350  -24.2290  -43.5270 O.2   182  TYR182     -0.2867
     75  CB       -53.0120  -23.7340  -40.6020 C.3   182  TYR182      0.0534
     76  CG       -51.7630  -22.9220  -40.9090 C.ar  182  TYR182     -0.0201
     77  CD1      -51.6670  -21.5830  -40.5410 C.ar  182  TYR182     -0.0009
     78  CD2      -50.6730  -23.5020  -41.5550 C.ar  182  TYR182     -0.0009
     79  CE1      -50.5090  -20.8420  -40.8060 C.ar  182  TYR182      0.0417
     80  CE2      -49.5080  -22.7720  -41.8200 C.ar  182  TYR182      0.0417
     81  CZ       -49.4290  -21.4450  -41.4430 C.ar  182  TYR182      0.1957
     82  OH       -48.2730  -20.7240  -41.6770 O.3   182  TYR182     -0.2866
     83  N        -50.5760  -25.8520  -49.5390 N.3   187  ASP187     -0.1239
     84  CA       -51.1380  -26.8210  -48.6140 C.3   187  ASP187      0.1674
     85  C        -52.1350  -26.2040  -47.6510 C.2   187  ASP187      0.2266
     86  O        -51.9250  -25.1130  -47.1230 O.2   187  ASP187     -0.2867
     87  CB       -50.0390  -27.5110  -47.7960 C.3   187  ASP187      0.1410
     88  CG       -49.1750  -28.4450  -48.6270 C.2   187  ASP187      0.3668
     89  OD1      -49.7200  -29.1220  -49.5300 O.co2 187  ASP187     -0.2456
     90  OD2      -47.9530  -28.5170  -48.3570 O.co2 187  ASP187     -0.2456
     91  N        -54.0250  -27.0520  -44.1470 N.3   189  TYR189     -0.1227
     92  CA       -53.9650  -27.9830  -43.0400 C.3   189  TYR189      0.1736
     93  C        -55.2600  -27.9040  -42.2450 C.2   189  TYR189      0.2595
     94  O        -55.6040  -26.8520  -41.6940 O.2   189  TYR189     -0.2718
     95  CB       -52.7670  -27.6690  -42.1440 C.3   189  TYR189      0.0548
     96  CG       -51.4320  -27.7040  -42.8650 C.ar  189  TYR189     -0.0200
     97  CD1      -50.9540  -26.5850  -43.5490 C.ar  189  TYR189     -0.0009
     98  CD2      -50.6480  -28.8600  -42.8680 C.ar  189  TYR189     -0.0009
     99  CE1      -49.7220  -26.6130  -44.2210 C.ar  189  TYR189      0.0417
    100  CE2      -49.4190  -28.9040  -43.5360 C.ar  189  TYR189      0.0417
    101  CZ       -48.9580  -27.7760  -44.2110 C.ar  189  TYR189      0.1957
    102  OH       -47.7360  -27.8180  -44.8590 O.3   189  TYR189     -0.2866
    103  N        -56.0040  -29.0060  -42.2260 N.am  190  VAL190     -0.1966
    104  CA       -57.2420  -29.0460  -41.4640 C.3   190  VAL190      0.1727
    105  C        -57.0360  -30.0330  -40.3430 C.2   190  VAL190      0.2616
    106  O        -56.2930  -30.9900  -40.4970 O.2   190  VAL190     -0.2715
    107  CB       -58.4200  -29.5470  -42.2710 C.3   190  VAL190      0.0290
    108  CG1      -59.6730  -29.3650  -41.4560 C.3   190  VAL190      0.0023
    109  CG2      -58.5190  -28.8190  -43.5850 C.3   190  VAL190      0.0023
    110  N        -57.6910  -29.8060  -39.2160 N.am  191  GLY191     -0.1955
    111  CA       -57.5480  -30.7160  -38.0940 C.3   191  GLY191      0.1869
    112  C        -58.7600  -30.5910  -37.2040 C.2   191  GLY191      0.2309
    113  O        -59.5640  -29.6850  -37.4030 O.2   191  GLY191     -0.2863
    114  N        -50.6050  -40.4410  -46.8190 N.3   223  GLN223     -0.1231
    115  CA       -49.2030  -40.1470  -46.4980 C.3   223  GLN223      0.1698
    116  C        -48.9310  -40.0850  -44.9900 C.2   223  GLN223      0.2592
    117  O        -48.2070  -39.2220  -44.4940 O.2   223  GLN223     -0.2718
    118  CB       -48.8250  -38.8150  -47.1630 C.3   223  GLN223      0.0381
    119  CG       -47.5750  -38.1320  -46.6280 C.3   223  GLN223      0.0905
    120  CD       -46.2950  -38.6770  -47.2140 C.2   223  GLN223      0.2608
    121  OE1      -45.2120  -38.4560  -46.6740 O.2   223  GLN223     -0.2717
    122  NE2      -46.4060  -39.3750  -48.3370 N.am  223  GLN223     -0.0878
    123  N        -49.4780  -41.0440  -44.2620 N.am  224  LYS224     -0.1980
    124  CA       -49.3380  -41.0420  -42.8130 C.3   224  LYS224      0.1596
    125  C        -48.1370  -41.7060  -42.2030 C.2   224  LYS224      0.2287
    126  O        -47.9180  -42.8550  -42.4940 O.2   224  LYS224     -0.2864
    127  CB       -50.5400  -41.7310  -42.1810 C.3   224  LYS224      0.0298
    128  CG       -51.7060  -41.9170  -43.1100 C.3   224  LYS224      0.0038
    129  CD       -53.0270  -41.7030  -42.3960 C.3   224  LYS224      0.0206
    130  CE       -52.8940  -40.9900  -41.0550 C.3   224  LYS224      0.1093
    131  NZ       -52.4730  -41.9320  -39.9820 N.3   224  LYS224     -0.1314
    132  N        -43.6860  -36.0850  -39.4060 N.3   228  PHE228     -0.1227
    133  CA       -44.0800  -34.8820  -40.1300 C.3   228  PHE228      0.1736
    134  C        -42.9750  -33.8310  -40.1120 C.2   228  PHE228      0.2595
    135  O        -42.6150  -33.3130  -39.0550 O.2   228  PHE228     -0.2718
    136  CB       -45.3670  -34.3010  -39.5420 C.3   228  PHE228      0.0547
    137  CG       -46.5420  -35.2330  -39.6150 C.ar  228  PHE228     -0.0202
    138  CD1      -47.6610  -35.0220  -38.8270 C.ar  228  PHE228     -0.0042
    139  CD2      -46.5280  -36.3220  -40.4710 C.ar  228  PHE228     -0.0042
    140  CE1      -48.7440  -35.8780  -38.8920 C.ar  228  PHE228     -0.0003
    141  CE2      -47.6070  -37.1820  -40.5400 C.ar  228  PHE228     -0.0003
    142  CZ       -48.7170  -36.9600  -39.7490 C.ar  228  PHE228     -0.0000
    143  N        -42.4430  -33.5200  -41.2890 N.am  229  LEU229     -0.1966
    144  CA       -41.3920  -32.5130  -41.4170 C.3   229  LEU229      0.1728
    145  C        -41.9710  -31.2320  -42.0150 C.2   229  LEU229      0.2616
    146  O        -42.5510  -31.2350  -43.1020 O.2   229  LEU229     -0.2715
    147  CB       -40.2590  -33.0310  -42.2990 C.3   229  LEU229      0.0311
    148  CG       -39.6940  -34.4200  -41.9820 C.3   229  LEU229      0.0022
    149  CD1      -38.5500  -34.7050  -42.9350 C.3   229  LEU229      0.0001
    150  CD2      -39.2040  -34.4900  -40.5500 C.3   229  LEU229      0.0001
    151  N        -41.8090  -30.1260  -41.2980 N.am  230  TRP230     -0.1974
    152  CA       -42.3380  -28.8470  -41.7540 C.3   230  TRP230      0.1640
    153  C        -41.4100  -27.7010  -41.3220 C.2   230  TRP230      0.2290
    154  O        -40.9740  -27.6420  -40.1730 O.2   230  TRP230     -0.2864
    155  CB       -43.7440  -28.6670  -41.1720 C.3   230  TRP230      0.0576
    156  CG       -44.4300  -27.4210  -41.5780 C.ar  230  TRP230      0.0006
    157  CD1      -45.0270  -27.1640  -42.7740 C.ar  230  TRP230      0.0946
    158  CD2      -44.5660  -26.2340  -40.7950 C.ar  230  TRP230      0.0152
    159  NE1      -45.5260  -25.8860  -42.7890 N.ar  230  TRP230     -0.2442
    160  CE2      -45.2550  -25.2920  -41.5850 C.ar  230  TRP230      0.0810
    161  CE3      -44.1680  -25.8730  -39.5010 C.ar  230  TRP230      0.0012
    162  CZ2      -45.5560  -24.0070  -41.1250 C.ar  230  TRP230      0.0191
    163  CZ3      -44.4640  -24.5940  -39.0440 C.ar  230  TRP230      0.0001
    164  CH2      -45.1520  -23.6780  -39.8560 C.ar  230  TRP230      0.0015
    165  N        -42.7360  -32.3670  -36.4050 N.3   235  LEU235     -0.1231
    166  CA       -43.9730  -32.5010  -35.6570 C.3   235  LEU235      0.1693
    167  C        -44.4170  -33.9400  -35.4740 C.2   235  LEU235      0.2592
    168  O        -44.2490  -34.7790  -36.3560 O.2   235  LEU235     -0.2718
    169  CB       -45.0570  -31.6890  -36.3590 C.3   235  LEU235      0.0284
    170  CG       -44.4690  -30.3420  -36.7890 C.3   235  LEU235      0.0019
    171  CD1      -45.3210  -29.7010  -37.8600 C.3   235  LEU235      0.0001
    172  CD2      -44.3160  -29.4590  -35.5750 C.3   235  LEU235      0.0001
    173  N        -44.9790  -34.2150  -34.3050 N.am  236  HIS236     -0.1962
    174  CA       -45.4720  -35.5420  -33.9710 C.3   236  HIS236      0.1772
    175  C        -46.8830  -35.3530  -33.4690 C.2   236  HIS236      0.2462
    176  O        -47.3260  -34.2260  -33.2990 O.2   236  HIS236     -0.2730
    177  CB       -44.5940  -36.1760  -32.8930 C.3   236  HIS236      0.0785
    178  CG       -43.2980  -36.7030  -33.4180 C.ar  236  HIS236      0.0821
    179  ND1      -43.1800  -37.9560  -33.9770 N.ar  236  HIS236     -0.2267
    180  CD2      -42.0800  -36.1260  -33.5280 C.ar  236  HIS236      0.1154
    181  CE1      -41.9460  -38.1290  -34.4110 C.ar  236  HIS236      0.1986
    182  NE2      -41.2580  -37.0330  -34.1510 N.ar  236  HIS236     -0.2212
    183  N        -47.6140  -36.4490  -33.2280 N.am  237  PRO237     -0.2727
    184  CA       -48.9970  -36.3870  -32.7430 C.3   237  PRO237      0.1402
    185  C        -49.1910  -35.5770  -31.4630 C.2   237  PRO237      0.2269
    186  O        -50.2680  -35.0260  -31.2170 O.2   237  PRO237     -0.2865
    187  CB       -49.3500  -37.8600  -32.5430 C.3   237  PRO237      0.0296
    188  CG       -48.5570  -38.5340  -33.6040 C.3   237  PRO237      0.0237
    189  CD       -47.2210  -37.8430  -33.4900 C.3   237  PRO237      0.0939
    190  N        -47.1920  -29.3500  -26.4800 N.3   319  TYR319     -0.1241
    191  CA       -48.1350  -28.4610  -27.1330 C.3   319  TYR319      0.1605
    192  C        -48.9150  -27.6950  -26.0880 C.2   319  TYR319      0.2264
    193  O        -49.1360  -28.1720  -24.9680 O.2   319  TYR319     -0.2867
    194  CB       -49.0920  -29.2700  -28.0140 C.3   319  TYR319      0.0534
    195  CG       -48.4770  -29.7580  -29.3080 C.ar  319  TYR319     -0.0201
    196  CD1      -48.6290  -31.0800  -29.7380 C.ar  319  TYR319     -0.0009
    197  CD2      -47.7410  -28.8940  -30.1080 C.ar  319  TYR319     -0.0009
    198  CE1      -48.0560  -31.5180  -30.9290 C.ar  319  TYR319      0.0417
    199  CE2      -47.1700  -29.3210  -31.2970 C.ar  319  TYR319      0.0417
    200  CZ       -47.3260  -30.6270  -31.7020 C.ar  319  TYR319      0.1957
    201  OH       -46.7150  -31.0220  -32.8710 O.3   319  TYR319     -0.2866
@<TRIPOS>BOND
     1    83    84    1
     2    89    88   ar
     3    88    90   ar
     4    88    87    1
     5    84    87    1
     6    84    85    1
     7   122   120   am
     8    85    86    2
     9    60    59    2
    10   120   121    2
    11   120   119    1
    12   118   119    1
    13   118   115    1
    14    59    58    1
    15   114   115    1
    16    62    61    1
    17   115   116    1
    18    61    58    1
    19    61    63    1
    20    58    57    1
    21   116   117    2
    22   116   123   am
    23   102   101    1
    24    56    54    1
    25    57    52   am
    26   123   124    1
    27    99   101   ar
    28    99    97   ar
    29   101   100   ar
    30    91    92    1
    31   109   107    1
    32    97    96   ar
    33   100    98   ar
    34    74    73    2
    35    52    53    2
    36    52    51    1
    37    54    51    1
    38    54    55    1
    39   128   129    1
    40   128   127    1
    41   146   145    2
    42    92    93    1
    43    92    95    1
    44   149   148    1
    45    98    96   ar
    46    96    95    1
    47    73    72    1
    48   124   125    1
    49   124   127    1
    50   159   157   ar
    51   159   160   ar
    52   157   156   ar
    53    51    50    1
    54   126   125    2
    55   129   130    1
    56   147   148    1
    57   147   144    1
    58   107   104    1
    59   107   108    1
    60    93   103   am
    61    93    94    2
    62   103   104    1
    63   145   144    1
    64   145   151   am
    65   148   150    1
    66    80    78   ar
    67    80    81   ar
    68   152   153    1
    69   152   151    1
    70   152   155    1
    71    82    81    1
    72   160   162   ar
    73   160   158   ar
    74   156   155    1
    75   156   158   ar
    76    78    76   ar
    77   104   105    1
    78    81    79   ar
    79   144   143    1
    80    72    71    1
    81    72    75    1
    82   153   154    2
    83   143   134   am
    84    50    45   am
    85   162   164   ar
    86   130   131    1
    87    76    75    1
    88    76    77   ar
    89    79    77   ar
    90   158   161   ar
    91    46    45    2
    92   141   139   ar
    93   141   142   ar
    94   106   105    2
    95   139   137   ar
    96   105   110   am
    97    45    44    1
    98   133   134    1
    99   133   136    1
   100   133   132    1
   101   134   135    2
   102   164   163   ar
   103   142   140   ar
   104   137   136    1
   105   137   138   ar
   106   161   163   ar
   107    67    66    2
   108   110   111    1
   109    48    47    1
   110    66    65    1
   111   140   138   ar
   112    44    47    1
   113    44    43    1
   114     7     6    1
   115     7     1    1
   116    47    49    1
   117   111   112    1
   118   171   170    1
   119     6     5    1
   120     1     2    1
   121    65    64    1
   122    65    68    1
   123   113   112    2
   124   170   169    1
   125   170   172    1
   126     5     2    1
   127    69    68    1
   128    68    70    1
   129     2     3    1
   130   165   166    1
   131     4     3    2
   132   169   166    1
   133   168   167    2
   134   166   167    1
   135   167   173   am
   136    14    13    1
   137    15    13    1
   138   181   182   ar
   139   181   179   ar
   140   173   174    1
   141   182   180   ar
   142   179   178   ar
   143   174   175    1
   144   174   177    1
   145    13    12    1
   146    38    39    1
   147    38    35    1
   148   188   189    1
   149   188   187    1
   150    39    40    1
   151   180   178   ar
   152   189   183    1
   153   175   176    2
   154   175   183   am
   155   178   177    1
   156   183   184    1
   157    40    41    1
   158    41    42    1
   159   201   200    1
   160    37    36    2
   161   184   187    1
   162   184   185    1
   163    12     9    1
   164    36    35    1
   165    35    34    1
   166    34    27   am
   167   200   199   ar
   168   200   198   ar
   169     9     8    1
   170     9    10    1
   171    19    18    2
   172   185   186    2
   173   199   197   ar
   174   198   196   ar
   175    27    28    2
   176    27    26    1
   177    16    10   am
   178    16    17    1
   179    10    11    2
   180    18    25   am
   181    18    17    1
   182    21    22    1
   183    21    20    1
   184    26    25    1
   185    26    29    1
   186   197   195   ar
   187    22    23    1
   188   196   195   ar
   189    17    20    1
   190   195   194    1
   191    29    30    1
   192    24    23    1
   193   194   191    1
   194    30    31    1
   195    31    32    1
   196    33    32    1
   197   191   190    1
   198   191   192    1
   199   192   193    2
