@<TRIPOS>MOLECULE
tmp/3is3A00.pdb
 109 107 0 0 0
SMALL
GASTEIGER

@<TRIPOS>ATOM
      1  N          3.0330   13.9400   19.5570 N.3    97  VAL97      -0.1245
      2  CA         4.2140   13.5660   18.7970 C.3    97  VAL97       0.1561
      3  C          5.3680   13.1490   19.7210 C.2    97  VAL97       0.2260
      4  O          5.3970   13.4560   20.9300 O.2    97  VAL97      -0.2867
      5  CB         4.6050   14.7240   17.8320 C.3    97  VAL97       0.0252
      6  CG1        5.2310   15.9150   18.5660 C.3    97  VAL97       0.0019
      7  CG2        5.4420   14.2270   16.6920 C.3    97  VAL97       0.0019
      8  N         -7.4530    9.9490   13.6630 N.3   141  THR141     -0.1203
      9  CA        -6.3100   10.6480   13.0620 C.3   141  THR141      0.1994
     10  C         -5.1260    9.6920   12.9960 C.2   141  THR141      0.2619
     11  O         -4.6640    9.1880   14.0220 O.2   141  THR141     -0.2717
     12  CB        -5.9420   11.9310   13.8540 C.3   141  THR141      0.1784
     13  OG1       -7.0570   12.8190   13.7700 O.3   141  THR141     -0.2211
     14  CG2       -4.7590   12.6850   13.1990 C.3   141  THR141      0.0376
     15  N         -4.6410    9.4960   11.7710 N.am  142  SER142     -0.1937
     16  CA        -3.4160    8.7700   11.5250 C.3   142  SER142      0.2055
     17  C         -2.3090    9.8140   11.2710 C.2   142  SER142      0.2644
     18  O         -2.2370   10.7830   12.0220 O.2   142  SER142     -0.2714
     19  CB        -3.6450    7.8070   10.3480 C.3   142  SER142      0.2130
     20  OG        -2.4140    7.1810   10.0210 O.3   142  SER142     -0.2179
     21  N         -1.4450    9.6390   10.2630 N.am  143  SER143     -0.1935
     22  CA        -0.3870   10.6030    9.9390 C.3   143  SER143      0.2055
     23  C          0.2270   10.1710    8.6320 C.2   143  SER143      0.2643
     24  O          0.2420    8.9700    8.3310 O.2   143  SER143     -0.2714
     25  CB         0.7050   10.5400   11.0130 C.3   143  SER143      0.2130
     26  OG         1.7950   11.3700   10.6480 O.3   143  SER143     -0.2179
     27  N          0.7430   11.0950    7.8540 N.am  144  ASN144     -0.1957
     28  CA         1.5100   10.7020    6.6820 C.3   144  ASN144      0.1819
     29  C          2.7260    9.8730    7.0590 C.2   144  ASN144      0.2621
     30  O          3.2600    9.1660    6.2090 O.2   144  ASN144     -0.2715
     31  CB         1.8980   11.9310    5.8160 C.3   144  ASN144      0.1195
     32  CG         2.9520   12.8510    6.4880 C.2   144  ASN144      0.2630
     33  OD1        3.0210   12.9330    7.7260 O.2   144  ASN144     -0.2716
     34  ND2        3.6990   13.5610    5.6790 N.am  144  ASN144     -0.0877
     35  N          3.1540    9.9460    8.3190 N.am  145  THR145     -0.1951
     36  CA         4.3130    9.1550    8.7650 C.3   145  THR145      0.1897
     37  C          3.9800    7.6780    8.9690 C.2   145  THR145      0.2313
     38  O          4.9100    6.8970    9.1320 O.2   145  THR145     -0.2863
     39  CB         4.9440    9.7060   10.0640 C.3   145  THR145      0.1794
     40  OG1        3.9770    9.6310   11.1120 O.3   145  THR145     -0.2208
     41  CG2        5.4130   11.1600    9.8470 C.3   145  THR145      0.0378
     42  N          5.5060    8.5540    4.5140 N.3   149  PHE149     -0.1241
     43  CA         6.6790    9.4010    4.7500 C.3   149  PHE149      0.1605
     44  C          7.4970    8.6950    5.8090 C.2   149  PHE149      0.2264
     45  O          6.9330    8.2540    6.8070 O.2   149  PHE149     -0.2867
     46  CB         6.1670   10.7730    5.2530 C.3   149  PHE149      0.0534
     47  CG         7.2380   11.8360    5.4770 C.ar  149  PHE149     -0.0203
     48  CD1        8.3850   11.9070    4.6940 C.ar  149  PHE149     -0.0042
     49  CD2        7.0210   12.8140    6.4540 C.ar  149  PHE149     -0.0042
     50  CE1        9.3280   12.9320    4.8900 C.ar  149  PHE149     -0.0003
     51  CE2        7.9820   13.8500    6.6490 C.ar  149  PHE149     -0.0003
     52  CZ         9.1100   13.8880    5.8960 C.ar  149  PHE149     -0.0000
     53  N          6.1790    7.0790   17.0520 N.3   157  TYR157     -0.1241
     54  CA         4.9900    7.7700   16.6100 C.3   157  TYR157      0.1605
     55  C          4.4200    7.1130   15.3280 C.2   157  TYR157      0.2264
     56  O          3.2140    6.9550   15.1950 O.2   157  TYR157     -0.2867
     57  CB         5.3400    9.2400   16.3500 C.3   157  TYR157      0.0534
     58  CG         4.1400   10.0100   15.8780 C.ar  157  TYR157     -0.0201
     59  CD1        3.2660   10.5860   16.7870 C.ar  157  TYR157     -0.0009
     60  CD2        3.8410   10.1190   14.5170 C.ar  157  TYR157     -0.0009
     61  CE1        2.1100   11.2880   16.3540 C.ar  157  TYR157      0.0417
     62  CE2        2.7010   10.8270   14.0840 C.ar  157  TYR157      0.0417
     63  CZ         1.8560   11.4030   14.9990 C.ar  157  TYR157      0.1957
     64  OH         0.7430   12.0750   14.5260 O.3   157  TYR157     -0.2866
     65  N         -2.8040   13.5130    8.0550 N.3   187  PRO187     -0.2102
     66  CA        -2.2400   14.7960    7.6010 C.3   187  PRO187      0.1504
     67  C         -0.7390   14.7350    7.4320 C.2   187  PRO187      0.2576
     68  O         -0.0560   14.0040    8.1520 O.2   187  PRO187     -0.2718
     69  CB        -2.5470   15.7520    8.7730 C.3   187  PRO187      0.0282
     70  CG        -3.6600   15.0570    9.5690 C.3   187  PRO187      0.0208
     71  CD        -3.3310   13.5700    9.4250 C.3   187  PRO187      0.0893
     72  N         -0.2560   15.5240    6.4920 N.am  188  GLY188     -0.1943
     73  CA         1.1560   15.8210    6.3950 C.3   188  GLY188      0.2014
     74  C          1.4760   17.0190    7.2900 C.2   188  GLY188      0.2639
     75  O          0.7630   17.3200    8.2670 O.2   188  GLY188     -0.2714
     76  N          2.5890   17.6410    6.9310 N.am  189  GLY189     -0.1939
     77  CA         3.0060   18.9690    7.3930 C.3   189  GLY189      0.2014
     78  C          1.9240   20.0070    7.4810 C.2   189  GLY189      0.2639
     79  O          1.6180   20.6590    6.5140 O.2   189  GLY189     -0.2714
     80  N          1.4090   20.1970    8.6870 N.am  190  THR190     -0.1950
     81  CA         0.3500   21.1680    8.9470 C.3   190  THR190      0.1897
     82  C          0.8680   22.2630    9.8860 C.2   190  THR190      0.2313
     83  O          1.3520   21.9770   10.9920 O.2   190  THR190     -0.2863
     84  CB        -0.8530   20.4290    9.5740 C.3   190  THR190      0.1794
     85  OG1       -1.2170   19.3370    8.7280 O.3   190  THR190     -0.2208
     86  CG2       -2.0560   21.3400    9.7520 C.3   190  THR190      0.0378
     87  N          4.0850   23.8810   15.2630 N.3   195  PHE195     -0.1241
     88  CA         4.8200   23.3040   14.1350 C.3   195  PHE195      0.1605
     89  C          6.2880   23.6760   14.2160 C.2   195  PHE195      0.2264
     90  O          7.1640   22.8670   13.9610 O.2   195  PHE195     -0.2867
     91  CB         4.2070   23.7630   12.7990 C.3   195  PHE195      0.0534
     92  CG         5.0250   23.3990   11.5750 C.ar  195  PHE195     -0.0203
     93  CD1        4.9640   22.1090   11.0430 C.ar  195  PHE195     -0.0042
     94  CD2        5.8140   24.3500   10.9410 C.ar  195  PHE195     -0.0042
     95  CE1        5.7130   21.7690    9.9010 C.ar  195  PHE195     -0.0003
     96  CE2        6.5580   24.0270    9.8040 C.ar  195  PHE195     -0.0003
     97  CZ         6.5020   22.7280    9.2830 C.ar  195  PHE195     -0.0000
     98  N         11.9590   16.9000   10.9630 N.3   202  TYR202     -0.1241
     99  CA        11.4050   16.3230    9.7340 C.3   202  TYR202      0.1605
    100  C         12.2730   16.5040    8.4780 C.2   202  TYR202      0.2264
    101  O         11.9110   16.0130    7.3940 O.2   202  TYR202     -0.2867
    102  CB        10.0020   16.8510    9.4570 C.3   202  TYR202      0.0534
    103  CG         8.9530   16.4930   10.4780 C.ar  202  TYR202     -0.0201
    104  CD1        8.5020   15.1820   10.5930 C.ar  202  TYR202     -0.0009
    105  CD2        8.4280   17.4470   11.3590 C.ar  202  TYR202     -0.0009
    106  CE1        7.5570   14.8200   11.5360 C.ar  202  TYR202      0.0417
    107  CE2        7.4800   17.0880   12.3060 C.ar  202  TYR202      0.0417
    108  CZ         7.0490   15.7660   12.3870 C.ar  202  TYR202      0.1957
    109  OH         6.1130   15.3840   13.3290 O.3   202  TYR202     -0.2866
@<TRIPOS>BOND
     1    42    43    1
     2    48    50   ar
     3    48    47   ar
     4    43    46    1
     5    43    44    1
     6    50    52   ar
     7    46    47    1
     8    47    49   ar
     9    34    32   am
    10    44    45    2
    11    31    32    1
    12    31    28    1
    13    52    51   ar
    14    30    29    2
    15    73    72    1
    16    73    74    1
    17    49    51   ar
    18    32    33    2
    19    72    67   am
    20    79    78    2
    21    28    29    1
    22    28    27    1
    23    76    74   am
    24    76    77    1
    25    29    35   am
    26    74    75    2
    27    77    78    1
    28   101   100    2
    29    67    66    1
    30    67    68    2
    31    78    80   am
    32    66    65    1
    33    66    69    1
    34    27    23   am
    35    65    71    1
    36    35    36    1
    37    24    23    2
    38   100    99    1
    39    23    22    1
    40    80    81    1
    41    85    84    1
    42    36    37    1
    43    36    39    1
    44    69    70    1
    45    81    84    1
    46    81    82    1
    47    37    38    2
    48    97    96   ar
    49    97    95   ar
    50    71    70    1
    51   102    99    1
    52   102   103    1
    53    84    86    1
    54    99    98    1
    55    96    94   ar
    56    41    39    1
    57    82    83    2
    58    95    93   ar
    59    22    21    1
    60    22    25    1
    61    20    19    1
    62    39    40    1
    63    21    17   am
    64    19    16    1
    65   103   104   ar
    66   103   105   ar
    67   104   106   ar
    68    26    25    1
    69    94    92   ar
    70    93    92   ar
    71    17    16    1
    72    17    18    2
    73   105   107   ar
    74    16    15    1
    75   106   108   ar
    76    92    91    1
    77    15    10   am
    78   107   108   ar
    79   108   109    1
    80    91    88    1
    81    10     9    1
    82    10    11    2
    83     9     8    1
    84     9    12    1
    85    14    12    1
    86    13    12    1
    87    90    89    2
    88    62    60   ar
    89    62    63   ar
    90    88    89    1
    91    88    87    1
    92    60    58   ar
    93    64    63    1
    94    63    61   ar
    95    56    55    2
    96    55    54    1
    97    58    57    1
    98    58    59   ar
    99    57    54    1
   100    61    59   ar
   101    54    53    1
   102     7     5    1
   103     5     6    1
   104     5     2    1
   105     2     1    1
   106     2     3    1
   107     3     4    2
