@<TRIPOS>MOLECULE
tmp/3is5F00.pdb
 138 127 0 0 0
SMALL
GASTEIGER

@<TRIPOS>ATOM
      1  N         -7.6540 -107.6240   36.6340 N.3    19  LEU19      -0.1231
      2  CA        -7.7600 -108.1960   35.2970 C.3    19  LEU19       0.1696
      3  C         -8.6660 -109.4230   35.2800 C.2    19  LEU19       0.2632
      4  O         -9.3870 -109.6520   34.3100 O.2    19  LEU19      -0.2714
      5  CB        -6.3700 -108.5340   34.7560 C.3    19  LEU19       0.0284
      6  CG        -5.6460 -107.5140   33.8630 C.3    19  LEU19       0.0019
      7  CD1       -6.1660 -106.0970   34.0280 C.3    19  LEU19       0.0001
      8  CD2       -4.1390 -107.5550   34.1030 C.3    19  LEU19       0.0001
      9  N         -8.6310 -110.2020   36.3590 N.am   20  GLY20      -0.1718
     10  CA        -9.4590 -111.3940   36.4780 C.2    20  GLY20       0.1480
     11  C         -9.0990 -112.3140   37.6300 C.2    20  GLY20       0.2821
     12  O         -8.2240 -112.0010   38.4360 O.2    20  GLY20      -0.2669
     13  N         -9.7920 -113.4500   37.6940 N.am   21  SER21      -0.1901
     14  CA        -9.6370 -114.4360   38.7660 C.3    21  SER21       0.2058
     15  C         -9.2630 -115.7910   38.1770 C.2    21  SER21       0.2643
     16  O        -10.1350 -116.5630   37.7750 O.2    21  SER21      -0.2714
     17  CB       -10.9350 -114.5610   39.5670 C.3    21  SER21       0.2130
     18  OG       -11.3140 -113.3110   40.1190 O.3    21  SER21      -0.2179
     19  N         -7.9600 -116.0680   38.1310 N.am   22  GLY22      -0.1954
     20  CA        -7.4330 -117.2930   37.5160 C.3    22  GLY22       0.1869
     21  C         -7.7220 -118.5800   38.2760 C.2    22  GLY22       0.2309
     22  O         -8.4610 -118.5830   39.2700 O.2    22  GLY22      -0.2863
     23  N         -5.4850 -111.6800   39.2750 N.3    27  VAL27      -0.1245
     24  CA        -4.4860 -111.0060   38.4450 C.3    27  VAL27       0.1561
     25  C         -4.8170 -109.5180   38.4210 C.2    27  VAL27       0.2260
     26  O         -5.9670 -109.1420   38.1960 O.2    27  VAL27      -0.2867
     27  CB        -4.4350 -111.5510   36.9830 C.3    27  VAL27       0.0252
     28  CG1       -3.0760 -111.2910   36.3750 C.3    27  VAL27       0.0019
     29  CG2       -4.7190 -113.0490   36.9280 C.3    27  VAL27       0.0019
     30  N          1.9620 -106.5020   35.8440 N.3    40  VAL40      -0.1245
     31  CA         0.8260 -107.2680   36.3510 C.3    40  VAL40       0.1561
     32  C          1.3040 -108.2390   37.4190 C.2    40  VAL40       0.2260
     33  O          2.3870 -108.8150   37.3110 O.2    40  VAL40      -0.2867
     34  CB        -0.0880 -107.9450   35.2550 C.3    40  VAL40       0.0252
     35  CG1        0.0300 -107.2540   33.9030 C.3    40  VAL40       0.0019
     36  CG2        0.1610 -109.4370   35.1420 C.3    40  VAL40       0.0019
     37  N          0.2360 -111.6240   39.7740 N.3    42  LYS42      -0.1245
     38  CA        -0.6470 -112.7290   40.0890 C.3    42  LYS42       0.1561
     39  C         -0.5530 -113.0350   41.5810 C.2    42  LYS42       0.2260
     40  O          0.5340 -113.3130   42.1010 O.2    42  LYS42      -0.2867
     41  CB        -0.2910 -113.9600   39.2660 C.3    42  LYS42       0.0271
     42  CG        -1.2670 -115.1150   39.4540 C.3    42  LYS42       0.0035
     43  CD        -0.8430 -116.3540   38.6750 C.3    42  LYS42       0.0206
     44  CE        -1.1410 -116.2190   37.1890 C.3    42  LYS42       0.1093
     45  NZ        -0.8050 -117.4830   36.4750 N.3    42  LYS42      -0.1314
     46  N          6.2820 -115.2130   28.8340 N.3    72  ILE72      -0.1245
     47  CA         6.0740 -114.0960   29.7560 C.3    72  ILE72       0.1561
     48  C          7.2750 -113.9360   30.6880 C.2    72  ILE72       0.2260
     49  O          7.7920 -114.9150   31.2310 O.2    72  ILE72      -0.2867
     50  CB         4.7590 -114.2460   30.5800 C.3    72  ILE72       0.0252
     51  CG1        4.3450 -112.9090   31.2040 C.3    72  ILE72       0.0019
     52  CG2        4.8690 -115.3630   31.6440 C.3    72  ILE72       0.0019
     53  CD1        3.8040 -111.9070   30.1960 C.3    72  ILE72       0.0001
     54  N          5.1290 -109.6580   36.9700 N.3    88  MET88      -0.1230
     55  CA         5.4950 -109.9340   35.5870 C.3    88  MET88       0.1702
     56  C          5.2250 -108.7450   34.6550 C.2    88  MET88       0.2592
     57  O          4.6010 -107.7530   35.0510 O.2    88  MET88      -0.2718
     58  CB         4.7800 -111.2030   35.1020 C.3    88  MET88       0.0401
     59  CG         3.3130 -111.0280   34.7620 C.3    88  MET88       0.0596
     60  SD         2.4070 -112.5890   34.5930 S.3    88  MET88      -0.1393
     61  CE         1.9310 -112.9040   36.2940 C.3    88  MET88       0.0692
     62  N          5.7000 -108.8490   33.4180 N.am   89  GLU89      -0.1966
     63  CA         5.5050 -107.7820   32.4330 C.3    89  GLU89       0.1733
     64  C          4.0490 -107.7300   31.9720 C.2    89  GLU89       0.2617
     65  O          3.3330 -108.7310   32.0280 O.2    89  GLU89      -0.2715
     66  CB         6.4410 -107.9690   31.2340 C.3    89  GLU89       0.0429
     67  CG         6.1860 -109.2590   30.4530 C.3    89  GLU89       0.1163
     68  CD         7.1190 -109.4640   29.2720 C.2    89  GLU89       0.3649
     69  OE1        7.3480 -110.6360   28.9150 O.co2  89  GLU89      -0.2457
     70  OE2        7.6160 -108.4710   28.6950 O.co2  89  GLU89      -0.2457
     71  N          3.6320 -106.5590   31.5120 N.am   90  THR90      -0.1937
     72  CA         2.2910 -106.3350   30.9950 C.3    90  THR90       0.2028
     73  C          2.2430 -106.6390   29.5010 C.2    90  THR90       0.2642
     74  O          3.0570 -106.1220   28.7500 O.2    90  THR90      -0.2714
     75  CB         1.8890 -104.8480   31.2190 C.3    90  THR90       0.1808
     76  OG1        2.0830 -104.5010   32.5990 O.3    90  THR90      -0.2208
     77  CG2        0.4380 -104.5840   30.8170 C.3    90  THR90       0.0379
     78  N          1.2980 -107.4730   29.0740 N.am   91  CYS91      -0.1967
     79  CA         0.9820 -107.6160   27.6420 C.3    91  CYS91       0.1712
     80  C         -0.2130 -106.7440   27.2640 C.2    91  CYS91       0.2296
     81  O         -1.1190 -106.5460   28.0740 O.2    91  CYS91      -0.2864
     82  CB         0.6960 -109.0690   27.2800 C.3    91  CYS91       0.0983
     83  SG         2.1220 -110.1480   27.3820 S.3    91  CYS91      -0.0798
     84  N         -4.7480 -108.7080   23.5700 N.3    94  GLY94      -0.1210
     85  CA        -4.2510 -109.5180   24.6610 C.3    94  GLY94       0.1956
     86  C         -4.3210 -110.9920   24.2630 C.2    94  GLY94       0.2611
     87  O         -3.3650 -111.5170   23.6870 O.2    94  GLY94      -0.2717
     88  N         -5.4490 -111.6530   24.5350 N.am   95  GLU95      -0.1979
     89  CA        -5.5660 -113.1260   24.3640 C.3    95  GLU95       0.1602
     90  C         -5.6380 -113.6370   22.9210 C.2    95  GLU95       0.2287
     91  O         -6.3340 -113.0580   22.0850 O.2    95  GLU95      -0.2864
     92  CB        -6.7610 -113.6880   25.1480 C.3    95  GLU95       0.0415
     93  CG        -6.5390 -113.7640   26.6410 C.3    95  GLU95       0.1163
     94  CD        -7.7170 -114.3500   27.4190 C.2    95  GLU95       0.3649
     95  OE1       -8.6660 -114.9100   26.8110 O.co2  95  GLU95      -0.2457
     96  OE2       -7.6810 -114.2450   28.6630 O.co2  95  GLU95      -0.2457
     97  N         -9.1700 -114.2310   21.4790 N.3    98  GLU98      -0.1245
     98  CA        -9.8710 -113.0720   20.9120 C.3    98  GLU98       0.1567
     99  C         -9.7350 -112.9950   19.3860 C.2    98  GLU98       0.2260
    100  O        -10.6790 -112.6190   18.6870 O.2    98  GLU98      -0.2867
    101  CB        -9.3980 -111.7690   21.5790 C.3    98  GLU98       0.0388
    102  CG        -9.7040 -111.6920   23.0830 C.3    98  GLU98       0.1160
    103  CD        -8.9840 -110.5520   23.8100 C.2    98  GLU98       0.3649
    104  OE1       -9.0270 -109.3930   23.3340 O.co2  98  GLU98      -0.2457
    105  OE2       -8.3920 -110.8190   24.8780 O.co2  98  GLU98      -0.2457
    106  N         -6.4460 -118.9340   25.6200 N.3   141  GLU141     -0.1245
    107  CA        -6.6220 -117.9340   26.6820 C.3   141  GLU141      0.1567
    108  C         -5.3490 -117.7460   27.5170 C.2   141  GLU141      0.2260
    109  O         -5.1800 -116.7190   28.1760 O.2   141  GLU141     -0.2867
    110  CB        -7.8890 -118.1590   27.5370 C.3   141  GLU141      0.0388
    111  CG        -8.2750 -119.5960   27.8220 C.3   141  GLU141      0.1160
    112  CD        -9.0190 -120.2660   26.6750 C.2   141  GLU141      0.3649
    113  OE1      -10.2460 -120.0540   26.5470 O.co2 141  GLU141     -0.2457
    114  OE2       -8.3760 -121.0270   25.9240 O.co2 141  GLU141     -0.2457
    115  N         -0.8080 -114.7220   25.0660 N.3   144  LEU144     -0.1245
    116  CA        -1.0980 -113.3050   24.8940 C.3   144  LEU144      0.1561
    117  C         -0.3210 -112.6880   23.7390 C.2   144  LEU144      0.2260
    118  O          0.7580 -113.1600   23.3910 O.2   144  LEU144     -0.2867
    119  CB        -0.8250 -112.5450   26.1920 C.3   144  LEU144      0.0270
    120  CG        -1.5820 -112.9540   27.4640 C.3   144  LEU144      0.0019
    121  CD1       -1.4070 -111.8940   28.5530 C.3   144  LEU144      0.0001
    122  CD2       -3.0610 -113.1890   27.1990 C.3   144  LEU144      0.0001
    123  N          1.6940 -117.4720   28.8600 N.3   157  ILE157     -0.1231
    124  CA         1.4970 -117.1370   30.2780 C.3   157  ILE157      0.1692
    125  C          0.8690 -118.3190   31.0140 C.2   157  ILE157      0.2592
    126  O          0.6650 -119.3890   30.4310 O.2   157  ILE157     -0.2718
    127  CB         0.5850 -115.8900   30.4810 C.3   157  ILE157      0.0266
    128  CG1       -0.8360 -116.1400   29.9360 C.3   157  ILE157      0.0019
    129  CG2        1.2120 -114.6360   29.8690 C.3   157  ILE157      0.0020
    130  CD1       -1.9040 -115.2080   30.5100 C.3   157  ILE157      0.0001
    131  N          0.5760 -118.1170   32.2970 N.am  158  ASP158     -0.1974
    132  CA        -0.1500 -119.0880   33.1190 C.3   158  ASP158      0.1709
    133  C          0.3800 -120.5100   33.0070 C.2   158  ASP158      0.2293
    134  O         -0.3910 -121.4410   32.7690 O.2   158  ASP158     -0.2864
    135  CB        -1.6500 -119.0700   32.7950 C.3   158  ASP158      0.1436
    136  CG        -2.3450 -117.8270   33.2930 C.2   158  ASP158      0.3671
    137  OD1       -1.7980 -117.1440   34.1770 O.co2 158  ASP158     -0.2456
    138  OD2       -3.4600 -117.5320   32.8080 O.co2 158  ASP158     -0.2456
@<TRIPOS>BOND
     1   100    99    2
     2    99    98    1
     3    98    97    1
     4    98   101    1
     5   101   102    1
     6    91    90    2
     7    90    89    1
     8   102   103    1
     9   104   103   ar
    10   118   117    2
    11    84    85    1
    12    87    86    2
    13   117   116    1
    14   103   105   ar
    15    86    88   am
    16    86    85    1
    17    89    88    1
    18    89    92    1
    19   116   115    1
    20   116   119    1
    21    92    93    1
    22   106   107    1
    23   114   112   ar
    24   119   120    1
    25   113   112   ar
    26    93    94    1
    27   112   111    1
    28   107   108    1
    29   107   110    1
    30    95    94   ar
    31   122   120    1
    32    80    79    1
    33    80    81    2
    34    82    83    1
    35    82    79    1
    36    94    96   ar
    37   120   121    1
    38   108   109    2
    39   110   111    1
    40    79    78    1
    41    70    68   ar
    42    74    73    2
    43    46    47    1
    44   123   124    1
    45    69    68   ar
    46    78    73   am
    47    68    67    1
    48    73    72    1
    49    47    50    1
    50    47    48    1
    51   129   127    1
    52   128   127    1
    53   128   130    1
    54    53    51    1
    55   124   127    1
    56   124   125    1
    57   126   125    2
    58    67    66    1
    59    50    51    1
    60    50    52    1
    61    48    49    2
    62    77    75    1
    63    72    75    1
    64    72    71    1
    65   125   131   am
    66    75    76    1
    67    66    63    1
    68    71    64   am
    69    64    65    2
    70    64    63    1
    71   131   132    1
    72    63    62    1
    73   134   133    2
    74   135   132    1
    75   135   136    1
    76   138   136   ar
    77   133   132    1
    78   136   137   ar
    79    62    56   am
    80     6     7    1
    81     6     8    1
    82     6     5    1
    83    35    34    1
    84     4     3    2
    85    60    59    1
    86    60    61    1
    87    56    57    2
    88    56    55    1
    89     5     2    1
    90    59    58    1
    91    58    55    1
    92    36    34    1
    93    34    31    1
    94     3     2    1
    95     3     9    1
    96     2     1    1
    97    55    54    1
    98    30    31    1
    99    31    32    1
   100     9    10    2
   101    28    27    1
   102    45    44    1
   103    10    11    1
   104    29    27    1
   105    27    24    1
   106    44    43    1
   107    33    32    2
   108    20    19    1
   109    20    21    1
   110    11    13   am
   111    11    12    2
   112    13    14    1
   113    16    15    2
   114    19    15   am
   115    15    14    1
   116    26    25    2
   117    21    22    2
   118    25    24    1
   119    24    23    1
   120    43    42    1
   121    14    17    1
   122    41    42    1
   123    41    38    1
   124    17    18    1
   125    37    38    1
   126    38    39    1
   127    39    40    2
