@<TRIPOS>MOLECULE
tmp/3is9A00.pdb
 209 207 0 0 0
SMALL
GASTEIGER

@<TRIPOS>ATOM
      1  N         46.1730  -19.5810   37.4580 N.3    95  PRO95      -0.2116
      2  CA        46.4070  -19.9470   36.0580 C.3    95  PRO95       0.1372
      3  C         45.1980  -20.6220   35.4470 C.2    95  PRO95       0.2244
      4  O         44.2520  -20.9840   36.1440 O.2    95  PRO95      -0.2868
      5  CB        47.5880  -20.9210   36.1370 C.3    95  PRO95       0.0268
      6  CG        48.2990  -20.5140   37.3810 C.3    95  PRO95       0.0207
      7  CD        47.1740  -20.2110   38.3380 C.3    95  PRO95       0.0892
      8  N         48.7330  -24.2160   30.8370 N.3   100  LEU100     -0.1231
      9  CA        49.7260  -25.1730   31.3080 C.3   100  LEU100      0.1693
     10  C         50.3690  -25.9650   30.1900 C.2   100  LEU100      0.2592
     11  O         49.6980  -26.4020   29.2520 O.2   100  LEU100     -0.2718
     12  CB        49.1070  -26.1860   32.2710 C.3   100  LEU100      0.0284
     13  CG        48.1590  -25.6840   33.3560 C.3   100  LEU100      0.0019
     14  CD1       47.7160  -26.8660   34.2130 C.3   100  LEU100      0.0001
     15  CD2       48.8510  -24.6200   34.1990 C.3   100  LEU100      0.0001
     16  N         51.6760  -26.1570   30.3200 N.am  101  LYS101     -0.1966
     17  CA        52.4530  -26.9450   29.3760 C.3   101  LYS101      0.1728
     18  C         52.7090  -28.3100   30.0250 C.2   101  LYS101      0.2616
     19  O         53.1350  -28.3910   31.1810 O.2   101  LYS101     -0.2715
     20  CB        53.7850  -26.2650   29.0570 C.3   101  LYS101      0.0311
     21  CG        54.8110  -27.2680   28.5570 C.3   101  LYS101      0.0038
     22  CD        56.0220  -26.6460   27.9090 C.3   101  LYS101      0.0206
     23  CE        56.2600  -27.3350   26.5810 C.3   101  LYS101      0.1093
     24  NZ        55.9710  -28.7950   26.7030 N.3   101  LYS101     -0.1314
     25  N         52.4460  -29.3810   29.2830 N.am  102  LYS102     -0.1963
     26  CA        52.6330  -30.7200   29.8190 C.3   102  LYS102      0.1728
     27  C         54.0670  -30.9990   30.2290 C.2   102  LYS102      0.2616
     28  O         55.0100  -30.5330   29.5960 O.2   102  LYS102     -0.2715
     29  CB        52.1900  -31.7730   28.8080 C.3   102  LYS102      0.0311
     30  CG        52.9670  -31.7810   27.5030 C.3   102  LYS102      0.0038
     31  CD        52.8790  -33.1610   26.8620 C.3   102  LYS102      0.0206
     32  CE        51.4770  -33.7420   27.0160 C.3   102  LYS102      0.1093
     33  NZ        51.3720  -35.1840   26.6640 N.3   102  LYS102     -0.1314
     34  N         54.2180  -31.7840   31.2910 N.am  103  LYS103     -0.1977
     35  CA        55.5330  -32.1560   31.8090 C.3   103  LYS103      0.1596
     36  C         55.6010  -33.6760   32.0380 C.2   103  LYS103      0.2287
     37  O         54.6630  -34.2660   32.5800 O.2   103  LYS103     -0.2864
     38  CB        55.7890  -31.4090   33.1270 C.3   103  LYS103      0.0298
     39  CG        55.8130  -29.8890   32.9990 C.3   103  LYS103      0.0038
     40  CD        57.2350  -29.3510   32.9020 C.3   103  LYS103      0.0206
     41  CE        57.3580  -28.2180   31.8850 C.3   103  LYS103      0.1093
     42  NZ        57.4770  -28.7620   30.4970 N.3   103  LYS103     -0.1314
     43  N         55.4630  -34.5760   37.3350 N.3   106  VAL106     -0.1245
     44  CA        54.9620  -33.4780   38.1510 C.3   106  VAL106      0.1561
     45  C         54.7130  -33.9480   39.5780 C.2   106  VAL106      0.2260
     46  O         53.8100  -34.7480   39.8310 O.2   106  VAL106     -0.2867
     47  CB        53.6450  -32.9110   37.5870 C.3   106  VAL106      0.0252
     48  CG1       53.0080  -31.9610   38.5960 C.3   106  VAL106      0.0019
     49  CG2       53.9140  -32.1910   36.2790 C.3   106  VAL106      0.0019
     50  N         54.3140  -33.0610   43.9400 N.3   108  VAL108     -0.1245
     51  CA        53.6390  -32.1090   44.8050 C.3   108  VAL108      0.1561
     52  C         54.2080  -32.1860   46.2120 C.2   108  VAL108      0.2260
     53  O         54.1450  -33.2320   46.8580 O.2   108  VAL108     -0.2867
     54  CB        52.1290  -32.3820   44.8760 C.3   108  VAL108      0.0252
     55  CG1       51.4780  -31.4590   45.8930 C.3   108  VAL108      0.0019
     56  CG2       51.5100  -32.1930   43.5130 C.3   108  VAL108      0.0019
     57  N         60.2070  -26.6590   36.7550 N.3   179  VAL179     -0.1245
     58  CA        59.2190  -25.5970   36.9050 C.3   179  VAL179      0.1561
     59  C         58.4860  -25.6780   38.2360 C.2   179  VAL179      0.2260
     60  O         57.7880  -26.6500   38.5170 O.2   179  VAL179     -0.2867
     61  CB        58.1740  -25.6540   35.7590 C.3   179  VAL179      0.0252
     62  CG1       57.0430  -24.6520   36.0230 C.3   179  VAL179      0.0019
     63  CG2       58.8460  -25.3510   34.4270 C.3   179  VAL179      0.0019
     64  N         55.7000  -24.0600   40.9940 N.3   181  TYR181     -0.1241
     65  CA        54.4970  -23.2300   41.0870 C.3   181  TYR181      0.1605
     66  C         54.0530  -23.2270   42.5490 C.2   181  TYR181      0.2264
     67  O         53.7790  -24.2820   43.1260 O.2   181  TYR181     -0.2867
     68  CB        53.3500  -23.7790   40.2120 C.3   181  TYR181      0.0534
     69  CG        52.0170  -23.0350   40.4030 C.ar  181  TYR181     -0.0201
     70  CD1       51.8080  -21.7640   39.8520 C.ar  181  TYR181     -0.0009
     71  CD2       50.9990  -23.5770   41.1940 C.ar  181  TYR181     -0.0009
     72  CE1       50.6210  -21.0500   40.0930 C.ar  181  TYR181      0.0417
     73  CE2       49.8100  -22.8750   41.4440 C.ar  181  TYR181      0.0417
     74  CZ        49.6300  -21.6120   40.8950 C.ar  181  TYR181      0.1957
     75  OH        48.4820  -20.9020   41.1760 O.3   181  TYR181     -0.2866
     76  N         50.5020  -26.0030   48.9330 N.3   186  ASP186     -0.1239
     77  CA        51.1630  -26.8730   47.9770 C.3   186  ASP186      0.1674
     78  C         52.1510  -26.1890   47.0510 C.2   186  ASP186      0.2266
     79  O         51.9930  -25.0190   46.7010 O.2   186  ASP186     -0.2867
     80  CB        50.1220  -27.6230   47.1410 C.3   186  ASP186      0.1410
     81  CG        49.2580  -28.5510   47.9770 C.2   186  ASP186      0.3668
     82  OD1       49.8250  -29.4060   48.6940 O.co2 186  ASP186     -0.2456
     83  OD2       48.0130  -28.4270   47.9150 O.co2 186  ASP186     -0.2456
     84  N         53.9070  -27.0460   43.4350 N.3   188  TYR188     -0.1227
     85  CA        53.9180  -27.9470   42.3010 C.3   188  TYR188      0.1736
     86  C         55.2290  -27.8430   41.5190 C.2   188  TYR188      0.2595
     87  O         55.5900  -26.7820   41.0100 O.2   188  TYR188     -0.2718
     88  CB        52.7180  -27.6500   41.3970 C.3   188  TYR188      0.0548
     89  CG        51.3950  -27.6060   42.1090 C.ar  188  TYR188     -0.0200
     90  CD1       50.9570  -26.4380   42.7340 C.ar  188  TYR188     -0.0009
     91  CD2       50.5960  -28.7430   42.1990 C.ar  188  TYR188     -0.0009
     92  CE1       49.7500  -26.4030   43.4360 C.ar  188  TYR188      0.0417
     93  CE2       49.3910  -28.7210   42.9070 C.ar  188  TYR188      0.0417
     94  CZ        48.9710  -27.5500   43.5200 C.ar  188  TYR188      0.1957
     95  OH        47.7780  -27.5310   44.2110 O.3   188  TYR188     -0.2866
     96  N         55.9480  -28.9530   41.4330 N.am  189  VAL189     -0.1966
     97  CA        57.2030  -28.9700   40.7080 C.3   189  VAL189      0.1727
     98  C         57.0980  -29.9700   39.5710 C.2   189  VAL189      0.2616
     99  O         56.6670  -31.1080   39.7700 O.2   189  VAL189     -0.2715
    100  CB        58.3640  -29.3920   41.6060 C.3   189  VAL189      0.0290
    101  CG1       59.6760  -29.0350   40.9370 C.3   189  VAL189      0.0023
    102  CG2       58.2320  -28.7380   42.9730 C.3   189  VAL189      0.0023
    103  N         57.4880  -29.5460   38.3760 N.am  190  GLY190     -0.1955
    104  CA        57.4210  -30.4360   37.2400 C.3   190  GLY190      0.1869
    105  C         58.6600  -30.3180   36.3930 C.2   190  GLY190      0.2309
    106  O         59.4230  -29.3670   36.5430 O.2   190  GLY190     -0.2863
    107  N         47.6720  -39.0150   45.4330 N.3   223  LYS223     -0.1231
    108  CA        46.8860  -38.5930   44.2930 C.3   223  LYS223      0.1693
    109  C         47.1710  -39.1760   42.9160 C.2   223  LYS223      0.2591
    110  O         48.1740  -39.7980   42.6810 O.2   223  LYS223     -0.2718
    111  CB        46.9660  -37.0880   44.2300 C.3   223  LYS223      0.0285
    112  CG        47.9820  -36.4150   45.1930 C.3   223  LYS223      0.0035
    113  CD        49.4200  -36.6090   44.7550 C.3   223  LYS223      0.0206
    114  CE        50.3470  -35.6230   45.4310 C.3   223  LYS223      0.1093
    115  NZ        49.7000  -34.2890   45.6150 N.3   223  LYS223     -0.1314
    116  N         46.2320  -38.9680   42.0030 N.am  224  GLU224     -0.1979
    117  CA        46.3810  -39.4110   40.6250 C.3   224  GLU224      0.1602
    118  C         45.1680  -39.0800   39.7690 C.2   224  GLU224      0.2287
    119  O         44.0650  -38.9200   40.2840 O.2   224  GLU224     -0.2864
    120  CB        46.7260  -40.9020   40.5450 C.3   224  GLU224      0.0415
    121  CG        45.7520  -41.8460   41.1770 C.3   224  GLU224      0.1163
    122  CD        46.2620  -43.2660   41.1350 C.2   224  GLU224      0.3649
    123  OE1       47.3310  -43.5290   41.7250 O.co2 224  GLU224     -0.2457
    124  OE2       45.5990  -44.1170   40.5080 O.co2 224  GLU224     -0.2457
    125  N         41.8920  -38.2430   37.9050 N.3   226  PRO226     -0.2102
    126  CA        41.9280  -36.8220   37.5300 C.3   226  PRO226      0.1504
    127  C         42.2160  -35.8670   38.6900 C.2   226  PRO226      0.2576
    128  O         41.5010  -35.8640   39.6930 O.2   226  PRO226     -0.2718
    129  CB        40.5380  -36.5990   36.9510 C.3   226  PRO226      0.0282
    130  CG        39.6910  -37.4210   37.8730 C.3   226  PRO226      0.0208
    131  CD        40.4950  -38.7100   38.0130 C.3   226  PRO226      0.0893
    132  N         43.2540  -35.0480   38.5380 N.am  227  PHE227     -0.1963
    133  CA        43.6410  -34.0820   39.5660 C.3   227  PHE227      0.1771
    134  C         42.5520  -33.0170   39.7040 C.2   227  PHE227      0.2619
    135  O         42.4270  -32.1310   38.8550 O.2   227  PHE227     -0.2715
    136  CB        44.9730  -33.4110   39.1890 C.3   227  PHE227      0.0574
    137  CG        46.0940  -34.3820   38.8780 C.ar  227  PHE227     -0.0200
    138  CD1       47.1500  -33.9980   38.0560 C.ar  227  PHE227     -0.0042
    139  CD2       46.0980  -35.6700   39.4030 C.ar  227  PHE227     -0.0042
    140  CE1       48.1880  -34.8800   37.7580 C.ar  227  PHE227     -0.0003
    141  CE2       47.1320  -36.5550   39.1090 C.ar  227  PHE227     -0.0003
    142  CZ        48.1770  -36.1590   38.2860 C.ar  227  PHE227     -0.0000
    143  N         41.7640  -33.1090   40.7710 N.am  228  LEU228     -0.1963
    144  CA        40.6890  -32.1510   41.0030 C.3   228  LEU228      0.1728
    145  C         41.2620  -30.8520   41.5660 C.2   228  LEU228      0.2616
    146  O         41.5720  -30.7600   42.7530 O.2   228  LEU228     -0.2715
    147  CB        39.6570  -32.7390   41.9700 C.3   228  LEU228      0.0311
    148  CG        39.1490  -34.1500   41.6450 C.3   228  LEU228      0.0022
    149  CD1       37.9650  -34.4700   42.5440 C.3   228  LEU228      0.0001
    150  CD2       38.7380  -34.2500   40.1820 C.3   228  LEU228      0.0001
    151  N         41.3960  -29.8500   40.7010 N.am  229  TRP229     -0.1960
    152  CA        41.9500  -28.5590   41.0880 C.3   229  TRP229      0.1771
    153  C         41.1060  -27.3850   40.5950 C.2   229  TRP229      0.2619
    154  O         40.7950  -27.2830   39.4070 O.2   229  TRP229     -0.2715
    155  CB        43.3600  -28.4340   40.5240 C.3   229  TRP229      0.0590
    156  CG        44.0400  -27.1440   40.8470 C.ar  229  TRP229      0.0006
    157  CD1       44.5390  -26.7570   42.0560 C.ar  229  TRP229      0.0946
    158  CD2       44.3000  -26.0710   39.9420 C.ar  229  TRP229      0.0152
    159  NE1       45.0980  -25.5070   41.9600 N.ar  229  TRP229     -0.2442
    160  CE2       44.9630  -25.0610   40.6720 C.ar  229  TRP229      0.0810
    161  CE3       44.0360  -25.8620   38.5820 C.ar  229  TRP229      0.0012
    162  CZ2       45.3680  -23.8540   40.0870 C.ar  229  TRP229      0.0191
    163  CZ3       44.4360  -24.6630   38.0000 C.ar  229  TRP229      0.0001
    164  CH2       45.0960  -23.6730   38.7540 C.ar  229  TRP229      0.0015
    165  N         40.7500  -26.4980   41.5180 N.am  230  MET230     -0.1977
    166  CA        39.9520  -25.3110   41.2090 C.3   230  MET230      0.1605
    167  C         38.8230  -25.5580   40.2000 C.2   230  MET230      0.2287
    168  O         38.8060  -24.9690   39.1150 O.2   230  MET230     -0.2864
    169  CB        40.8590  -24.1920   40.6870 C.3   230  MET230      0.0413
    170  CG        42.0670  -23.8930   41.5600 C.3   230  MET230      0.0598
    171  SD        41.6540  -23.5850   43.2810 S.3   230  MET230     -0.1393
    172  CE        42.2310  -25.1220   44.0440 C.3   230  MET230      0.0692
    173  N         42.2400  -32.0950   35.9180 N.3   234  LEU234     -0.1231
    174  CA        43.5210  -32.1040   35.2330 C.3   234  LEU234      0.1693
    175  C         44.0650  -33.5190   35.0640 C.2   234  LEU234      0.2592
    176  O         43.7900  -34.3990   35.8720 O.2   234  LEU234     -0.2718
    177  CB        44.5090  -31.2350   36.0230 C.3   234  LEU234      0.0284
    178  CG        43.9220  -29.9030   36.5230 C.3   234  LEU234      0.0019
    179  CD1       44.9050  -29.2000   37.4430 C.3   234  LEU234      0.0001
    180  CD2       43.5720  -29.0150   35.3390 C.3   234  LEU234      0.0001
    181  N         44.8330  -33.7220   34.0020 N.am  235  HIS235     -0.1962
    182  CA        45.4360  -35.0130   33.6980 C.3   235  HIS235      0.1772
    183  C         46.8240  -34.7540   33.1370 C.2   235  HIS235      0.2462
    184  O         47.1300  -33.6440   32.7180 O.2   235  HIS235     -0.2730
    185  CB        44.6080  -35.7630   32.6510 C.3   235  HIS235      0.0785
    186  CG        43.3560  -36.3850   33.1890 C.ar  235  HIS235      0.0821
    187  ND1       43.3540  -37.5810   33.8740 N.ar  235  HIS235     -0.2267
    188  CD2       42.0650  -35.9810   33.1370 C.ar  235  HIS235      0.1154
    189  CE1       42.1160  -37.8880   34.2180 C.ar  235  HIS235      0.1986
    190  NE2       41.3140  -36.9330   33.7840 N.ar  235  HIS235     -0.2212
    191  N         47.6830  -35.7800   33.1080 N.am  236  PRO236     -0.2727
    192  CA        49.0390  -35.6080   32.5830 C.3   236  PRO236      0.1402
    193  C         49.1420  -34.9130   31.2210 C.2   236  PRO236      0.2269
    194  O         50.2230  -34.4520   30.8460 O.2   236  PRO236     -0.2865
    195  CB        49.5730  -37.0370   32.5570 C.3   236  PRO236      0.0296
    196  CG        48.9550  -37.6150   33.7940 C.3   236  PRO236      0.0237
    197  CD        47.5160  -37.1250   33.6880 C.3   236  PRO236      0.0939
    198  N         46.7530  -29.2560   26.4300 N.3   318  TYR318     -0.1241
    199  CA        47.7580  -28.3550   26.9900 C.3   318  TYR318      0.1605
    200  C         48.4680  -27.5720   25.9160 C.2   318  TYR318      0.2264
    201  O         48.5710  -28.0190   24.7780 O.2   318  TYR318     -0.2867
    202  CB        48.7810  -29.1450   27.8140 C.3   318  TYR318      0.0534
    203  CG        48.2250  -29.6020   29.1400 C.ar  318  TYR318     -0.0201
    204  CD1       48.7840  -30.6780   29.8270 C.ar  318  TYR318     -0.0009
    205  CD2       47.1310  -28.9470   29.7130 C.ar  318  TYR318     -0.0009
    206  CE1       48.2610  -31.0920   31.0520 C.ar  318  TYR318      0.0417
    207  CE2       46.6020  -29.3480   30.9300 C.ar  318  TYR318      0.0417
    208  CZ        47.1670  -30.4210   31.5970 C.ar  318  TYR318      0.1957
    209  OH        46.6180  -30.8200   32.7980 O.3   318  TYR318     -0.2866
@<TRIPOS>BOND
     1   201   200    2
     2   200   199    1
     3   198   199    1
     4    23    24    1
     5    23    22    1
     6    33    32    1
     7    31    32    1
     8    31    30    1
     9   199   202    1
    10    30    29    1
    11   202   203    1
    12    22    21    1
    13    21    20    1
    14    29    26    1
    15    20    17    1
    16   203   205   ar
    17   203   204   ar
    18    11    10    2
    19    25    26    1
    20    25    18   am
    21    17    18    1
    22    17    16    1
    23    28    27    2
    24   205   207   ar
    25    26    27    1
    26   204   206   ar
    27    18    19    2
    28    10    16   am
    29    10     9    1
    30    27    34   am
    31    42    41    1
    32     8     9    1
    33   194   193    2
    34   207   208   ar
    35   206   208   ar
    36   193   192    1
    37    34    35    1
    38     9    12    1
    39   208   209    1
    40    35    36    1
    41    35    38    1
    42    41    40    1
    43    36    37    2
    44    12    13    1
    45   195   192    1
    46   195   196    1
    47   192   191    1
    48   185   186    1
    49   185   182    1
    50   184   183    2
    51    40    39    1
    52    39    38    1
    53   191   183   am
    54   191   197    1
    55   183   182    1
    56   188   186   ar
    57   188   190   ar
    58   186   187   ar
    59    13    15    1
    60    13    14    1
    61   197   196    1
    62   182   181    1
    63   190   189   ar
    64   187   189   ar
    65   181   175   am
    66    63    61    1
    67   175   174    1
    68   175   176    2
    69   174   173    1
    70   174   177    1
    71   180   178    1
    72     3     2    1
    73     3     4    2
    74    61    62    1
    75    61    58    1
    76   177   178    1
    77     2     5    1
    78     2     1    1
    79     5     6    1
    80    49    47    1
    81   105   106    2
    82   105   104    1
    83   178   179    1
    84    57    58    1
    85    58    59    1
    86   129   126    1
    87   129   130    1
    88   104   103    1
    89    43    44    1
    90     6     7    1
    91     1     7    1
    92   126   125    1
    93   126   127    1
    94    47    44    1
    95    47    48    1
    96   140   138   ar
    97   140   142   ar
    98   130   131    1
    99   125   131    1
   100   163   161   ar
   101   163   164   ar
   102   138   137   ar
   103    44    45    1
   104    59    60    2
   105   142   141   ar
   106   103    98   am
   107   132   127   am
   108   132   133    1
   109   161   158   ar
   110   127   128    2
   111   164   162   ar
   112   135   134    2
   113   137   136    1
   114   137   139   ar
   115   141   139   ar
   116   168   167    2
   117   136   133    1
   118   154   153    2
   119   133   134    1
   120    98    99    2
   121    98    97    1
   122    45    46    2
   123   134   143   am
   124   118   119    2
   125   118   117    1
   126    70    72   ar
   127    70    69   ar
   128   158   160   ar
   129   158   156   ar
   130   162   160   ar
   131    72    74   ar
   132   150   148    1
   133   167   166    1
   134    68    69    1
   135    68    65    1
   136    69    71   ar
   137   124   122   ar
   138   155   156    1
   139   155   152    1
   140   120   117    1
   141   120   121    1
   142   153   152    1
   143   153   165   am
   144   117   116    1
   145   160   159   ar
   146   169   166    1
   147   169   170    1
   148   151   152    1
   149   151   145   am
   150    97    96    1
   151    97   100    1
   152   143   144    1
   153   156   157   ar
   154    74    75    1
   155    74    73   ar
   156   101   100    1
   157    64    65    1
   158   144   145    1
   159   144   147    1
   160    87    86    2
   161    65    66    1
   162   122   121    1
   163   122   123   ar
   164    71    73   ar
   165   166   165    1
   166    88    89    1
   167    88    85    1
   168    96    86   am
   169    86    85    1
   170   170   171    1
   171   145   146    2
   172   100   102    1
   173   148   147    1
   174   148   149    1
   175   159   157   ar
   176   116   109   am
   177    89    91   ar
   178    89    90   ar
   179    91    93   ar
   180    85    84    1
   181    66    67    2
   182   110   109    2
   183    90    92   ar
   184    93    94   ar
   185   109   108    1
   186   171   172    1
   187    92    94   ar
   188    56    54    1
   189    94    95    1
   190    50    51    1
   191   111   108    1
   192   111   112    1
   193   108   107    1
   194   113   112    1
   195   113   114    1
   196    51    54    1
   197    51    52    1
   198    54    55    1
   199   114   115    1
   200    52    53    2
   201    79    78    2
   202    78    77    1
   203    80    77    1
   204    80    81    1
   205    83    81   ar
   206    77    76    1
   207    81    82   ar
