@<TRIPOS>MOLECULE
tmp/3isgB00.pdb
 149 145 0 0 0
SMALL
GASTEIGER

@<TRIPOS>ATOM
      1  N         12.9060   -5.5700   -4.3770 N.3    46  SER46      -0.1217
      2  CA        13.5590   -6.5830   -5.1670 C.3    46  SER46       0.1889
      3  C         13.0940   -7.9790   -4.9090 C.2    46  SER46       0.2288
      4  O         13.4450   -8.8820   -5.6560 O.2    46  SER46      -0.2866
      5  CB        15.0480   -6.5560   -4.9470 C.3    46  SER46       0.2089
      6  OG        15.5740   -5.3480   -5.4260 O.3    46  SER46      -0.2183
      7  N         23.4700    2.0460  -11.4280 N.3    75  GLY75      -0.1210
      8  CA        23.1790    2.4620  -10.0570 C.3    75  GLY75       0.1956
      9  C         23.9660    1.6990   -9.0220 C.2    75  GLY75       0.2611
     10  O         24.2210    2.1990   -7.9310 O.2    75  GLY75      -0.2717
     11  N         24.3180    0.4670   -9.3500 N.am   76  MET76      -0.1979
     12  CA        25.2110   -0.3170   -8.5150 C.3    76  MET76       0.1605
     13  C         26.2290   -0.9170   -9.4370 C.2    76  MET76       0.2287
     14  O         25.9010   -1.3430  -10.5340 O.2    76  MET76      -0.2864
     15  CB        24.4780   -1.4360   -7.7930 C.3    76  MET76       0.0413
     16  CG        23.4330   -0.9750   -6.8070 C.3    76  MET76       0.0598
     17  SD        22.8450   -2.3790   -5.8550 S.3    76  MET76      -0.1393
     18  CE        24.1390   -2.5360   -4.6250 C.3    76  MET76       0.0692
     19  N         25.7100   -4.1440  -11.0250 N.3    79  TRP79      -0.1241
     20  CA        24.7110   -4.1740  -12.0770 C.3    79  TRP79       0.1605
     21  C         25.3130   -3.8510  -13.4190 C.2    79  TRP79       0.2264
     22  O         24.7200   -4.1330  -14.4400 O.2    79  TRP79      -0.2867
     23  CB        23.6380   -3.1470  -11.8020 C.3    79  TRP79       0.0550
     24  CG        22.8330   -3.4550  -10.6290 C.ar   79  TRP79       0.0003
     25  CD1       22.7960   -4.6270   -9.9280 C.ar   79  TRP79       0.0946
     26  CD2       21.8710   -2.5980  -10.0510 C.ar   79  TRP79       0.0152
     27  NE1       21.8800   -4.5280   -8.9130 N.ar   79  TRP79      -0.2442
     28  CE2       21.2950   -3.2940   -8.9740 C.ar   79  TRP79       0.0810
     29  CE3       21.4490   -1.2910  -10.3250 C.ar   79  TRP79       0.0012
     30  CZ2       20.3220   -2.7350   -8.1750 C.ar   79  TRP79       0.0191
     31  CZ3       20.4690   -0.7360   -9.5270 C.ar   79  TRP79       0.0001
     32  CH2       19.9240   -1.4600   -8.4590 C.ar   79  TRP79       0.0015
     33  N         20.7740  -12.9160   -7.6470 N.3    90  GLN90      -0.1231
     34  CA        21.7940  -12.7810   -6.6430 C.3    90  GLN90       0.1698
     35  C         22.1560  -11.3370   -6.3870 C.2    90  GLN90       0.2592
     36  O         22.3470  -10.9330   -5.2470 O.2    90  GLN90      -0.2718
     37  CB        23.0180  -13.5410   -7.1090 C.3    90  GLN90       0.0381
     38  CG        24.1280  -13.6250   -6.1000 C.3    90  GLN90       0.0905
     39  CD        25.3230  -14.3570   -6.6440 C.2    90  GLN90       0.2608
     40  OE1       25.3040  -14.8730   -7.7760 O.2    90  GLN90      -0.2717
     41  NE2       26.3870  -14.4060   -5.8470 N.am   90  GLN90      -0.0878
     42  N         22.2210  -10.5450   -7.4470 N.am   91  PHE91      -0.1962
     43  CA        22.7050   -9.1890   -7.3180 C.3    91  PHE91       0.1771
     44  C         21.6090   -8.1850   -7.5030 C.2    91  PHE91       0.2620
     45  O         21.8550   -6.9920   -7.5680 O.2    91  PHE91      -0.2715
     46  CB        23.8320   -8.9320   -8.2900 C.3    91  PHE91       0.0574
     47  CG        25.0030   -9.8240   -8.0730 C.ar   91  PHE91      -0.0200
     48  CD1       25.6710   -9.8270   -6.8510 C.ar   91  PHE91      -0.0042
     49  CD2       25.4380  -10.6680   -9.0700 C.ar   91  PHE91      -0.0042
     50  CE1       26.7670  -10.6670   -6.6460 C.ar   91  PHE91      -0.0003
     51  CE2       26.5390  -11.5030   -8.8660 C.ar   91  PHE91      -0.0003
     52  CZ        27.1930  -11.4950   -7.6520 C.ar   91  PHE91      -0.0000
     53  N         20.3840   -8.6880   -7.5610 N.am   92  SER92      -0.1950
     54  CA        19.2030   -7.8230   -7.6050 C.3    92  SER92       0.1924
     55  C         19.3100   -6.8570   -8.7530 C.2    92  SER92       0.2314
     56  O         19.1740   -5.6470   -8.5730 O.2    92  SER92      -0.2863
     57  CB        19.0620   -7.0060   -6.3290 C.3    92  SER92       0.2116
     58  OG        18.6900   -7.8120   -5.2500 O.3    92  SER92      -0.2180
     59  N         18.1590   -4.8240  -11.1690 N.3    94  VAL94      -0.1245
     60  CA        16.8540   -4.2500  -11.4990 C.3    94  VAL94       0.1561
     61  C         16.6760   -4.0990  -12.9940 C.2    94  VAL94       0.2260
     62  O         15.5880   -4.2880  -13.5240 O.2    94  VAL94      -0.2867
     63  CB        16.6700   -2.8700  -10.8630 C.3    94  VAL94       0.0252
     64  CG1       15.2310   -2.4070  -11.0050 C.3    94  VAL94       0.0019
     65  CG2       17.0360   -2.9160   -9.4390 C.3    94  VAL94       0.0019
     66  N          7.0340   -2.3940   -8.7310 N.3   135  TRP135     -0.1227
     67  CA         7.3940   -3.1480   -7.5370 C.3   135  TRP135      0.1737
     68  C          8.3870   -2.4340   -6.6480 C.2   135  TRP135      0.2595
     69  O          8.7390   -2.9320   -5.5920 O.2   135  TRP135     -0.2718
     70  CB         7.9760   -4.4910   -7.9420 C.3   135  TRP135      0.0564
     71  CG         9.2390   -4.4180   -8.7300 C.ar  135  TRP135      0.0003
     72  CD1       10.4970   -4.6040   -8.2560 C.ar  135  TRP135      0.0946
     73  CD2        9.3610   -4.2130  -10.1340 C.ar  135  TRP135      0.0152
     74  NE1       11.4110   -4.5060   -9.2730 N.ar  135  TRP135     -0.2442
     75  CE2       10.7380   -4.2650  -10.4400 C.ar  135  TRP135      0.0810
     76  CE3        8.4460   -3.9810  -11.1600 C.ar  135  TRP135      0.0012
     77  CZ2       11.2180   -4.0850  -11.7290 C.ar  135  TRP135      0.0191
     78  CZ3        8.9180   -3.8190  -12.4440 C.ar  135  TRP135      0.0001
     79  CH2       10.2980   -3.8640  -12.7190 C.ar  135  TRP135      0.0015
     80  N          8.7780   -1.2370   -7.0580 N.am  136  LEU136     -0.1980
     81  CA         9.8780   -0.5330   -6.4340 C.3   136  LEU136      0.1596
     82  C          9.3560    0.6500   -5.6500 C.2   136  LEU136      0.2287
     83  O          9.3830    1.7760   -6.1240 O.2   136  LEU136     -0.2864
     84  CB        10.8510   -0.0700   -7.5130 C.3   136  LEU136      0.0297
     85  CG        11.5520   -1.1940   -8.2600 C.3   136  LEU136      0.0022
     86  CD1       12.3780   -0.6060   -9.3940 C.3   136  LEU136      0.0001
     87  CD2       12.4230   -1.9760   -7.3010 C.3   136  LEU136      0.0001
     88  N         15.9680  -13.8720   -1.0640 N.3   187  LYS187     -0.1231
     89  CA        16.0670  -12.6760   -1.8490 C.3   187  LYS187      0.1693
     90  C         15.8370  -11.5130   -0.9420 C.2   187  LYS187      0.2593
     91  O         14.9140  -11.4980   -0.1590 O.2   187  LYS187     -0.2718
     92  CB        15.0310  -12.6670   -2.9630 C.3   187  LYS187      0.0285
     93  CG        15.1360  -11.4630   -3.8600 C.3   187  LYS187      0.0035
     94  CD        16.3800  -11.5010   -4.7360 C.3   187  LYS187      0.0206
     95  CE        16.6000  -10.1610   -5.3730 C.3   187  LYS187      0.1093
     96  NZ        17.2040   -9.2120   -4.4210 N.3   187  LYS187     -0.1314
     97  N         16.6980  -10.5290   -1.0690 N.am  188  THR188     -0.1939
     98  CA        16.5750   -9.3060   -0.3460 C.3   188  THR188      0.2028
     99  C         15.7670   -8.3310   -1.1630 C.2   188  THR188      0.2643
    100  O         15.6210   -8.4500   -2.3790 O.2   188  THR188     -0.2714
    101  CB        17.9390   -8.6710   -0.1440 C.3   188  THR188      0.1808
    102  OG1       18.6670   -8.8080   -1.3620 O.3   188  THR188     -0.2208
    103  CG2       18.7010   -9.3700    0.9600 C.3   188  THR188      0.0379
    104  N         15.2320   -7.3490   -0.4720 N.am  189  GLY189     -0.1939
    105  CA        14.6360   -6.2270   -1.1450 C.3   189  GLY189      0.2014
    106  C         14.7330   -5.0660   -0.2130 C.2   189  GLY189      0.2638
    107  O         14.6680   -5.2160    0.9950 O.2   189  GLY189     -0.2714
    108  N         14.9130   -3.8880   -0.7590 N.am  190  ALA190     -0.1977
    109  CA        15.0160   -2.7190    0.0580 C.3   190  ALA190      0.1597
    110  C         14.5660   -1.5710   -0.7620 C.2   190  ALA190      0.2287
    111  O         14.6690   -1.5960   -1.9700 O.2   190  ALA190     -0.2864
    112  CB        16.4210   -2.5040    0.5300 C.3   190  ALA190      0.0319
    113  N         21.5800    5.6030    4.2190 N.3   228  ASN228     -0.1225
    114  CA        22.2040    4.4470    3.6080 C.3   228  ASN228      0.1785
    115  C         21.2000    3.3250    3.6150 C.2   228  ASN228      0.2597
    116  O         20.7450    2.9070    4.6700 O.2   228  ASN228     -0.2718
    117  CB        23.4450    4.0560    4.4010 C.3   228  ASN228      0.1169
    118  CG        24.3540    3.1410    3.6390 C.2   228  ASN228      0.2627
    119  OD1       24.3460    3.1150    2.4080 O.2   228  ASN228     -0.2716
    120  ND2       25.1520    2.3720    4.3680 N.am  228  ASN228     -0.0877
    121  N         20.8520    2.8540    2.4280 N.am  229  LEU229     -0.1966
    122  CA        19.8140    1.8640    2.2800 C.3   229  LEU229      0.1728
    123  C         20.3590    0.5300    2.7500 C.2   229  LEU229      0.2616
    124  O         21.0130   -0.1870    1.9940 O.2   229  LEU229     -0.2715
    125  CB        19.3810    1.8140    0.8290 C.3   229  LEU229      0.0311
    126  CG        18.1670    0.9540    0.5170 C.3   229  LEU229      0.0022
    127  CD1       16.9340    1.4120    1.2970 C.3   229  LEU229      0.0001
    128  CD2       17.9210    1.0330   -0.9560 C.3   229  LEU229      0.0001
    129  N         20.0900    0.2140    4.0080 N.am  230  THR230     -0.1951
    130  CA        20.6600   -0.9850    4.6160 C.3   230  THR230      0.1897
    131  C         19.6040   -1.9110    5.1600 C.2   230  THR230      0.2313
    132  O         19.9160   -2.9060    5.7910 O.2   230  THR230     -0.2863
    133  CB        21.5970   -0.6560    5.7810 C.3   230  THR230      0.1794
    134  OG1       20.8830    0.0930    6.7690 O.3   230  THR230     -0.2208
    135  CG2       22.8180    0.1030    5.2940 C.3   230  THR230      0.0378
    136  N         17.6340   -4.0610    3.8440 N.3   232  SER232     -0.1202
    137  CA        17.6680   -5.4670    3.4600 C.3   232  SER232      0.2020
    138  C         18.8690   -6.1650    4.0600 C.2   232  SER232      0.2618
    139  O         18.8070   -7.3470    4.3500 O.2   232  SER232     -0.2717
    140  CB        17.6530   -5.6290    1.9540 C.3   232  SER232      0.2103
    141  OG        18.7670   -5.0040    1.3700 O.3   232  SER232     -0.2182
    142  N         19.9630   -5.4390    4.2490 N.am  233  ILE233     -0.1979
    143  CA        21.1270   -6.0140    4.8960 C.3   233  ILE233      0.1595
    144  C         20.7440   -6.4150    6.3110 C.2   233  ILE233      0.2287
    145  O         21.0270   -7.5250    6.7660 O.2   233  ILE233     -0.2864
    146  CB        22.2890   -5.0080    4.8930 C.3   233  ILE233      0.0276
    147  CG1       22.7040   -4.7310    3.4470 C.3   233  ILE233      0.0022
    148  CG2       23.4600   -5.5220    5.7180 C.3   233  ILE233      0.0022
    149  CD1       23.7010   -3.5920    3.3020 C.3   233  ILE233      0.0001
@<TRIPOS>BOND
     1    22    21    2
     2    62    61    2
     3    21    20    1
     4    61    60    1
     5    79    78   ar
     6    79    77   ar
     7    78    76   ar
     8    20    23    1
     9    20    19    1
    10    23    24    1
    11    77    75   ar
    12    60    59    1
    13    60    63    1
    14     7     8    1
    15    76    73   ar
    16    64    63    1
    17    63    65    1
    18    24    26   ar
    19    24    25   ar
    20    14    13    2
    21    75    73   ar
    22    75    74   ar
    23    29    26   ar
    24    29    31   ar
    25    73    71   ar
    26     8     9    1
    27    26    28   ar
    28    25    27   ar
    29    31    32   ar
    30    13    12    1
    31    86    85    1
    32    11     9   am
    33    11    12    1
    34    74    72   ar
    35    49    51   ar
    36    49    47   ar
    37     9    10    2
    38    28    27   ar
    39    28    30   ar
    40    51    52   ar
    41    55    56    2
    42    55    54    1
    43    66    67    1
    44    71    72   ar
    45    71    70    1
    46    12    15    1
    47    32    30   ar
    48    46    47    1
    49    46    43    1
    50    85    84    1
    51    85    87    1
    52    47    48   ar
    53    70    67    1
    54    15    16    1
    55    40    39    2
    56    52    50   ar
    57    33    34    1
    58    54    53    1
    59    54    57    1
    60    45    44    2
    61    53    44   am
    62    67    68    1
    63    84    81    1
    64    44    43    1
    65    42    43    1
    66    42    35   am
    67    37    34    1
    68    37    38    1
    69    80    68   am
    70    80    81    1
    71    48    50   ar
    72    16    17    1
    73    68    69    2
    74    39    38    1
    75    39    41   am
    76    34    35    1
    77    81    82    1
    78    35    36    2
    79    57    58    1
    80    83    82    2
    81    17    18    1
    82     4     3    2
    83     6     5    1
    84    95    94    1
    85    95    96    1
    86     2     5    1
    87     2     3    1
    88     2     1    1
    89    94    93    1
    90    93    92    1
    91    92    89    1
    92   100    99    2
    93   111   110    2
    94    89    88    1
    95    89    90    1
    96   102   101    1
    97    99   104   am
    98    99    98    1
    99   105   104    1
   100   105   106    1
   101    97    90   am
   102    97    98    1
   103   128   126    1
   104    90    91    2
   105   110   109    1
   106   108   106   am
   107   108   109    1
   108    98   101    1
   109   106   107    2
   110   101   103    1
   111   109   112    1
   112   126   125    1
   113   126   127    1
   114   125   122    1
   115   141   140    1
   116   140   137    1
   117   124   123    2
   118   122   121    1
   119   122   123    1
   120   119   118    2
   121   121   115   am
   122   123   129   am
   123   149   147    1
   124   147   146    1
   125   137   136    1
   126   137   138    1
   127   114   115    1
   128   114   113    1
   129   114   117    1
   130   115   116    2
   131   118   120   am
   132   118   117    1
   133   129   130    1
   134   138   142   am
   135   138   139    2
   136   142   143    1
   137   130   131    1
   138   130   133    1
   139   146   143    1
   140   146   148    1
   141   143   144    1
   142   131   132    2
   143   135   133    1
   144   133   134    1
   145   144   145    2
