@<TRIPOS>MOLECULE
tmp/3isgA00.pdb
 143 137 0 0 0
SMALL
GASTEIGER

@<TRIPOS>ATOM
      1  N         -2.2760   13.9630  -42.4660 N.3    45  ASP45      -0.1225
      2  CA        -3.5740   14.3170  -41.9220 C.3    45  ASP45       0.1805
      3  C         -4.1810   13.1060  -41.2680 C.2    45  ASP45       0.2598
      4  O         -3.4930   12.4140  -40.5370 O.2    45  ASP45      -0.2718
      5  CB        -4.4290   14.9660  -42.9990 C.3    45  ASP45       0.1424
      6  CG        -3.7710   16.1950  -43.5480 C.2    45  ASP45       0.3668
      7  OD1       -3.0070   16.8140  -42.7930 O.co2  45  ASP45      -0.2456
      8  OD2       -3.9990   16.5250  -44.7200 O.co2  45  ASP45      -0.2456
      9  N         -5.4520   12.8370  -41.5210 N.am   46  SER46      -0.1952
     10  CA        -6.1030   11.8110  -40.7600 C.3    46  SER46       0.1924
     11  C         -5.6030   10.4500  -41.0670 C.2    46  SER46       0.2314
     12  O         -5.9350    9.5300  -40.3520 O.2    46  SER46      -0.2863
     13  CB        -7.5790   11.7990  -41.0160 C.3    46  SER46       0.2116
     14  OG        -8.1240   12.9890  -40.5060 O.3    46  SER46      -0.2180
     15  N        -16.2540   20.4400  -33.9900 N.3    75  GLY75      -0.1210
     16  CA       -16.0480   20.9650  -35.3400 C.3    75  GLY75       0.1956
     17  C        -16.7240   20.1820  -36.4430 C.2    75  GLY75       0.2611
     18  O        -16.9210   20.6960  -37.5450 O.2    75  GLY75      -0.2717
     19  N        -17.0250   18.9190  -36.1620 N.am   76  MET76      -0.1979
     20  CA       -17.8480   18.1030  -37.0430 C.3    76  MET76       0.1605
     21  C        -18.8460   17.4220  -36.1400 C.2    76  MET76       0.2287
     22  O        -18.4870   16.9310  -35.0730 O.2    76  MET76      -0.2864
     23  CB       -17.0310   17.0430  -37.7820 C.3    76  MET76       0.0413
     24  CG       -16.1860   17.5570  -38.9370 C.3    76  MET76       0.0598
     25  SD       -15.5030   16.1910  -39.9030 S.3    76  MET76      -0.1393
     26  CE       -16.9260   15.7000  -40.8780 C.3    76  MET76       0.0692
     27  N        -18.1950   14.1150  -34.6330 N.3    79  TRP79      -0.1241
     28  CA       -17.1960   14.0590  -33.5970 C.3    79  TRP79       0.1605
     29  C        -17.7680   14.3510  -32.2370 C.2    79  TRP79       0.2264
     30  O        -17.1370   14.0910  -31.2400 O.2    79  TRP79      -0.2867
     31  CB       -16.1180   15.0840  -33.8760 C.3    79  TRP79       0.0550
     32  CG       -15.3320   14.7980  -35.0740 C.ar   79  TRP79       0.0003
     33  CD1      -15.3030   13.6410  -35.7880 C.ar   79  TRP79       0.0946
     34  CD2      -14.4060   15.6870  -35.6840 C.ar   79  TRP79       0.0152
     35  NE1      -14.4210   13.7650  -36.8440 N.ar   79  TRP79      -0.2442
     36  CE2      -13.8450   15.0070  -36.7830 C.ar   79  TRP79       0.0810
     37  CE3      -13.9980   16.9960  -35.4100 C.ar   79  TRP79       0.0012
     38  CZ2      -12.9040   15.5950  -37.6130 C.ar   79  TRP79       0.0191
     39  CZ3      -13.0500   17.5800  -36.2340 C.ar   79  TRP79       0.0001
     40  CH2      -12.5210   16.8810  -37.3250 C.ar   79  TRP79       0.0015
     41  N        -13.3060    5.4920  -38.3380 N.3    90  GLN90      -0.1231
     42  CA       -14.3330    5.6380  -39.3440 C.3    90  GLN90       0.1698
     43  C        -14.6870    7.0850  -39.5580 C.2    90  GLN90       0.2592
     44  O        -14.9210    7.5060  -40.6800 O.2    90  GLN90      -0.2718
     45  CB       -15.5540    4.8790  -38.8840 C.3    90  GLN90       0.0381
     46  CG       -16.7050    4.8870  -39.8280 C.3    90  GLN90       0.0905
     47  CD       -17.8660    4.1040  -39.2810 C.2    90  GLN90       0.2608
     48  OE1      -17.7800    3.5080  -38.1970 O.2    90  GLN90      -0.2717
     49  NE2      -18.9680    4.0890  -40.0280 N.am   90  GLN90      -0.0878
     50  N        -14.7550    7.8460  -38.4800 N.am   91  PHE91      -0.1962
     51  CA       -15.2280    9.2020  -38.5650 C.3    91  PHE91       0.1771
     52  C        -14.1130   10.1850  -38.3760 C.2    91  PHE91       0.2620
     53  O        -14.3470   11.3750  -38.2530 O.2    91  PHE91      -0.2715
     54  CB       -16.3300    9.4350  -37.5520 C.3    91  PHE91       0.0574
     55  CG       -17.5080    8.5500  -37.7620 C.ar   91  PHE91      -0.0200
     56  CD1      -18.2220    8.5910  -38.9580 C.ar   91  PHE91      -0.0042
     57  CD2      -17.9200    7.6850  -36.7770 C.ar   91  PHE91      -0.0042
     58  CE1      -19.3280    7.7640  -39.1530 C.ar   91  PHE91      -0.0003
     59  CE2      -19.0230    6.8600  -36.9620 C.ar   91  PHE91      -0.0003
     60  CZ       -19.7230    6.9030  -38.1530 C.ar   91  PHE91      -0.0000
     61  N        -12.8860    9.6710  -38.3580 N.am   92  SER92      -0.1950
     62  CA       -11.7160   10.4920  -38.3110 C.3    92  SER92       0.1924
     63  C        -11.8010   11.4700  -37.1410 C.2    92  SER92       0.2314
     64  O        -11.6960   12.6780  -37.3050 O.2    92  SER92      -0.2863
     65  CB       -11.5820   11.1980  -39.6440 C.3    92  SER92       0.2116
     66  OG       -10.2400   11.4530  -39.8780 O.3    92  SER92      -0.2180
     67  N        -10.6030   13.4460  -34.6980 N.3    94  VAL94      -0.1245
     68  CA        -9.2890   13.9400  -34.3750 C.3    94  VAL94       0.1561
     69  C         -9.1360   14.1570  -32.8720 C.2    94  VAL94       0.2260
     70  O         -8.0510   13.9690  -32.3310 O.2    94  VAL94      -0.2867
     71  CB        -8.9680   15.1840  -35.1900 C.3    94  VAL94       0.0252
     72  CG1       -9.9040   16.2910  -34.8520 C.3    94  VAL94       0.0019
     73  CG2       -7.5260   15.5980  -34.9820 C.3    94  VAL94       0.0019
     74  N         -1.3470   17.1440  -38.7710 N.3   136  LEU136     -0.1245
     75  CA        -2.4360   17.8840  -39.3950 C.3   136  LEU136      0.1561
     76  C         -1.8660   19.0600  -40.1440 C.2   136  LEU136      0.2260
     77  O         -1.7480   20.1440  -39.5960 O.2   136  LEU136     -0.2867
     78  CB        -3.4040   18.3650  -38.3180 C.3   136  LEU136      0.0270
     79  CG        -4.0560   17.2260  -37.5550 C.3   136  LEU136      0.0019
     80  CD1       -4.8290   17.7550  -36.3640 C.3   136  LEU136      0.0001
     81  CD2       -4.9470   16.4760  -38.4860 C.3   136  LEU136      0.0001
     82  N         -8.4560    4.5740  -45.0370 N.3   187  LYS187     -0.1231
     83  CA        -8.5590    5.7490  -44.2240 C.3   187  LYS187      0.1693
     84  C         -8.3320    6.9390  -45.0860 C.2   187  LYS187      0.2593
     85  O         -7.4280    6.9730  -45.8850 O.2   187  LYS187     -0.2718
     86  CB        -7.5220    5.7410  -43.1100 C.3   187  LYS187      0.0285
     87  CG        -7.6250    6.9350  -42.1990 C.3   187  LYS187      0.0035
     88  CD        -8.8500    6.8510  -41.3130 C.3   187  LYS187      0.0206
     89  CE        -9.0830    8.1720  -40.6260 C.3   187  LYS187      0.1093
     90  NZ        -9.7300    9.1390  -41.5430 N.3   187  LYS187     -0.1314
     91  N         -9.2100    7.9030  -44.9260 N.am  188  THR188     -0.1939
     92  CA        -9.1010    9.1460  -45.6250 C.3   188  THR188      0.2028
     93  C         -8.2930   10.1250  -44.8080 C.2   188  THR188      0.2643
     94  O         -8.1540   10.0050  -43.5910 O.2   188  THR188     -0.2714
     95  CB       -10.4640    9.7720  -45.8050 C.3   188  THR188      0.1808
     96  OG1      -11.1800    9.6290  -44.5840 O.3   188  THR188     -0.2208
     97  CG2      -11.2550    9.0830  -46.9070 C.3   188  THR188      0.0379
     98  N         -7.7620   11.1200  -45.4850 N.am  189  GLY189     -0.1939
     99  CA        -7.1640   12.2230  -44.7990 C.3   189  GLY189      0.2014
    100  C         -7.3090   13.3940  -45.7120 C.2   189  GLY189      0.2638
    101  O         -7.2620   13.2720  -46.9240 O.2   189  GLY189     -0.2714
    102  N         -7.4850   14.5500  -45.1280 N.am  190  ALA190     -0.1977
    103  CA        -7.6200   15.7600  -45.9110 C.3   190  ALA190      0.1597
    104  C         -7.1640   16.9040  -45.0810 C.2   190  ALA190      0.2287
    105  O         -7.2850   16.8860  -43.8640 O.2   190  ALA190     -0.2864
    106  CB        -9.0440   15.9730  -46.3380 C.3   190  ALA190      0.0319
    107  N        -14.3040   24.0400  -49.8130 N.3   228  ASN228     -0.1225
    108  CA       -14.8950   22.8330  -49.2540 C.3   228  ASN228      0.1785
    109  C        -13.8480   21.7420  -49.2630 C.2   228  ASN228      0.2597
    110  O        -13.3640   21.3450  -50.3160 O.2   228  ASN228     -0.2718
    111  CB       -16.1110   22.3700  -50.0610 C.3   228  ASN228      0.1169
    112  CG       -17.1770   23.4350  -50.1880 C.2   228  ASN228      0.2627
    113  OD1      -18.2240   23.3510  -49.5500 O.2   228  ASN228     -0.2716
    114  ND2      -16.9220   24.4410  -51.0190 N.am  228  ASN228     -0.0877
    115  N        -13.4920   21.2760  -48.0770 N.am  229  LEU229     -0.1966
    116  CA       -12.4570   20.2830  -47.9380 C.3   229  LEU229      0.1728
    117  C        -13.0070   18.9490  -48.4100 C.2   229  LEU229      0.2616
    118  O        -13.6840   18.2440  -47.6590 O.2   229  LEU229     -0.2715
    119  CB       -12.0000   20.2410  -46.4820 C.3   229  LEU229      0.0311
    120  CG       -10.7360   19.4490  -46.1650 C.3   229  LEU229      0.0022
    121  CD1       -9.5350   19.8830  -46.9910 C.3   229  LEU229      0.0001
    122  CD2      -10.4450   19.5620  -44.6940 C.3   229  LEU229      0.0001
    123  N        -12.7420   18.6350  -49.6730 N.am  230  THR230     -0.1951
    124  CA       -13.3040   17.4490  -50.3150 C.3   230  THR230      0.1897
    125  C        -12.2340   16.5680  -50.9090 C.2   230  THR230      0.2313
    126  O        -12.5260   15.5870  -51.5850 O.2   230  THR230     -0.2863
    127  CB       -14.2360   17.8090  -51.4770 C.3   230  THR230      0.1794
    128  OG1      -13.5230   18.5810  -52.4510 O.3   230  THR230     -0.2208
    129  CG2      -15.4570   18.5680  -50.9660 C.3   230  THR230      0.0378
    130  N        -10.2000   14.4070  -49.6900 N.3   232  SER232     -0.1202
    131  CA       -10.2290   13.0020  -49.3180 C.3   232  SER232      0.2020
    132  C        -11.4270   12.3010  -49.9300 C.2   232  SER232      0.2618
    133  O        -11.3320   11.1370  -50.2790 O.2   232  SER232     -0.2717
    134  CB       -10.2650   12.8600  -47.8160 C.3   232  SER232      0.2103
    135  OG       -11.4240   13.4490  -47.2990 O.3   232  SER232     -0.2182
    136  N        -12.5630   12.9900  -50.0330 N.am  233  ILE233     -0.1979
    137  CA       -13.7200   12.4340  -50.7280 C.3   233  ILE233      0.1595
    138  C        -13.3380   12.0690  -52.1600 C.2   233  ILE233      0.2287
    139  O        -13.6040   10.9640  -52.6320 O.2   233  ILE233     -0.2864
    140  CB       -14.8870   13.4410  -50.7260 C.3   233  ILE233      0.0276
    141  CG1      -15.3080   13.6870  -49.2730 C.3   233  ILE233      0.0022
    142  CG2      -16.0460   12.9260  -51.5570 C.3   233  ILE233      0.0022
    143  CD1      -16.3170   14.7950  -49.0910 C.3   233  ILE233      0.0001
@<TRIPOS>BOND
     1   139   138    2
     2   128   127    1
     3   138   137    1
     4   126   125    2
     5   142   140    1
     6   127   129    1
     7   127   124    1
     8   114   112   am
     9   125   124    1
    10   137   140    1
    11   137   136    1
    12   140   141    1
    13   110   109    2
    14   124   123    1
    15   133   132    2
    16   112   111    1
    17   112   113    2
    18   111   108    1
    19   136   132   am
    20   132   131    1
    21   107   108    1
    22   130   131    1
    23   123   117   am
    24   131   134    1
    25   141   143    1
    26   109   108    1
    27   109   115   am
    28   117   116    1
    29   117   118    2
    30   115   116    1
    31   116   119    1
    32   134   135    1
    33   121   120    1
    34   101   100    2
    35    97    95    1
    36   119   120    1
    37   106   103    1
    38   120   122    1
    39   103   102    1
    40   103   104    1
    41    85    84    2
    42    95    92    1
    43    95    96    1
    44   100   102   am
    45   100    99    1
    46    92    91    1
    47    92    93    1
    48    98    93   am
    49    98    99    1
    50    84    91   am
    51    84    83    1
    52   104   105    2
    53    82    83    1
    54    93    94    2
    55     8     6   ar
    56    83    86    1
    57     6     5    1
    58     6     7   ar
    59    86    87    1
    60     5     2    1
    61     1     2    1
    62    87    88    1
    63     2     3    1
    64    90    89    1
    65     9     3   am
    66     9    10    1
    67    88    89    1
    68     3     4    2
    69    11    10    1
    70    11    12    2
    71    13    10    1
    72    13    14    1
    73    26    25    1
    74    44    43    2
    75    76    77    2
    76    76    75    1
    77    49    47   am
    78    25    24    1
    79    66    65    1
    80    46    47    1
    81    46    45    1
    82    65    62    1
    83    43    42    1
    84    43    50   am
    85    75    74    1
    86    75    78    1
    87    42    45    1
    88    42    41    1
    89    47    48    2
    90    58    56   ar
    91    58    60   ar
    92    56    55   ar
    93    24    23    1
    94    51    50    1
    95    51    52    1
    96    51    54    1
    97    81    79    1
    98    52    61   am
    99    52    53    2
   100    61    62    1
   101    78    79    1
   102    62    63    1
   103    60    59   ar
   104    23    20    1
   105    55    54    1
   106    55    57   ar
   107    38    40   ar
   108    38    36   ar
   109    79    80    1
   110    18    17    2
   111    40    39   ar
   112    64    63    2
   113    20    19    1
   114    20    21    1
   115    59    57   ar
   116    35    36   ar
   117    35    33   ar
   118    36    34   ar
   119    17    19   am
   120    17    16    1
   121    39    37   ar
   122    21    22    2
   123    33    32   ar
   124    34    37   ar
   125    34    32   ar
   126    16    15    1
   127    71    73    1
   128    71    72    1
   129    71    68    1
   130    32    31    1
   131    67    68    1
   132    27    28    1
   133    68    69    1
   134    31    28    1
   135    28    29    1
   136    69    70    2
   137    29    30    2
