@<TRIPOS>MOLECULE
tmp/3isiA00.pdb
 145 141 0 0 0
SMALL
GASTEIGER

@<TRIPOS>ATOM
      1  N        -13.4510   29.4780   -3.1390 N.3    22  ASP22      -0.1239
      2  CA       -14.6330   29.9410   -2.3770 C.3    22  ASP22       0.1674
      3  C        -15.9190   29.1690   -2.5880 C.2    22  ASP22       0.2266
      4  O        -16.9980   29.7350   -2.4050 O.2    22  ASP22      -0.2867
      5  CB       -14.9700   31.4050   -2.6800 C.3    22  ASP22       0.1410
      6  CG       -14.1850   32.3500   -1.8420 C.2    22  ASP22       0.3668
      7  OD1      -13.5010   33.2160   -2.4560 O.co2  22  ASP22      -0.2456
      8  OD2      -14.2530   32.2250   -0.5830 O.co2  22  ASP22      -0.2456
      9  N        -18.5570   29.6290    0.2480 N.3    25  TRP25      -0.1241
     10  CA       -19.3290   30.8400    0.0440 C.3    25  TRP25       0.1605
     11  C        -20.3660   30.7010   -1.0950 C.2    25  TRP25       0.2264
     12  O        -21.5110   31.1280   -0.9360 O.2    25  TRP25      -0.2867
     13  CB       -18.4350   32.0710   -0.1900 C.3    25  TRP25       0.0550
     14  CG       -19.2500   33.3280   -0.3120 C.ar   25  TRP25       0.0003
     15  CD1      -19.5690   33.9990   -1.4760 C.ar   25  TRP25       0.0946
     16  CD2      -19.8990   34.0460    0.7540 C.ar   25  TRP25       0.0152
     17  NE1      -20.3380   35.0940   -1.1850 N.ar   25  TRP25      -0.2442
     18  CE2      -20.5630   35.1440    0.1690 C.ar   25  TRP25       0.0810
     19  CE3      -19.9540   33.8870    2.1500 C.ar   25  TRP25       0.0012
     20  CZ2      -21.2730   36.0740    0.9290 C.ar   25  TRP25       0.0191
     21  CZ3      -20.6690   34.8180    2.8990 C.ar   25  TRP25       0.0001
     22  CH2      -21.3290   35.8790    2.2840 C.ar   25  TRP25       0.0015
     23  N        -14.4400   32.0800    4.0810 N.3    68  TYR68      -0.1241
     24  CA       -14.7990   33.4880    3.9640 C.3    68  TYR68       0.1605
     25  C        -16.1880   33.8030    4.5180 C.2    68  TYR68       0.2264
     26  O        -17.1520   33.0350    4.2890 O.2    68  TYR68      -0.2867
     27  CB       -14.7850   33.9180    2.4750 C.3    68  TYR68       0.0534
     28  CG       -15.4000   35.2820    2.2460 C.ar   68  TYR68      -0.0201
     29  CD1      -16.6760   35.4050    1.6860 C.ar   68  TYR68      -0.0009
     30  CD2      -14.7500   36.4310    2.6560 C.ar   68  TYR68      -0.0009
     31  CE1      -17.2760   36.6650    1.4950 C.ar   68  TYR68       0.0417
     32  CE2      -15.3350   37.7210    2.4470 C.ar   68  TYR68       0.0417
     33  CZ       -16.6070   37.7990    1.8860 C.ar   68  TYR68       0.1957
     34  OH       -17.1820   39.0140    1.6670 O.3    68  TYR68      -0.2866
     35  N        -11.0430   33.9270    5.8210 N.3   123  GLU123     -0.1245
     36  CA       -10.6910   35.0280    4.9590 C.3   123  GLU123      0.1567
     37  C        -11.0250   36.4070    5.5480 C.2   123  GLU123      0.2260
     38  O        -12.0630   36.9900    5.2550 O.2   123  GLU123     -0.2867
     39  CB       -11.2170   34.8250    3.5110 C.3   123  GLU123      0.0388
     40  CG       -10.7490   36.0410    2.6640 C.3   123  GLU123      0.1160
     41  CD       -11.0720   35.8240    1.2030 C.2   123  GLU123      0.3649
     42  OE1      -11.8570   34.9130    0.8770 O.co2 123  GLU123     -0.2457
     43  OE2      -10.5250   36.5370    0.4040 O.co2 123  GLU123     -0.2457
     44  N        -10.2110   41.2840    4.8910 N.3   150  HIS150     -0.1226
     45  CA       -10.8240   41.0690    3.5780 C.3   150  HIS150      0.1752
     46  C        -10.7250   42.3900    2.8640 C.2   150  HIS150      0.2596
     47  O         -9.6600   43.0290    2.9300 O.2   150  HIS150     -0.2718
     48  CB       -12.2550   40.4420    3.6370 C.3   150  HIS150      0.0759
     49  CG       -12.8140   40.1270    2.2880 C.ar  150  HIS150      0.0818
     50  ND1      -13.8840   40.8060    1.7530 N.ar  150  HIS150     -0.2268
     51  CD2      -12.3880   39.2810    1.3200 C.ar  150  HIS150      0.1154
     52  CE1      -14.1160   40.3660    0.5250 C.ar  150  HIS150      0.1986
     53  NE2      -13.2200   39.4390    0.2390 N.ar  150  HIS150     -0.2212
     54  N        -11.8120   42.8510    2.2460 N.am  151  ASN151     -0.1974
     55  CA       -11.8160   44.0890    1.4480 C.3   151  ASN151      0.1688
     56  C        -11.8010   45.4260    2.2510 C.2   151  ASN151      0.2292
     57  O        -11.5000   46.4610    1.6930 O.2   151  ASN151     -0.2864
     58  CB       -13.0020   44.0880    0.4960 C.3   151  ASN151      0.1181
     59  CG       -12.7620   43.2820   -0.7950 C.2   151  ASN151      0.2629
     60  OD1      -13.7140   43.0550   -1.5440 O.2   151  ASN151     -0.2716
     61  ND2      -11.5350   42.8650   -1.0670 N.am  151  ASN151     -0.0877
     62  N         -5.1780   40.3600    0.0240 N.3   191  HIS191     -0.1241
     63  CA        -6.0960   41.4130    0.5040 C.3   191  HIS191      0.1621
     64  C         -5.5490   42.5360    1.4050 C.2   191  HIS191      0.2264
     65  O         -6.2020   43.5610    1.4980 O.2   191  HIS191     -0.2867
     66  CB        -7.3270   40.8080    1.2170 C.3   191  HIS191      0.0745
     67  CG        -8.3410   40.2130    0.2840 C.ar  191  HIS191      0.0817
     68  ND1       -9.3030   40.9680   -0.3640 N.ar  191  HIS191     -0.2268
     69  CD2       -8.5590   38.9290   -0.0860 C.ar  191  HIS191      0.1154
     70  CE1      -10.0550   40.1800   -1.1090 C.ar  191  HIS191      0.1986
     71  NE2       -9.6280   38.9360   -0.9560 N.ar  191  HIS191     -0.2212
     72  N         -3.9500   34.2010   -2.6690 N.3   212  HIS212     -0.1241
     73  CA        -4.4740   34.5460   -4.0190 C.3   212  HIS212      0.1621
     74  C         -4.0990   36.0100   -4.3340 C.2   212  HIS212      0.2264
     75  O         -4.9100   36.9450   -4.2310 O.2   212  HIS212     -0.2867
     76  CB        -5.9840   34.1680   -4.2300 C.3   212  HIS212      0.0745
     77  CG        -6.9200   34.7780   -3.2190 C.ar  212  HIS212      0.0817
     78  ND1       -6.7520   34.6290   -1.8490 N.ar  212  HIS212     -0.2268
     79  CD2       -8.0060   35.5680   -3.3810 C.ar  212  HIS212      0.1154
     80  CE1       -7.6800   35.3190   -1.2130 C.ar  212  HIS212      0.1986
     81  NE2       -8.4620   35.8870   -2.1190 N.ar  212  HIS212     -0.2212
     82  N         -4.2690   44.8790   -4.9330 N.3   223  ARG223     -0.1245
     83  CA        -4.4730   43.4680   -4.5710 C.3   223  ARG223      0.1563
     84  C         -3.2690   42.6090   -4.9160 C.2   223  ARG223      0.2260
     85  O         -3.1160   41.5070   -4.4120 O.2   223  ARG223     -0.2867
     86  CB        -5.7460   42.9000   -5.2170 C.3   223  ARG223      0.0307
     87  CG        -7.0220   43.1420   -4.3740 C.3   223  ARG223      0.0489
     88  CD        -7.0300   42.3000   -3.1290 C.3   223  ARG223      0.2205
     89  NE        -7.3970   40.9170   -3.4540 N.pl3 223  ARG223     -0.0865
     90  CZ        -6.5810   39.8580   -3.4290 C.cat 223  ARG223      0.5346
     91  NH1       -7.0700   38.6510   -3.7230 N.pl3 223  ARG223      0.1354
     92  NH2       -5.2940   39.9760   -3.1050 N.pl3 223  ARG223      0.1354
     93  N         -7.7600   36.2510  -11.2480 N.3   245  VAL245     -0.1245
     94  CA        -8.7720   37.3280  -11.3920 C.3   245  VAL245      0.1561
     95  C         -8.3730   38.3200  -12.5210 C.2   245  VAL245      0.2260
     96  O         -7.4120   39.0710  -12.3530 O.2   245  VAL245     -0.2867
     97  CB        -9.0020   38.1000  -10.0110 C.3   245  VAL245      0.0252
     98  CG1      -10.0580   39.1330  -10.1510 C.3   245  VAL245      0.0019
     99  CG2       -9.4040   37.1060   -8.8870 C.3   245  VAL245      0.0019
    100  N         -9.2780   41.2120  -13.6790 N.3   247  LYS247     -0.1231
    101  CA        -9.1950   42.5990  -13.2690 C.3   247  LYS247      0.1693
    102  C         -8.1070   42.8120  -12.2310 C.2   247  LYS247      0.2592
    103  O         -7.8920   43.9600  -11.8030 O.2   247  LYS247     -0.2718
    104  CB       -10.5620   43.0910  -12.7370 C.3   247  LYS247      0.0285
    105  CG       -10.8450   42.6700  -11.2910 C.3   247  LYS247      0.0035
    106  CD       -12.2030   43.1670  -10.7700 C.3   247  LYS247      0.0206
    107  CE       -12.3720   42.6950   -9.3240 C.3   247  LYS247      0.1093
    108  NZ       -13.7500   42.8690   -8.8050 N.3   247  LYS247     -0.1314
    109  N         -7.3990   41.7400  -11.8270 N.am  248  PHE248     -0.1976
    110  CA        -6.1050   41.9530  -11.1490 C.3   248  PHE248      0.1639
    111  C         -4.8930   41.7060  -12.0690 C.2   248  PHE248      0.2290
    112  O         -3.8530   42.3260  -11.8850 O.2   248  PHE248     -0.2864
    113  CB        -5.9470   41.1110   -9.8550 C.3   248  PHE248      0.0560
    114  CG        -7.0140   41.3490   -8.8100 C.ar  248  PHE248     -0.0200
    115  CD1       -7.2320   40.3910   -7.8140 C.ar  248  PHE248     -0.0042
    116  CD2       -7.7850   42.4950   -8.8090 C.ar  248  PHE248     -0.0042
    117  CE1       -8.2230   40.5800   -6.8630 C.ar  248  PHE248     -0.0003
    118  CE2       -8.7610   42.7020   -7.8400 C.ar  248  PHE248     -0.0003
    119  CZ        -8.9980   41.7270   -6.8790 C.ar  248  PHE248     -0.0000
    120  N         -8.7540   31.5360   -6.8650 N.3   320  ASP320     -0.1239
    121  CA        -9.9810   32.2370   -6.4600 C.3   320  ASP320      0.1674
    122  C        -11.2200   31.6740   -7.2120 C.2   320  ASP320      0.2266
    123  O        -12.2000   32.3740   -7.4650 O.2   320  ASP320     -0.2867
    124  CB        -9.8290   33.7650   -6.7100 C.3   320  ASP320      0.1410
    125  CG       -10.6670   34.6670   -5.7530 C.2   320  ASP320      0.3668
    126  OD1      -11.3110   34.2020   -4.7530 O.co2 320  ASP320     -0.2456
    127  OD2      -10.6160   35.9060   -6.0150 O.co2 320  ASP320     -0.2456
    128  N        -14.9280   32.3390   -6.2520 N.3   323  GLY323     -0.1210
    129  CA       -14.8620   33.5870   -5.4770 C.3   323  GLY323      0.1956
    130  C        -15.0280   34.8560   -6.2980 C.2   323  GLY323      0.2613
    131  O        -15.1200   35.9610   -5.7460 O.2   323  GLY323     -0.2717
    132  N        -15.1060   34.6800   -7.6260 N.am  324  THR324     -0.1939
    133  CA       -15.0350   35.7740   -8.5960 C.3   324  THR324      0.2013
    134  C        -15.8050   35.3840   -9.8730 C.2   324  THR324      0.2484
    135  O        -15.7460   34.2370  -10.3030 O.2   324  THR324     -0.2729
    136  CB       -13.5210   36.1690   -8.8910 C.3   324  THR324      0.1807
    137  OG1      -13.4730   37.4680   -9.4810 O.3   324  THR324     -0.2208
    138  CG2      -12.6600   35.0690   -9.7610 C.3   324  THR324      0.0379
    139  N        -16.5710   36.3220  -10.4540 N.am  325  PRO325     -0.2726
    140  CA       -17.3980   35.8870  -11.5730 C.3   325  PRO325      0.1402
    141  C        -16.6400   35.6470  -12.9040 C.2   325  PRO325      0.2269
    142  O        -17.0940   34.8530  -13.7140 O.2   325  PRO325     -0.2865
    143  CB       -18.4700   36.9910  -11.6820 C.3   325  PRO325      0.0296
    144  CG       -17.8830   38.2330  -11.0230 C.3   325  PRO325      0.0237
    145  CD       -16.7730   37.7570  -10.1030 C.3   325  PRO325      0.0939
@<TRIPOS>BOND
     1   142   141    2
     2   100   101    1
     3   101   104    1
     4   101   102    1
     5   141   140    1
     6   104   105    1
     7    95    96    2
     8    95    94    1
     9   102   109   am
    10   102   103    2
    11   111   112    2
    12   111   110    1
    13   109   110    1
    14   143   140    1
    15   143   144    1
    16   140   139    1
    17    94    93    1
    18    94    97    1
    19   105   106    1
    20   110   113    1
    21   144   145    1
    22   106   107    1
    23   139   145    1
    24   139   134   am
    25   135   134    2
    26    98    97    1
    27    97    99    1
    28   134   133    1
    29   113   114    1
    30   138   136    1
    31   137   136    1
    32   107   108    1
    33   136   133    1
    34   114   116   ar
    35   114   115   ar
    36   116   118   ar
    37   133   132    1
    38   118   119   ar
    39   115   117   ar
    40   132   130   am
    41   123   122    2
    42   122   121    1
    43   119   117   ar
    44   120   121    1
    45   124   121    1
    46   124   125    1
    47   130   131    2
    48   130   129    1
    49   128   129    1
    50   127   125   ar
    51   125   126   ar
    52    86    83    1
    53    86    87    1
    54    82    83    1
    55    84    83    1
    56    84    85    2
    57    87    88    1
    58    74    75    2
    59    74    73    1
    60    76    73    1
    61    76    77    1
    62    73    72    1
    63    91    90    1
    64    89    90    2
    65    89    88    1
    66    90    92    1
    67    79    77   ar
    68    79    81   ar
    69    77    78   ar
    70     1     2    1
    71     5     2    1
    72     5     6    1
    73     3     4    2
    74     3     2    1
    75     7     6   ar
    76    81    80   ar
    77    78    80   ar
    78     6     8   ar
    79    60    59    2
    80    15    17   ar
    81    15    14   ar
    82    17    18   ar
    83    70    71   ar
    84    70    68   ar
    85    11    12    2
    86    11    10    1
    87    61    59   am
    88    71    69   ar
    89    59    58    1
    90    68    67   ar
    91    14    13    1
    92    14    16   ar
    93    13    10    1
    94    69    67   ar
    95    62    63    1
    96    10     9    1
    97    18    16   ar
    98    18    20   ar
    99    53    52   ar
   100    53    51   ar
   101    67    66    1
   102    43    41   ar
   103    58    55    1
   104    63    66    1
   105    63    64    1
   106    52    50   ar
   107    16    19   ar
   108    42    41   ar
   109    20    22   ar
   110    41    40    1
   111    51    49   ar
   112    64    65    2
   113    55    54    1
   114    55    56    1
   115    31    29   ar
   116    31    33   ar
   117    34    33    1
   118    29    28   ar
   119    57    56    2
   120    50    49   ar
   121    33    32   ar
   122    19    21   ar
   123    54    46   am
   124    28    27    1
   125    28    30   ar
   126    22    21   ar
   127    49    48    1
   128    32    30   ar
   129    27    24    1
   130    40    39    1
   131    46    47    2
   132    46    45    1
   133    39    36    1
   134    45    48    1
   135    45    44    1
   136    24    23    1
   137    24    25    1
   138    26    25    2
   139    36    37    1
   140    36    35    1
   141    38    37    2
