@<TRIPOS>MOLECULE
tmp/3isjB00.pdb
 155 150 0 0 0
SMALL
GASTEIGER

@<TRIPOS>ATOM
      1  N         -3.1720   -7.0820   29.8390 N.3    37  PRO37      -0.2102
      2  CA        -2.4500   -8.2050   29.2330 C.3    37  PRO37       0.1504
      3  C         -2.0770   -9.2620   30.2320 C.2    37  PRO37       0.2576
      4  O         -1.5780   -8.9560   31.3110 O.2    37  PRO37      -0.2718
      5  CB        -1.1780   -7.5470   28.6770 C.3    37  PRO37       0.0282
      6  CG        -1.4240   -5.9690   28.8050 C.3    37  PRO37       0.0208
      7  CD        -2.3280   -5.8740   30.0060 C.3    37  PRO37       0.0893
      8  N         -2.3210  -10.5100   29.8970 N.am   38  THR38      -0.1939
      9  CA        -1.9100  -11.5790   30.8080 C.3    38  THR38       0.2028
     10  C         -1.3460  -12.7420   30.0520 C.2    38  THR38       0.2642
     11  O         -1.4970  -12.8350   28.8170 O.2    38  THR38      -0.2714
     12  CB        -3.0890  -12.1310   31.6680 C.3    38  THR38       0.1808
     13  OG1       -3.8120  -13.1070   30.9210 O.3    38  THR38      -0.2208
     14  CG2       -4.0400  -11.0300   32.0990 C.3    38  THR38       0.0379
     15  N         -0.7380  -13.6420   30.8090 N.am   39  MET39      -0.1962
     16  CA        -0.2570  -14.8980   30.2790 C.3    39  MET39       0.1736
     17  C         -1.1460  -16.0820   30.7250 C.2    39  MET39       0.2617
     18  O         -0.6540  -17.2170   30.8980 O.2    39  MET39      -0.2715
     19  CB         1.1510  -15.1410   30.7440 C.3    39  MET39       0.0427
     20  CG         2.0890  -14.0350   30.4830 C.3    39  MET39       0.0599
     21  SD         3.6800  -14.7100   29.9830 S.3    39  MET39      -0.1393
     22  CE         4.1070  -15.7120   31.4350 C.3    39  MET39       0.0692
     23  N         -2.4390  -15.8330   30.9270 N.am   40  GLY40      -0.1955
     24  CA        -3.3500  -16.8930   31.4510 C.3    40  GLY40       0.1869
     25  C         -3.0450  -17.3720   32.8850 C.2    40  GLY40       0.2309
     26  O         -2.2960  -16.7090   33.6240 O.2    40  GLY40      -0.2863
     27  N         -5.3910  -15.4130   38.3580 N.3    43  HIS43      -0.1241
     28  CA        -5.7040  -15.3830   39.7720 C.3    43  HIS43       0.1621
     29  C         -6.3360  -14.0580   40.1900 C.2    43  HIS43       0.2264
     30  O         -6.7530  -13.2650   39.3490 O.2    43  HIS43      -0.2867
     31  CB        -4.4580  -15.6360   40.5980 C.3    43  HIS43       0.0745
     32  CG        -3.3360  -14.7310   40.2450 C.ar   43  HIS43       0.0817
     33  ND1       -3.4140  -13.3560   40.4050 N.ar   43  HIS43      -0.2268
     34  CD2       -2.1370  -14.9840   39.6770 C.ar   43  HIS43       0.1154
     35  CE1       -2.2910  -12.8080   39.9830 C.ar   43  HIS43       0.1986
     36  NE2       -1.5040  -13.7730   39.5320 N.ar   43  HIS43      -0.2212
     37  N         -5.0990  -11.5030   41.2130 N.3    45  GLY45      -0.1210
     38  CA        -4.2470  -10.3820   40.7830 C.3    45  GLY45       0.1956
     39  C         -4.7140   -9.8430   39.4530 C.2    45  GLY45       0.2611
     40  O         -4.8930   -8.6520   39.3210 O.2    45  GLY45      -0.2717
     41  N         -4.9980  -10.7490   38.5230 N.am   46  HIS46      -0.1975
     42  CA        -5.5850  -10.4280   37.2270 C.3    46  HIS46       0.1656
     43  C         -7.0140   -9.8470   37.3380 C.2    46  HIS46       0.2291
     44  O         -7.3650   -8.9370   36.5960 O.2    46  HIS46      -0.2864
     45  CB        -5.6090  -11.6660   36.3280 C.3    46  HIS46       0.0771
     46  CG        -4.2630  -12.3110   36.1170 C.ar   46  HIS46       0.0820
     47  ND1       -3.9720  -13.5870   36.5500 N.ar   46  HIS46      -0.2267
     48  CD2       -3.1530  -11.8750   35.4810 C.ar   46  HIS46       0.1154
     49  CE1       -2.7460  -13.9130   36.1780 C.ar   46  HIS46       0.1986
     50  NE2       -2.2330  -12.8950   35.5150 N.ar   46  HIS46      -0.2212
     51  N         -8.2720   -8.2190   39.7880 N.3    48  ALA48      -0.1231
     52  CA        -8.1170   -6.8420   40.2340 C.3    48  ALA48       0.1694
     53  C         -7.7040   -5.9100   39.0970 C.2    48  ALA48       0.2591
     54  O         -8.0810   -4.7230   39.1440 O.2    48  ALA48      -0.2718
     55  CB        -7.1600   -6.7400   41.3970 C.3    48  ALA48       0.0304
     56  N         -6.9040   -6.3880   38.1270 N.am   49  LEU49      -0.1980
     57  CA        -6.5450   -5.5580   36.9090 C.3    49  LEU49       0.1596
     58  C         -7.7720   -5.2840   36.0340 C.2    49  LEU49       0.2287
     59  O         -8.1000   -4.1430   35.6980 O.2    49  LEU49      -0.2864
     60  CB        -5.4760   -6.2240   36.0540 C.3    49  LEU49       0.0297
     61  CG        -4.1260   -6.5380   36.7230 C.3    49  LEU49       0.0022
     62  CD1       -3.1460   -7.0690   35.6670 C.3    49  LEU49       0.0001
     63  CD2       -3.6740   -5.2400   37.3580 C.3    49  LEU49       0.0001
     64  N          9.6510  -14.0330   26.2210 N.3    71  GLN71      -0.1245
     65  CA         9.8430  -13.7420   27.6450 C.3    71  GLN71       0.1566
     66  C          9.8070  -15.0350   28.4720 C.2    71  GLN71       0.2260
     67  O          9.1910  -16.0310   28.0590 O.2    71  GLN71      -0.2867
     68  CB         8.8170  -12.7270   28.1430 C.3    71  GLN71       0.0367
     69  CG         7.5550  -13.3010   28.8130 C.3    71  GLN71       0.0905
     70  CD         6.4490  -12.2550   28.9650 C.2    71  GLN71       0.2608
     71  OE1        6.0640  -11.5860   27.9860 O.2    71  GLN71      -0.2717
     72  NE2        5.9300  -12.1040   30.2010 N.am   71  GLN71      -0.0878
     73  N         -1.3350   -2.9410   34.4440 N.3   147  PHE147     -0.1227
     74  CA        -0.2990   -3.9040   34.8660 C.3   147  PHE147      0.1736
     75  C         -0.2770   -3.9130   36.3720 C.2   147  PHE147      0.2596
     76  O         -0.6140   -2.9310   36.9710 O.2   147  PHE147     -0.2718
     77  CB         1.0560   -3.4320   34.3680 C.3   147  PHE147      0.0547
     78  CG         1.2210   -3.6230   32.8940 C.ar  147  PHE147     -0.0202
     79  CD1        1.4470   -4.9320   32.3660 C.ar  147  PHE147     -0.0042
     80  CD2        1.0910   -2.5380   32.0250 C.ar  147  PHE147     -0.0042
     81  CE1        1.5370   -5.1580   31.0110 C.ar  147  PHE147     -0.0003
     82  CE2        1.1730   -2.7660   30.6080 C.ar  147  PHE147     -0.0003
     83  CZ         1.4280   -4.0840   30.1260 C.ar  147  PHE147     -0.0000
     84  N          0.0440   -5.0470   36.9900 N.am  148  GLY148     -0.1957
     85  CA         0.1430   -5.1070   38.4320 C.3   148  GLY148      0.1869
     86  C          1.4510   -4.4890   38.8290 C.2   148  GLY148      0.2309
     87  O          2.3990   -4.4010   38.0120 O.2   148  GLY148     -0.2863
     88  N          3.2550   -5.9290   41.0460 N.3   150  LYS150     -0.1231
     89  CA         4.0270   -7.1130   41.4580 C.3   150  LYS150      0.1693
     90  C          5.3780   -7.1000   40.7700 C.2   150  LYS150      0.2592
     91  O          6.4370   -7.0420   41.4120 O.2   150  LYS150     -0.2718
     92  CB         3.2470   -8.3860   41.0300 C.3   150  LYS150      0.0285
     93  CG         3.9620   -9.8090   41.2990 C.3   150  LYS150      0.0035
     94  CD         3.8670  -10.2990   42.7390 C.3   150  LYS150      0.0206
     95  CE         4.4740  -11.6620   42.8020 C.3   150  LYS150      0.1093
     96  NZ         5.7520  -11.7490   42.0840 N.3   150  LYS150     -0.1314
     97  N          5.3080   -7.1070   39.4410 N.am  151  ASP151     -0.1974
     98  CA         6.4620   -6.9420   38.5290 C.3   151  ASP151      0.1709
     99  C          6.6930   -5.4690   38.2360 C.2   151  ASP151      0.2293
    100  O          6.2650   -4.9430   37.2830 O.2   151  ASP151     -0.2864
    101  CB         6.2160   -7.7610   37.2590 C.3   151  ASP151      0.1436
    102  CG         6.0790   -9.2160   37.5690 C.2   151  ASP151      0.3671
    103  OD1        7.0720   -9.7830   38.0130 O.co2 151  ASP151     -0.2456
    104  OD2        4.9870   -9.7910   37.3960 O.co2 151  ASP151     -0.2456
    105  N          9.1960   -4.3510   35.5170 N.3   154  GLN154     -0.1245
    106  CA         8.5480   -4.4540   34.2760 C.3   154  GLN154      0.1566
    107  C          7.6400   -3.2360   34.0080 C.2   154  GLN154      0.2260
    108  O          7.6750   -2.6930   32.8950 O.2   154  GLN154     -0.2867
    109  CB         7.7100   -5.7030   34.2830 C.3   154  GLN154      0.0367
    110  CG         6.5720   -5.6400   33.3290 C.3   154  GLN154      0.0905
    111  CD         5.8400   -6.9360   33.2950 C.2   154  GLN154      0.2608
    112  OE1        6.4610   -7.9960   33.0410 O.2   154  GLN154     -0.2717
    113  NE2        4.5070   -6.8910   33.5800 N.am  154  GLN154     -0.0878
    114  N         -1.4650   -1.2770   39.0820 N.3   174  VAL174     -0.1231
    115  CA        -2.4690   -1.5950   40.0580 C.3   174  VAL174      0.1678
    116  C         -1.7690   -2.2700   41.2410 C.2   174  VAL174      0.2434
    117  O         -0.9700   -3.2080   41.0210 O.2   174  VAL174     -0.2733
    118  CB        -3.6220   -2.4660   39.4390 C.3   174  VAL174      0.0265
    119  CG1       -4.6820   -2.8360   40.4770 C.3   174  VAL174      0.0020
    120  CG2       -4.2550   -1.7380   38.2440 C.3   174  VAL174      0.0020
    121  N         -2.0160   -1.7520   42.4850 N.am  175  PRO175     -0.2718
    122  CA        -1.3880   -2.3110   43.7070 C.3   175  PRO175      0.1535
    123  C         -1.4930   -3.8520   43.7590 C.2   175  PRO175      0.2599
    124  O         -2.5270   -4.3680   43.4250 O.2   175  PRO175     -0.2715
    125  CB        -2.1640   -1.6370   44.8320 C.3   175  PRO175      0.0310
    126  CG        -2.3950   -0.2070   44.2350 C.3   175  PRO175      0.0237
    127  CD        -2.8550   -0.5690   42.8050 C.3   175  PRO175      0.0939
    128  N         -0.3720   -4.5340   44.0600 N.am  176  THR176     -0.1937
    129  CA        -0.3490   -5.9880   44.2120 C.3   176  THR176      0.2028
    130  C         -1.4050   -6.5370   45.1920 C.2   176  THR176      0.2642
    131  O         -1.5330   -6.0920   46.3520 O.2   176  THR176     -0.2714
    132  CB         1.0410   -6.4240   44.6850 C.3   176  THR176      0.1808
    133  OG1        2.0120   -5.6010   44.0250 O.3   176  THR176     -0.2208
    134  CG2        1.3100   -7.9290   44.4570 C.3   176  THR176      0.0379
    135  N         -2.1190   -7.5400   44.6980 N.am  177  VAL177     -0.1977
    136  CA        -3.0310   -8.3890   45.4390 C.3   177  VAL177      0.1596
    137  C         -2.1790   -9.4210   46.1810 C.2   177  VAL177      0.2287
    138  O         -1.2970  -10.0970   45.5920 O.2   177  VAL177     -0.2864
    139  CB        -4.0590   -9.0530   44.4580 C.3   177  VAL177      0.0276
    140  CG1       -4.8520  -10.0930   45.1400 C.3   177  VAL177      0.0022
    141  CG2       -5.0360   -7.9650   43.9080 C.3   177  VAL177      0.0022
    142  N          0.4740  -12.4120   45.5150 N.3   185  MET185     -0.1230
    143  CA        -0.0870  -13.4430   44.6230 C.3   185  MET185      0.1702
    144  C          0.7760  -13.7170   43.4100 C.2   185  MET185      0.2593
    145  O          1.4200  -12.8030   42.8730 O.2   185  MET185     -0.2718
    146  CB        -1.4540  -13.0460   44.1060 C.3   185  MET185      0.0401
    147  CG        -2.4680  -12.9800   45.1610 C.3   185  MET185      0.0596
    148  SD        -3.7630  -14.0350   44.6250 S.3   185  MET185     -0.1393
    149  CE        -4.8720  -13.8690   46.0520 C.3   185  MET185      0.0692
    150  N          0.8080  -14.9870   43.0270 N.am  186  SER186     -0.1952
    151  CA         1.5590  -15.5010   41.9070 C.3   186  SER186      0.1924
    152  C          1.0740  -16.9380   41.7380 C.2   186  SER186      0.2314
    153  O          0.4190  -17.5230   42.6360 O.2   186  SER186     -0.2863
    154  CB         3.0810  -15.4020   42.1200 C.3   186  SER186      0.2116
    155  OG         3.7660  -16.5080   41.5730 O.3   186  SER186     -0.2180
@<TRIPOS>BOND
     1    64    65    1
     2    65    68    1
     3    65    66    1
     4    71    70    2
     5    67    66    2
     6    68    69    1
     7     5     6    1
     8     5     2    1
     9     6     7    1
    10    69    70    1
    11    11    10    2
    12    70    72   am
    13     2     1    1
    14     2     3    1
    15     1     7    1
    16     8     3   am
    17     8     9    1
    18    21    20    1
    19    21    22    1
    20    10     9    1
    21    10    15   am
    22    83    82   ar
    23    83    81   ar
    24     3     4    2
    25    16    17    1
    26    16    19    1
    27    16    15    1
    28    20    19    1
    29    82    80   ar
    30    17    18    2
    31    17    23   am
    32     9    12    1
    33    13    12    1
    34    23    24    1
    35    81    79   ar
    36    24    25    1
    37    12    14    1
    38    80    78   ar
    39    79    78   ar
    40    25    26    2
    41    78    77    1
    42   108   107    2
    43   112   111    2
    44   111   110    1
    45   111   113   am
    46   110   109    1
    47   107   106    1
    48   106   109    1
    49   106   105    1
    50    77    74    1
    51    73    74    1
    52    74    75    1
    53    48    50   ar
    54    48    46   ar
    55    50    49   ar
    56    62    61    1
    57    59    58    2
    58    58    57    1
    59    60    61    1
    60    60    57    1
    61    46    45    1
    62    46    47   ar
    63    49    47   ar
    64    45    42    1
    65    75    76    2
    66    75    84   am
    67    44    43    2
    68    61    63    1
    69    57    56    1
    70    84    85    1
    71    42    43    1
    72    42    41    1
    73   101   102    1
    74   101    98    1
    75   100    99    2
    76   104   102   ar
    77   102   103   ar
    78    87    86    2
    79    56    53   am
    80    99    98    1
    81   120   118    1
    82    27    28    1
    83    85    86    1
    84    41    39   am
    85    98    97    1
    86   114   115    1
    87    53    54    2
    88    53    52    1
    89    40    39    2
    90    30    29    2
    91   118   115    1
    92   118   119    1
    93    97    90   am
    94    39    38    1
    95    36    34   ar
    96    36    35   ar
    97    34    32   ar
    98    28    29    1
    99    28    31    1
   100    51    52    1
   101    35    33   ar
   102   115   116    1
   103    52    55    1
   104    32    33   ar
   105    32    31    1
   106    90    91    2
   107    90    89    1
   108    38    37    1
   109   117   116    2
   110    92    93    1
   111    92    89    1
   112    88    89    1
   113   116   121   am
   114    93    94    1
   115   155   154    1
   116   152   151    1
   117   152   153    2
   118   151   154    1
   119   151   150    1
   120    96    95    1
   121   121   127    1
   122   121   122    1
   123    94    95    1
   124   127   126    1
   125   145   144    2
   126   150   144   am
   127   144   143    1
   128   124   123    2
   129   122   123    1
   130   122   125    1
   131   123   128   am
   132   141   139    1
   133   133   132    1
   134   128   129    1
   135   146   143    1
   136   146   147    1
   137   129   132    1
   138   129   130    1
   139   126   125    1
   140   134   132    1
   141   139   140    1
   142   139   136    1
   143   143   142    1
   144   148   147    1
   145   148   149    1
   146   135   130   am
   147   135   136    1
   148   130   131    2
   149   136   137    1
   150   138   137    2
