@<TRIPOS>MOLECULE
tmp/3islB00.pdb
 113 103 0 0 0
SMALL
GASTEIGER

@<TRIPOS>ATOM
      1  N          3.8580  -19.8410   23.3130 N.3    66  THR66      -0.1203
      2  CA         3.3060  -21.1630   23.0470 C.3    66  THR66       0.1994
      3  C          2.2640  -21.5040   24.1320 C.2    66  THR66       0.2619
      4  O          2.0150  -20.7160   25.0750 O.2    66  THR66      -0.2717
      5  CB         4.4250  -22.2590   22.7790 C.3    66  THR66       0.1784
      6  OG1        5.0350  -22.6880   23.9920 O.3    66  THR66      -0.2211
      7  CG2        5.5640  -21.6680   21.8900 C.3    66  THR66       0.0376
      8  N          1.5810  -22.6060   23.9030 N.am   67  SER67      -0.1937
      9  CA         0.6810  -23.2260   24.8260 C.3    67  SER67       0.2055
     10  C          1.1960  -23.1260   26.2650 C.2    67  SER67       0.2642
     11  O          0.4390  -22.6690   27.1210 O.2    67  SER67      -0.2714
     12  CB         0.5740  -24.6740   24.4200 C.3    67  SER67       0.2130
     13  OG         0.3020  -24.7580   23.0220 O.3    67  SER67      -0.2179
     14  N          2.4600  -23.5240   26.5140 N.am   68  ARG68      -0.1977
     15  CA         3.0630  -23.5660   27.8750 C.3    68  ARG68       0.1597
     16  C          3.1390  -22.1850   28.5360 C.2    68  ARG68       0.2287
     17  O          3.0920  -22.1140   29.7620 O.2    68  ARG68      -0.2864
     18  CB         4.5440  -23.9690   27.8100 C.3    68  ARG68       0.0334
     19  CG         4.7390  -25.4130   27.6590 C.3    68  ARG68       0.0492
     20  CD         6.1570  -25.6500   27.2810 C.3    68  ARG68       0.2205
     21  NE         6.0480  -26.5920   26.1880 N.pl3  68  ARG68      -0.0865
     22  CZ         6.3820  -27.8830   26.2320 C.cat  68  ARG68       0.5346
     23  NH1        6.8740  -28.4240   27.3360 N.pl3  68  ARG68       0.1354
     24  NH2        6.2140  -28.6260   25.1390 N.pl3  68  ARG68       0.1354
     25  N         -0.2880  -21.5710   29.9570 N.3    71  ILE71      -0.1245
     26  CA        -0.4150  -22.3260   31.1810 C.3    71  ILE71       0.1561
     27  C          0.3560  -21.6380   32.3290 C.2    71  ILE71       0.2260
     28  O         -0.1970  -21.4660   33.4360 O.2    71  ILE71      -0.2867
     29  CB         0.1000  -23.7420   30.9770 C.3    71  ILE71       0.0252
     30  CG1       -0.6380  -24.4570   29.8260 C.3    71  ILE71       0.0019
     31  CG2        0.0920  -24.4620   32.2740 C.3    71  ILE71       0.0019
     32  CD1       -0.2080  -25.9870   29.6120 C.3    71  ILE71       0.0001
     33  N          2.6350  -34.2700   30.6170 N.3    93  PHE93      -0.1241
     34  CA         2.2100  -32.8890   30.7580 C.3    93  PHE93       0.1605
     35  C          1.7410  -32.4820   32.1680 C.2    93  PHE93       0.2264
     36  O          1.7630  -31.2880   32.5360 O.2    93  PHE93      -0.2867
     37  CB         1.2590  -32.5160   29.5920 C.3    93  PHE93       0.0534
     38  CG         2.0040  -32.4170   28.2760 C.ar   93  PHE93      -0.0203
     39  CD1        2.7660  -31.2810   27.9890 C.ar   93  PHE93      -0.0042
     40  CD2        2.0750  -33.5250   27.3950 C.ar   93  PHE93      -0.0042
     41  CE1        3.5640  -31.2010   26.8030 C.ar   93  PHE93      -0.0003
     42  CE2        2.8750  -33.4590   26.2250 C.ar   93  PHE93      -0.0003
     43  CZ         3.6080  -32.2660   25.9360 C.ar   93  PHE93      -0.0000
     44  N          4.9210  -30.9930   33.7240 N.3    96  LEU96      -0.1245
     45  CA         5.0880  -29.6060   33.3570 C.3    96  LEU96       0.1561
     46  C          4.2820  -28.7180   34.3350 C.2    96  LEU96       0.2260
     47  O          4.7540  -27.6870   34.8050 O.2    96  LEU96      -0.2867
     48  CB         4.6170  -29.4410   31.8770 C.3    96  LEU96       0.0270
     49  CG         4.4190  -28.0600   31.2740 C.3    96  LEU96       0.0019
     50  CD1        5.7720  -27.3400   31.2210 C.3    96  LEU96       0.0001
     51  CD2        3.6560  -28.1420   29.8800 C.3    96  LEU96       0.0001
     52  N         -4.2320  -31.7940   33.3080 N.3   139  VAL139     -0.1245
     53  CA        -4.2690  -31.9500   31.8750 C.3   139  VAL139      0.1561
     54  C         -5.5930  -32.6550   31.5100 C.2   139  VAL139      0.2260
     55  O         -5.9440  -33.7470   32.0260 O.2   139  VAL139     -0.2867
     56  CB        -3.0470  -32.7500   31.3440 C.3   139  VAL139      0.0252
     57  CG1       -3.0230  -32.7750   29.8130 C.3   139  VAL139      0.0019
     58  CG2       -1.6580  -32.1860   31.8960 C.3   139  VAL139      0.0019
     59  N         -6.2580  -33.7210   28.1940 N.3   141  GLY141     -0.1225
     60  CA        -5.8260  -34.8030   27.3140 C.3   141  GLY141      0.1811
     61  C         -4.3090  -34.8380   27.1670 C.2   141  GLY141      0.2280
     62  O         -3.7070  -33.8960   26.6760 O.2   141  GLY141     -0.2866
     63  N         -1.1910  -36.0600   25.4270 N.3   143  THR143     -0.1218
     64  CA        -0.7650  -36.6340   24.1840 C.3   143  THR143      0.1862
     65  C          0.3370  -37.6370   24.4380 C.2   143  THR143      0.2287
     66  O          0.5250  -38.5040   23.6330 O.2   143  THR143     -0.2866
     67  CB        -0.2940  -35.5830   23.1140 C.3   143  THR143      0.1770
     68  OG1        0.6240  -34.6430   23.6910 O.3   143  THR143     -0.2211
     69  CG2       -1.4590  -34.8430   22.5750 C.3   143  THR143      0.0375
     70  N         -5.4670  -27.6710   31.3710 N.3   168  ASP168     -0.1239
     71  CA        -4.6990  -27.6270   30.1440 C.3   168  ASP168      0.1674
     72  C         -5.5130  -28.4470   29.1320 C.2   168  ASP168      0.2266
     73  O         -5.5150  -29.6840   29.1800 O.2   168  ASP168     -0.2867
     74  CB        -3.3330  -28.3080   30.4530 C.3   168  ASP168      0.1410
     75  CG        -2.5240  -28.7360   29.1910 C.2   168  ASP168      0.3668
     76  OD1       -3.0210  -28.8750   28.0450 O.co2 168  ASP168     -0.2456
     77  OD2       -1.3480  -29.0570   29.3950 O.co2 168  ASP168     -0.2456
     78  N         -4.8810  -27.9870   25.9100 N.3   170  VAL170     -0.1231
     79  CA        -4.0790  -27.6850   24.7340 C.3   170  VAL170      0.1692
     80  C         -4.3190  -28.6600   23.5870 C.2   170  VAL170      0.2591
     81  O         -4.4220  -28.2670   22.4030 O.2   170  VAL170     -0.2718
     82  CB        -2.5760  -27.5090   25.0680 C.3   170  VAL170      0.0266
     83  CG1       -1.7320  -27.5740   23.7640 C.3   170  VAL170      0.0020
     84  CG2       -2.3540  -26.2070   25.7950 C.3   170  VAL170      0.0020
     85  N         -4.4330  -29.9290   23.9100 N.am  171  ALA171     -0.1980
     86  CA        -4.4530  -30.9200   22.8780 C.3   171  ALA171      0.1597
     87  C         -5.8710  -31.3290   22.4980 C.2   171  ALA171      0.2287
     88  O         -6.0530  -32.0890   21.5330 O.2   171  ALA171     -0.2864
     89  CB        -3.5860  -32.1240   23.2880 C.3   171  ALA171      0.0319
     90  N         -1.7160  -24.9390   17.6370 N.3   193  GLN193     -0.1231
     91  CA        -1.1490  -25.7840   16.5680 C.3   193  GLN193      0.1698
     92  C         -1.5800  -27.2340   16.5870 C.2   193  GLN193      0.2592
     93  O         -1.0010  -28.0530   15.8720 O.2   193  GLN193     -0.2718
     94  CB         0.3910  -25.7020   16.5490 C.3   193  GLN193      0.0381
     95  CG         1.0740  -26.5910   17.7550 C.3   193  GLN193      0.0905
     96  CD         1.1310  -25.9260   19.1580 C.2   193  GLN193      0.2608
     97  OE1        0.5760  -24.8340   19.3700 O.2   193  GLN193     -0.2717
     98  NE2        1.8560  -26.5960   20.1260 N.am  193  GLN193     -0.0878
     99  N         -2.5320  -27.5680   17.4550 N.am  194  LYS194     -0.1980
    100  CA        -3.0830  -28.9380   17.4960 C.3   194  LYS194      0.1596
    101  C         -4.4270  -28.9280   16.7830 C.2   194  LYS194      0.2287
    102  O         -4.4540  -28.6620   15.5910 O.2   194  LYS194     -0.2864
    103  CB        -3.1400  -29.5020   18.9410 C.3   194  LYS194      0.0298
    104  CG        -1.6090  -29.8260   19.4090 C.3   194  LYS194      0.0038
    105  CD        -1.2740  -30.1310   20.9260 C.3   194  LYS194      0.0206
    106  CE         0.2240  -29.8550   21.2050 C.3   194  LYS194      0.1093
    107  NZ         0.9380  -30.4920   22.4000 N.3   194  LYS194     -0.1314
    108  N          1.8470  -22.6750   15.4330 N.3   200  SER200     -0.1217
    109  CA         2.2220  -22.7080   16.8480 C.3   200  SER200      0.1889
    110  C          2.6080  -21.2970   17.2830 C.2   200  SER200      0.2288
    111  O          3.0720  -20.5050   16.4410 O.2   200  SER200     -0.2866
    112  CB         3.3900  -23.6720   17.1230 C.3   200  SER200      0.2089
    113  OG         3.7050  -23.6480   18.5340 O.3   200  SER200     -0.2183
@<TRIPOS>BOND
     1   108   109    1
     2   102   101    2
     3    93    92    2
     4   111   110    2
     5    94    91    1
     6    94    95    1
     7    91    92    1
     8    91    90    1
     9    92    99   am
    10   101   100    1
    11   109   112    1
    12   109   110    1
    13   112   113    1
    14    99   100    1
    15   100   103    1
    16    95    96    1
    17   103   104    1
    18    96    97    2
    19    96    98   am
    20   104   105    1
    21   105   106    1
    22   106   107    1
    23    88    87    2
    24     7     5    1
    25    81    80    2
    26    87    86    1
    27    69    67    1
    28     5     2    1
    29     5     6    1
    30    86    89    1
    31    86    85    1
    32    13    12    1
    33     2     1    1
    34     2     3    1
    35    67    68    1
    36    67    64    1
    37    80    85   am
    38    80    79    1
    39    66    65    2
    40    83    82    1
    41     8     3   am
    42     8     9    1
    43     3     4    2
    44    64    65    1
    45    64    63    1
    46    12     9    1
    47    79    82    1
    48    79    78    1
    49     9    10    1
    50    82    84    1
    51    24    22    1
    52    43    42   ar
    53    43    41   ar
    54    21    22    2
    55    21    20    1
    56    42    40   ar
    57    22    23    1
    58    10    14   am
    59    10    11    2
    60    14    15    1
    61    62    61    2
    62    41    39   ar
    63    61    60    1
    64    20    19    1
    65    60    59    1
    66    40    38   ar
    67    19    18    1
    68    18    15    1
    69    15    16    1
    70    39    38   ar
    71    76    75   ar
    72    38    37    1
    73    16    17    2
    74    72    73    2
    75    72    71    1
    76    75    77   ar
    77    75    74    1
    78    37    34    1
    79    32    30    1
    80    57    56    1
    81    30    29    1
    82    51    49    1
    83    25    26    1
    84    71    74    1
    85    71    70    1
    86    33    34    1
    87    34    35    1
    88    29    26    1
    89    29    31    1
    90    26    27    1
    91    50    49    1
    92    49    48    1
    93    56    53    1
    94    56    58    1
    95    54    53    1
    96    54    55    2
    97    53    52    1
    98    48    45    1
    99    35    36    2
   100    27    28    2
   101    45    44    1
   102    45    46    1
   103    46    47    2
