@<TRIPOS>MOLECULE
tmp/3istA00.pdb
 108 104 0 0 0
SMALL
GASTEIGER

@<TRIPOS>ATOM
      1  N         -9.7250   18.0720   -8.3860 N.3    11  ASP11      -0.1225
      2  CA       -11.1110   17.7450   -8.1140 C.3    11  ASP11       0.1805
      3  C        -11.7540   17.0760   -9.3460 C.2    11  ASP11       0.2598
      4  O        -11.1970   17.0530  -10.4450 O.2    11  ASP11      -0.2718
      5  CB       -11.9260   19.0180   -7.7820 C.3    11  ASP11       0.1424
      6  CG       -13.3950   18.7340   -7.5200 C.2    11  ASP11       0.3668
      7  OD1      -13.6730   17.7560   -6.7510 O.co2  11  ASP11      -0.2456
      8  OD2      -14.3080   19.4790   -8.0690 O.co2  11  ASP11      -0.2456
      9  N        -12.9180   16.4740   -9.1720 N.am   12  SER12      -0.1952
     10  CA       -13.5950   15.8710  -10.2760 C.3    12  SER12       0.1924
     11  C        -14.2260   16.8820  -11.2690 C.2    12  SER12       0.2314
     12  O        -14.6780   16.4710  -12.3620 O.2    12  SER12      -0.2863
     13  CB       -14.6800   14.8920   -9.7710 C.3    12  SER12       0.2116
     14  OG       -15.6470   15.5930   -8.9470 O.3    12  SER12      -0.2180
     15  N        -16.2490   13.0050  -14.1160 N.3    41  CYS41      -0.1221
     16  CA       -17.1890   13.3140  -13.0560 C.3    41  CYS41       0.1794
     17  C        -18.4980   12.6020  -13.4850 C.2    41  CYS41       0.2443
     18  O        -18.9200   12.7340  -14.6510 O.2    41  CYS41      -0.2733
     19  CB       -17.3330   14.8110  -13.0120 C.3    41  CYS41       0.0970
     20  SG       -18.4670   15.4670  -11.7680 S.3    41  CYS41      -0.0800
     21  N        -19.1910   11.8990  -12.5730 N.am   42  PRO42      -0.2718
     22  CA       -18.9940   11.9080  -11.1100 C.3    42  PRO42       0.1535
     23  C        -18.0040   10.8630  -10.6480 C.2    42  PRO42       0.2599
     24  O        -17.9230    9.7570  -11.1680 O.2    42  PRO42      -0.2715
     25  CB       -20.3790   11.5510  -10.5740 C.3    42  PRO42       0.0310
     26  CG       -20.9470   10.6670  -11.6220 C.3    42  PRO42       0.0237
     27  CD       -20.4220   11.1860  -12.9370 C.3    42  PRO42       0.0939
     28  N        -17.2260   11.2370   -9.6710 N.am   43  TYR43      -0.1960
     29  CA       -16.4400   10.2860   -8.9000 C.3    43  TYR43       0.1771
     30  C        -17.2970    9.5900   -7.8290 C.2    43  TYR43       0.2620
     31  O        -16.8930    8.5700   -7.2970 O.2    43  TYR43      -0.2715
     32  CB       -15.2830   11.0060   -8.2230 C.3    43  TYR43       0.0574
     33  CG       -14.0590   11.3140   -9.0760 C.ar   43  TYR43      -0.0198
     34  CD1      -14.1210   11.4130  -10.4660 C.ar   43  TYR43      -0.0009
     35  CD2      -12.8480   11.5990   -8.4760 C.ar   43  TYR43      -0.0009
     36  CE1      -12.9820   11.7420  -11.2200 C.ar   43  TYR43       0.0417
     37  CE2      -11.7430   11.8920   -9.2000 C.ar   43  TYR43       0.0417
     38  CZ       -11.7800   11.9570  -10.5600 C.ar   43  TYR43       0.1957
     39  OH       -10.6780   12.3080  -11.2890 O.3    43  TYR43      -0.2866
     40  N        -18.4080   10.2240   -7.4410 N.am   44  GLY44      -0.1954
     41  CA       -19.2950    9.7060   -6.3780 C.3    44  GLY44       0.1869
     42  C        -19.5680    8.2170   -6.3500 C.2    44  GLY44       0.2309
     43  O        -19.4830    7.5830   -5.2980 O.2    44  GLY44      -0.2863
     44  N        -11.4710   17.6530   -3.0730 N.3    72  CYS72      -0.1221
     45  CA       -12.4550   16.6520   -3.5260 C.3    72  CYS72       0.1808
     46  C        -12.5350   15.6560   -2.3720 C.2    72  CYS72       0.2601
     47  O        -11.5050   15.0990   -1.9170 O.2    72  CYS72      -0.2717
     48  CB       -11.9790   15.9830   -4.8010 C.3    72  CYS72       0.0970
     49  SG       -12.9590   14.6560   -5.3420 S.3    72  CYS72      -0.0800
     50  N        -13.7470   15.3780   -1.8850 N.am   73  ASN73      -0.1960
     51  CA       -13.9220   14.5100   -0.6990 C.3    73  ASN73       0.1819
     52  C        -13.6260   13.0160   -0.9790 C.2    73  ASN73       0.2621
     53  O        -12.8960   12.3650   -0.2490 O.2    73  ASN73      -0.2715
     54  CB       -15.3070   14.6950   -0.1850 C.3    73  ASN73       0.1195
     55  CG       -15.4510   15.9350    0.6030 C.2    73  ASN73       0.2630
     56  OD1      -15.3140   15.8840    1.8380 O.2    73  ASN73      -0.2716
     57  ND2      -15.7350   17.0590   -0.0610 N.am   73  ASN73      -0.0877
     58  N        -14.1630   12.4780   -2.0790 N.am   74  THR74      -0.1951
     59  CA       -13.8980   11.0760   -2.4140 C.3    74  THR74       0.1897
     60  C        -12.4370   10.8190   -2.6600 C.2    74  THR74       0.2313
     61  O        -11.8790    9.7990   -2.1810 O.2    74  THR74      -0.2863
     62  CB       -14.6940   10.6050   -3.6620 C.3    74  THR74       0.1794
     63  OG1      -14.4660   11.5080   -4.7330 O.3    74  THR74      -0.2208
     64  CG2      -16.1610   10.5400   -3.3390 C.3    74  THR74       0.0378
     65  N        -21.4480   12.5010   -1.3600 N.3   116  THR116     -0.1218
     66  CA       -21.7030   11.4990   -2.3750 C.3   116  THR116      0.1862
     67  C        -21.8320   10.0740   -1.7880 C.2   116  THR116      0.2287
     68  O        -21.5240    9.8020   -0.6100 O.2   116  THR116     -0.2866
     69  CB       -20.5940   11.4380   -3.4140 C.3   116  THR116      0.1770
     70  OG1      -19.3790   11.0010   -2.8180 O.3   116  THR116     -0.2211
     71  CG2      -20.4330   12.7670   -4.1360 C.3   116  THR116      0.0375
     72  N        -18.4130    8.9030   -0.5610 N.3   119  THR119     -0.1218
     73  CA       -18.0010    9.6050    0.6700 C.3   119  THR119      0.1862
     74  C        -18.7990    9.0190    1.8410 C.2   119  THR119      0.2287
     75  O        -18.2340    8.7190    2.8990 O.2   119  THR119     -0.2866
     76  CB       -18.2430   11.0630    0.5390 C.3   119  THR119      0.1770
     77  OG1      -17.3440   11.5530   -0.4660 O.3   119  THR119     -0.2211
     78  CG2      -17.9600   11.7800    1.9180 C.3   119  THR119      0.0375
     79  N        -24.3860   16.8570   -7.4890 N.3   146  VAL146     -0.1245
     80  CA       -23.2860   17.1470   -8.4150 C.3   146  VAL146      0.1561
     81  C        -23.7890   17.3580   -9.8380 C.2   146  VAL146      0.2260
     82  O        -23.2920   18.1950  -10.5490 O.2   146  VAL146     -0.2867
     83  CB       -22.2230   16.0140   -8.3840 C.3   146  VAL146      0.0252
     84  CG1      -21.3080   16.1140   -9.6290 C.3   146  VAL146      0.0019
     85  CG2      -21.3810   16.1300   -7.0750 C.3   146  VAL146      0.0019
     86  N        -19.2270   17.4660    0.0830 N.3   182  CYS182     -0.1221
     87  CA       -18.8080   17.4240   -1.3030 C.3   182  CYS182      0.1808
     88  C        -18.4910   18.8640   -1.6540 C.2   182  CYS182      0.2602
     89  O        -19.3040   19.7640   -1.3720 O.2   182  CYS182     -0.2717
     90  CB       -19.9310   16.8920   -2.1340 C.3   182  CYS182      0.0970
     91  SG       -19.6590   17.0250   -3.9380 S.3   182  CYS182     -0.0800
     92  N        -17.3600   19.1010   -2.3080 N.am  183  THR183     -0.1939
     93  CA       -16.9270   20.4380   -2.5860 C.3   183  THR183      0.2028
     94  C        -17.7870   21.1350   -3.6200 C.2   183  THR183      0.2642
     95  O        -17.6910   22.3000   -3.7380 O.2   183  THR183     -0.2714
     96  CB       -15.4510   20.5460   -2.9510 C.3   183  THR183      0.1808
     97  OG1      -15.2070   19.7230   -4.0860 O.3   183  THR183     -0.2208
     98  CG2      -14.5670   20.0690   -1.7690 C.3   183  THR183      0.0379
     99  N        -18.6280   20.3930   -4.3620 N.am  184  HIS184     -0.1973
    100  CA       -19.5730   21.0370   -5.2210 C.3   184  HIS184      0.1656
    101  C        -20.6940   21.7270   -4.4940 C.2   184  HIS184      0.2291
    102  O        -21.3720   22.6290   -5.0470 O.2   184  HIS184     -0.2864
    103  CB       -20.2080   19.9930   -6.1290 C.3   184  HIS184      0.0771
    104  CG       -19.3340   19.5070   -7.2460 C.ar  184  HIS184      0.0820
    105  ND1      -18.2850   18.6340   -7.0310 N.ar  184  HIS184     -0.2267
    106  CD2      -19.4550   19.6400   -8.5800 C.ar  184  HIS184      0.1154
    107  CE1      -17.7590   18.3130   -8.1940 C.ar  184  HIS184      0.1986
    108  NE2      -18.4390   18.9040   -9.1510 N.ar  184  HIS184     -0.2212
@<TRIPOS>BOND
     1    18    17    2
     2    15    16    1
     3    17    16    1
     4    17    21   am
     5    16    19    1
     6    19    20    1
     7    27    21    1
     8    27    26    1
     9    21    22    1
    10    12    11    2
    11    26    25    1
    12    39    38    1
    13    11    10    1
    14    36    38   ar
    15    36    34   ar
    16    24    23    2
    17    22    23    1
    18    22    25    1
    19    23    28   am
    20    38    37   ar
    21    82    81    2
    22    34    33   ar
    23     4     3    2
    24    10    13    1
    25    10     9    1
    26    81    80    1
    27    13    14    1
    28    28    29    1
    29    84    83    1
    30     3     9   am
    31     3     2    1
    32    37    35   ar
    33   108   106   ar
    34   108   107   ar
    35    33    35   ar
    36    33    32    1
    37    29    32    1
    38    29    30    1
    39   106   104   ar
    40    80    83    1
    41    80    79    1
    42     1     2    1
    43    83    85    1
    44   107   105   ar
    45     2     5    1
    46     8     6   ar
    47    30    40   am
    48    30    31    2
    49     5     6    1
    50     6     7   ar
    51    40    41    1
    52   104   105   ar
    53   104   103    1
    54    41    42    1
    55    42    43    2
    56   103   100    1
    57    49    48    1
    58   100   101    1
    59   100    99    1
    60   102   101    2
    61    48    45    1
    62    63    62    1
    63    99    94   am
    64    71    69    1
    65    97    96    1
    66    91    90    1
    67    95    94    2
    68    62    64    1
    69    62    59    1
    70    94    93    1
    71    45    44    1
    72    45    46    1
    73    69    70    1
    74    69    66    1
    75    96    93    1
    76    96    98    1
    77    60    59    1
    78    60    61    2
    79    93    92    1
    80    59    58    1
    81    66    67    1
    82    66    65    1
    83    46    47    2
    84    46    50   am
    85    92    88   am
    86    90    87    1
    87    58    52   am
    88    50    51    1
    89    67    68    2
    90    88    89    2
    91    88    87    1
    92    87    86    1
    93    52    51    1
    94    52    53    2
    95    51    54    1
    96    72    73    1
    97    77    76    1
    98    54    55    1
    99    57    55   am
   100    76    73    1
   101    76    78    1
   102    55    56    2
   103    73    74    1
   104    74    75    2
