@<TRIPOS>MOLECULE
tmp/3it1A02.pdb
 101 98 0 0 0
SMALL
GASTEIGER

@<TRIPOS>ATOM
      1  N          7.2510   15.0070   -1.2060 N.3    11  ARG11      -0.1231
      2  CA         7.2970   15.3510   -2.6250 C.3    11  ARG11       0.1694
      3  C          5.8610   15.2870   -3.1220 C.2    11  ARG11       0.2592
      4  O          5.0770   14.4700   -2.6470 O.2    11  ARG11      -0.2718
      5  CB         8.1480   14.3650   -3.4340 C.3    11  ARG11       0.0321
      6  CG         8.1170   14.6900   -4.9510 C.3    11  ARG11       0.0489
      7  CD         8.9710   13.7540   -5.8100 C.3    11  ARG11       0.2205
      8  NE         8.9860   14.2400   -7.1960 N.pl3  11  ARG11      -0.0865
      9  CZ         9.1480   13.4710   -8.2720 C.cat  11  ARG11       0.5346
     10  NH1        9.3040   12.1520   -8.1490 N.pl3  11  ARG11       0.1354
     11  NH2        9.1230   14.0280   -9.4770 N.pl3  11  ARG11       0.1354
     12  N          5.5110   16.1480   -4.0730 N.am   12  HIS12      -0.1976
     13  CA         4.1770   16.1270   -4.6370 C.3    12  HIS12       0.1656
     14  C          3.9390   14.8370   -5.4280 C.2    12  HIS12       0.2291
     15  O          4.8400   14.0230   -5.6310 O.2    12  HIS12      -0.2864
     16  CB         3.9550   17.3380   -5.5590 C.3    12  HIS12       0.0771
     17  CG         4.9400   17.4360   -6.6800 C.ar   12  HIS12       0.0820
     18  ND1        4.9530   16.5570   -7.7450 N.ar   12  HIS12      -0.2267
     19  CD2        5.9350   18.3250   -6.9110 C.ar   12  HIS12       0.1154
     20  CE1        5.9230   16.8970   -8.5780 C.ar   12  HIS12       0.1986
     21  NE2        6.5260   17.9720   -8.0990 N.ar   12  HIS12      -0.2212
     22  N          2.7270   14.1470  -11.8620 N.3    15  ARG15      -0.1245
     23  CA         2.4050   15.3740  -12.5840 C.3    15  ARG15       0.1563
     24  C          2.6790   15.1850  -14.0700 C.2    15  ARG15       0.2260
     25  O          3.3320   14.2220  -14.4750 O.2    15  ARG15      -0.2867
     26  CB         3.2540   16.5360  -12.0610 C.3    15  ARG15       0.0307
     27  CG         4.7500   16.2240  -12.0380 C.3    15  ARG15       0.0489
     28  CD         5.5970   17.4830  -12.1270 C.3    15  ARG15       0.2205
     29  NE         7.0110   17.1460  -11.9700 N.pl3  15  ARG15      -0.0865
     30  CZ         7.7800   16.6670  -12.9470 C.cat  15  ARG15       0.5346
     31  NH1        9.0490   16.3730  -12.6940 N.pl3  15  ARG15       0.1354
     32  NH2        7.2870   16.4890  -14.1750 N.pl3  15  ARG15       0.1354
     33  N          7.1410   19.2700  -17.7190 N.3    18  PHE18      -0.1241
     34  CA         7.2320   20.7060  -17.9400 C.3    18  PHE18       0.1605
     35  C          7.4770   21.0430  -19.3960 C.2    18  PHE18       0.2264
     36  O          7.1860   22.1460  -19.8390 O.2    18  PHE18      -0.2867
     37  CB         8.3540   21.2810  -17.0860 C.3    18  PHE18       0.0534
     38  CG         8.1250   21.0800  -15.6230 C.ar   18  PHE18      -0.0203
     39  CD1        7.2780   21.9330  -14.9270 C.ar   18  PHE18      -0.0042
     40  CD2        8.6990   20.0070  -14.9480 C.ar   18  PHE18      -0.0042
     41  CE1        7.0320   21.7450  -13.5640 C.ar   18  PHE18      -0.0003
     42  CE2        8.4570   19.8190  -13.5650 C.ar   18  PHE18      -0.0003
     43  CZ         7.6170   20.6870  -12.8920 C.ar   18  PHE18      -0.0000
     44  N          0.8860   22.2840   -8.0580 N.3    79  ARG79      -0.1245
     45  CA         1.0600   20.8590   -7.7780 C.3    79  ARG79       0.1563
     46  C          1.3540   20.5700   -6.3010 C.2    79  ARG79       0.2260
     47  O          0.8900   19.5530   -5.7670 O.2    79  ARG79      -0.2867
     48  CB         2.1390   20.2380   -8.6770 C.3    79  ARG79       0.0307
     49  CG         3.5140   20.8790   -8.5460 C.3    79  ARG79       0.0489
     50  CD         4.4020   20.4810   -9.7230 C.3    79  ARG79       0.2205
     51  NE         5.7070   21.1350   -9.6520 N.pl3  79  ARG79      -0.0865
     52  CZ         5.9490   22.3800  -10.0490 C.cat  79  ARG79       0.5346
     53  NH1        4.9740   23.1200  -10.5670 N.pl3  79  ARG79       0.1354
     54  NH2        7.1720   22.8820   -9.9350 N.pl3  79  ARG79       0.1354
     55  N         11.2760   25.3840   -2.3640 N.3   126  GLN126     -0.1245
     56  CA        11.7380   25.2260   -3.7390 C.3   126  GLN126      0.1566
     57  C         12.7270   26.3370   -4.0410 C.2   126  GLN126      0.2260
     58  O         12.3610   27.5110   -4.0350 O.2   126  GLN126     -0.2867
     59  CB        10.5630   25.2890   -4.7330 C.3   126  GLN126      0.0367
     60  CG        10.9870   24.9670   -6.1480 C.3   126  GLN126      0.0905
     61  CD         9.8500   25.0110   -7.1600 C.2   126  GLN126      0.2608
     62  OE1        9.0030   25.9100   -7.1400 O.2   126  GLN126     -0.2717
     63  NE2        9.8440   24.0500   -8.0640 N.am  126  GLN126     -0.0878
     64  N         14.4550   28.5540   -9.7370 N.3   129  TYR129     -0.1241
     65  CA        15.0940   27.7360  -10.7670 C.3   129  TYR129      0.1605
     66  C         16.4420   28.2480  -11.2580 C.2   129  TYR129      0.2264
     67  O         17.4020   27.4900  -11.3480 O.2   129  TYR129     -0.2867
     68  CB        14.1670   27.5600  -11.9700 C.3   129  TYR129      0.0534
     69  CG        14.6420   26.4790  -12.9040 C.ar  129  TYR129     -0.0201
     70  CD1       15.0020   26.7670  -14.2090 C.ar  129  TYR129     -0.0009
     71  CD2       14.7430   25.1650  -12.4700 C.ar  129  TYR129     -0.0009
     72  CE1       15.4410   25.7710  -15.0600 C.ar  129  TYR129      0.0417
     73  CE2       15.1780   24.1650  -13.3060 C.ar  129  TYR129      0.0417
     74  CZ        15.5240   24.4720  -14.6050 C.ar  129  TYR129      0.1957
     75  OH        15.9600   23.4720  -15.4450 O.3   129  TYR129     -0.2866
     76  N          9.0140   19.2060   -3.1070 N.3   254  HIS254     -0.1226
     77  CA         9.4320   18.6360   -4.3820 C.3   254  HIS254      0.1752
     78  C         10.5050   17.5860   -4.1320 C.2   254  HIS254      0.2596
     79  O         10.9890   17.4460   -3.0040 O.2   254  HIS254     -0.2718
     80  CB        10.0060   19.7500   -5.2700 C.3   254  HIS254      0.0759
     81  CG         9.1040   20.9400   -5.4190 C.ar  254  HIS254      0.0818
     82  ND1        8.3820   21.1910   -6.5700 N.ar  254  HIS254     -0.2268
     83  CD2        8.7820   21.9300   -4.5490 C.ar  254  HIS254      0.1154
     84  CE1        7.6740   22.2950   -6.4080 C.ar  254  HIS254      0.1986
     85  NE2        7.8990   22.7630   -5.1900 N.ar  254  HIS254     -0.2212
     86  N         10.9180   16.8630   -5.1810 N.am  255  ASP255     -0.1960
     87  CA        12.0150   15.9140   -4.9910 C.3   255  ASP255      0.1840
     88  C         13.2450   16.6050   -4.3860 C.2   255  ASP255      0.2621
     89  O         13.8640   16.0790   -3.4410 O.2   255  ASP255     -0.2715
     90  CB        12.3430   15.1060   -6.2730 C.3   255  ASP255      0.1450
     91  CG        12.5270   15.9740   -7.5260 C.2   255  ASP255      0.3671
     92  OD1       12.7580   17.2010   -7.4330 O.co2 255  ASP255     -0.2456
     93  OD2       12.4690   15.3880   -8.6350 O.co2 255  ASP255     -0.2456
     94  N         13.5580   17.8010   -4.8800 N.am  256  LEU256     -0.1977
     95  CA        14.7170   18.5430   -4.3950 C.3   256  LEU256      0.1596
     96  C         14.5930   18.8670   -2.9020 C.2   256  LEU256      0.2287
     97  O         15.5810   18.8590   -2.1710 O.2   256  LEU256     -0.2864
     98  CB        14.9400   19.8360   -5.1940 C.3   256  LEU256      0.0297
     99  CG        15.1290   19.7220   -6.7160 C.3   256  LEU256      0.0022
    100  CD1       15.5690   21.0760   -7.3140 C.3   256  LEU256      0.0001
    101  CD2       16.1360   18.6350   -7.0580 C.3   256  LEU256      0.0001
@<TRIPOS>BOND
     1    36    35    2
     2    35    34    1
     3    34    33    1
     4    34    37    1
     5    37    38    1
     6    38    40   ar
     7    38    39   ar
     8    75    74    1
     9    72    74   ar
    10    72    70   ar
    11    40    42   ar
    12    39    41   ar
    13    74    73   ar
    14    25    24    2
    15    70    69   ar
    16    32    30    1
    17    24    23    1
    18    42    43   ar
    19    41    43   ar
    20    73    71   ar
    21    30    31    1
    22    30    29    2
    23    69    71   ar
    24    69    68    1
    25    23    26    1
    26    23    22    1
    27    28    27    1
    28    28    29    1
    29    26    27    1
    30    68    65    1
    31    67    66    2
    32    66    65    1
    33    65    64    1
    34    53    52    1
    35    52    54    1
    36    52    51    2
    37    50    51    1
    38    50    49    1
    39    11     9    1
    40    48    49    1
    41    48    45    1
    42    93    91   ar
    43    20    21   ar
    44    20    18   ar
    45     9    10    1
    46     9     8    2
    47    21    19   ar
    48    63    61   am
    49    44    45    1
    50    45    46    1
    51    18    17   ar
    52    91    92   ar
    53    91    90    1
    54   100    99    1
    55     8     7    1
    56    61    62    2
    57    61    60    1
    58   101    99    1
    59    19    17   ar
    60    99    98    1
    61    17    16    1
    62    82    84   ar
    63    82    81   ar
    64    84    85   ar
    65    46    47    2
    66    90    87    1
    67    60    59    1
    68     7     6    1
    69    15    14    2
    70    16    13    1
    71    14    13    1
    72    81    80    1
    73    81    83   ar
    74    80    77    1
    75    98    95    1
    76    85    83   ar
    77    86    87    1
    78    86    78   am
    79    87    88    1
    80     6     5    1
    81    94    95    1
    82    94    88   am
    83    59    56    1
    84    13    12    1
    85    95    96    1
    86    88    89    2
    87    77    78    1
    88    77    76    1
    89    78    79    2
    90    12     3   am
    91    57    58    2
    92    57    56    1
    93    56    55    1
    94     5     2    1
    95     3     4    2
    96     3     2    1
    97    96    97    2
    98     2     1    1
