@<TRIPOS>MOLECULE
tmp/3it3A00.pdb
 139 133 0 0 0
SMALL
GASTEIGER

@<TRIPOS>ATOM
      1  N          7.2500   15.0510   -1.2230 N.3    11  ARG11      -0.1231
      2  CA         7.2370   15.4200   -2.6300 C.3    11  ARG11       0.1694
      3  C          5.7960   15.2820   -3.1040 C.2    11  ARG11       0.2592
      4  O          5.0390   14.4490   -2.5910 O.2    11  ARG11      -0.2718
      5  CB         8.1670   14.5410   -3.4800 C.3    11  ARG11       0.0321
      6  CG         8.1210   14.9110   -4.9700 C.3    11  ARG11       0.0489
      7  CD         9.1200   14.1540   -5.8320 C.3    11  ARG11       0.2205
      8  NE         9.0680   14.6950   -7.1890 N.pl3  11  ARG11      -0.0865
      9  CZ         9.1610   13.9770   -8.2970 C.cat  11  ARG11       0.5346
     10  NH1        9.3450   12.6640   -8.2330 N.pl3  11  ARG11       0.1354
     11  NH2        9.0640   14.5870   -9.4660 N.pl3  11  ARG11       0.1354
     12  N          5.4170   16.1180   -4.0650 N.am   12  HIS12      -0.1976
     13  CA         4.0850   16.0740   -4.6610 C.3    12  HIS12       0.1656
     14  C          3.8540   14.7590   -5.4080 C.2    12  HIS12       0.2291
     15  O          4.7670   13.9520   -5.5750 O.2    12  HIS12      -0.2864
     16  CB         3.9230   17.2610   -5.6100 C.3    12  HIS12       0.0771
     17  CG         4.9150   17.2660   -6.7260 C.ar   12  HIS12       0.0820
     18  ND1        4.8540   16.3680   -7.7640 N.ar   12  HIS12      -0.2267
     19  CD2        6.0020   18.0410   -6.9570 C.ar   12  HIS12       0.1154
     20  CE1        5.8630   16.5860   -8.5930 C.ar   12  HIS12       0.1986
     21  NE2        6.5690   17.5990   -8.1280 N.ar   12  HIS12      -0.2212
     22  N          2.7760   14.0190  -11.7770 N.3    15  ARG15      -0.1245
     23  CA         2.4630   15.2400  -12.5060 C.3    15  ARG15       0.1563
     24  C          2.7460   15.0510  -13.9840 C.2    15  ARG15       0.2260
     25  O          3.4190   14.0980  -14.3820 O.2    15  ARG15      -0.2867
     26  CB         3.3100   16.4040  -11.9950 C.3    15  ARG15       0.0307
     27  CG         4.8200   16.1280  -12.0170 C.3    15  ARG15       0.0489
     28  CD         5.6140   17.4180  -12.0690 C.3    15  ARG15       0.2205
     29  NE         7.0420   17.1850  -11.8630 N.pl3  15  ARG15      -0.0865
     30  CZ         7.8680   16.7170  -12.7950 C.cat  15  ARG15       0.5346
     31  NH1        9.1520   16.5450  -12.5000 N.pl3  15  ARG15       0.1354
     32  NH2        7.4150   16.4110  -14.0080 N.pl3  15  ARG15       0.1354
     33  N          7.3800   19.0090  -17.4670 N.3    18  PHE18      -0.1227
     34  CA         7.5890   20.4270  -17.7460 C.3    18  PHE18       0.1736
     35  C          7.8750   20.6670  -19.2170 C.2    18  PHE18       0.2595
     36  O          7.5980   21.7380  -19.7480 O.2    18  PHE18      -0.2718
     37  CB         8.7820   20.9650  -16.9520 C.3    18  PHE18       0.0547
     38  CG         8.6060   20.8980  -15.4700 C.ar   18  PHE18      -0.0202
     39  CD1        7.9650   21.9200  -14.7920 C.ar   18  PHE18      -0.0042
     40  CD2        9.0900   19.8200  -14.7560 C.ar   18  PHE18      -0.0042
     41  CE1        7.8050   21.8590  -13.4150 C.ar   18  PHE18      -0.0003
     42  CE2        8.9340   19.7560  -13.3800 C.ar   18  PHE18      -0.0003
     43  CZ         8.2840   20.7760  -12.7190 C.ar   18  PHE18      -0.0000
     44  N          8.4690   19.6700  -19.8600 N.am   19  ALA19      -0.1980
     45  CA         8.9690   19.8260  -21.2240 C.3    19  ALA19       0.1597
     46  C          8.2800   18.8460  -22.1500 C.2    19  ALA19       0.2287
     47  O          7.5820   17.9490  -21.7010 O.2    19  ALA19      -0.2864
     48  CB        10.4650   19.6020  -21.2460 C.3    19  ALA19       0.0319
     49  N          0.8860   22.1150   -8.0400 N.3    79  ARG79      -0.1245
     50  CA         1.0460   20.6980   -7.7170 C.3    79  ARG79       0.1563
     51  C          1.3240   20.4710   -6.2350 C.2    79  ARG79       0.2260
     52  O          0.8680   19.4810   -5.6660 O.2    79  ARG79      -0.2867
     53  CB         2.1070   20.0200   -8.6030 C.3    79  ARG79       0.0307
     54  CG         3.5400   20.4870   -8.3800 C.3    79  ARG79       0.0489
     55  CD         4.4370   19.9230   -9.4840 C.3    79  ARG79       0.2205
     56  NE         5.8300   20.3540   -9.3610 N.pl3  79  ARG79      -0.0865
     57  CZ         6.2710   21.5540   -9.7310 C.cat  79  ARG79       0.5346
     58  NH1        5.4220   22.4430  -10.2360 N.pl3  79  ARG79       0.1354
     59  NH2        7.5600   21.8660   -9.6030 N.pl3  79  ARG79       0.1354
     60  N         11.8040   25.1570   -2.2320 N.3   127  GLN127     -0.1245
     61  CA        12.5750   24.8890   -3.4470 C.3   127  GLN127      0.1566
     62  C         13.2630   26.1610   -3.9150 C.2   127  GLN127      0.2260
     63  O         12.6830   27.2430   -3.8430 O.2   127  GLN127     -0.2867
     64  CB        11.6760   24.3520   -4.5740 C.3   127  GLN127      0.0367
     65  CG        10.5700   25.3280   -5.0230 C.3   127  GLN127      0.0905
     66  CD         9.9400   24.9730   -6.3720 C.2   127  GLN127      0.2608
     67  OE1        9.0490   25.6760   -6.8540 O.2   127  GLN127     -0.2717
     68  NE2       10.3960   23.8850   -6.9790 N.am  127  GLN127     -0.0878
     69  N         13.8220   27.6260  -10.1770 N.3   130  TYR130     -0.1241
     70  CA        14.5180   26.7110  -11.0770 C.3   130  TYR130      0.1605
     71  C         15.8370   27.2430  -11.6360 C.2   130  TYR130      0.2264
     72  O         16.8410   26.5340  -11.6400 O.2   130  TYR130     -0.2867
     73  CB        13.5950   26.2920  -12.2260 C.3   130  TYR130      0.0534
     74  CG        14.1240   25.1400  -13.0440 C.ar  130  TYR130     -0.0201
     75  CD1       14.2680   25.2520  -14.4160 C.ar  130  TYR130     -0.0009
     76  CD2       14.4850   23.9400  -12.4420 C.ar  130  TYR130     -0.0009
     77  CE1       14.7490   24.1990  -15.1680 C.ar  130  TYR130      0.0417
     78  CE2       14.9690   22.8860  -13.1800 C.ar  130  TYR130      0.0417
     79  CZ        15.0980   23.0190  -14.5500 C.ar  130  TYR130      0.1957
     80  OH        15.5890   21.9790  -15.3150 O.3   130  TYR130     -0.2866
     81  N         18.4620   27.2710   -8.9900 N.3   133  TYR133     -0.1241
     82  CA        18.8720   25.8840   -8.7880 C.3   133  TYR133      0.1605
     83  C         19.8950   25.4590   -9.8370 C.2   133  TYR133      0.2264
     84  O         20.9690   24.9470   -9.4990 O.2   133  TYR133     -0.2867
     85  CB        17.6350   24.9880   -8.8180 C.3   133  TYR133      0.0534
     86  CG        17.8540   23.5130   -9.1060 C.ar  133  TYR133     -0.0201
     87  CD1       18.6500   22.7220   -8.2790 C.ar  133  TYR133     -0.0009
     88  CD2       17.2180   22.9040  -10.1810 C.ar  133  TYR133     -0.0009
     89  CE1       18.8220   21.3580   -8.5390 C.ar  133  TYR133      0.0417
     90  CE2       17.3790   21.5510  -10.4420 C.ar  133  TYR133      0.0417
     91  CZ        18.1770   20.7850   -9.6220 C.ar  133  TYR133      0.1957
     92  OH        18.3230   19.4420   -9.9010 O.3   133  TYR133     -0.2866
     93  N         18.9170   14.6090  -18.2590 N.3   176  ILE176     -0.1245
     94  CA        17.9760   14.7650  -17.1460 C.3   176  ILE176      0.1561
     95  C         16.6740   15.4540  -17.5860 C.2   176  ILE176      0.2260
     96  O         15.5750   15.0630  -17.1790 O.2   176  ILE176     -0.2867
     97  CB        18.6510   15.5360  -15.9930 C.3   176  ILE176      0.0252
     98  CG1       19.7310   14.6630  -15.3550 C.3   176  ILE176      0.0019
     99  CG2       17.6300   15.9680  -14.9450 C.3   176  ILE176      0.0019
    100  CD1       20.6610   15.4170  -14.4110 C.3   176  ILE176      0.0001
    101  N         13.0050   13.2460  -17.4900 N.3   180  ASP180     -0.1239
    102  CA        11.7550   13.4800  -16.7880 C.3   180  ASP180      0.1674
    103  C         10.5490   13.1630  -17.6680 C.2   180  ASP180      0.2266
    104  O          9.5660   12.5860  -17.1940 O.2   180  ASP180     -0.2867
    105  CB        11.6510   14.9120  -16.2850 C.3   180  ASP180      0.1410
    106  CG        10.4500   15.1030  -15.3850 C.2   180  ASP180      0.3668
    107  OD1       10.4800   14.5870  -14.2460 O.co2 180  ASP180     -0.2456
    108  OD2        9.4730   15.7320  -15.8350 O.co2 180  ASP180     -0.2456
    109  N         20.2170   13.3360  -10.3970 N.3   212  LEU212     -0.1245
    110  CA        19.5110   14.0500   -9.3460 C.3   212  LEU212      0.1561
    111  C         20.0970   13.7170   -7.9730 C.2   212  LEU212      0.2260
    112  O         20.3350   14.6100   -7.1680 O.2   212  LEU212     -0.2867
    113  CB        18.0100   13.7580   -9.4010 C.3   212  LEU212      0.0270
    114  CG        17.3130   14.4460  -10.5770 C.3   212  LEU212      0.0019
    115  CD1       15.9190   13.8780  -10.8090 C.3   212  LEU212      0.0001
    116  CD2       17.2400   15.9430  -10.3230 C.3   212  LEU212      0.0001
    117  N          9.0800   19.2060   -3.0100 N.3   255  HIS255     -0.1226
    118  CA         9.5680   18.6650   -4.2710 C.3   255  HIS255      0.1752
    119  C         10.6520   17.6240   -4.0540 C.2   255  HIS255      0.2596
    120  O         11.1140   17.4130   -2.9390 O.2   255  HIS255     -0.2718
    121  CB        10.1420   19.8120   -5.1030 C.3   255  HIS255      0.0759
    122  CG         9.1840   20.9450   -5.2740 C.ar  255  HIS255      0.0818
    123  ND1        8.3780   21.0690   -6.3820 N.ar  255  HIS255     -0.2268
    124  CD2        8.8550   21.9690   -4.4500 C.ar  255  HIS255      0.1154
    125  CE1        7.6070   22.1360   -6.2450 C.ar  255  HIS255      0.1986
    126  NE2        7.8760   22.6980   -5.0810 N.ar  255  HIS255     -0.2212
    127  N         11.0650   16.9740   -5.1400 N.am  256  ALA256     -0.1966
    128  CA        12.1950   16.0620   -5.0590 C.3   256  ALA256      0.1728
    129  C         13.3950   16.7710   -4.4260 C.2   256  ALA256      0.2616
    130  O         14.0770   16.2040   -3.5660 O.2   256  ALA256     -0.2715
    131  CB        12.5500   15.5380   -6.4540 C.3   256  ALA256      0.0334
    132  N         13.6350   18.0170   -4.8360 N.am  257  LEU257     -0.1977
    133  CA        14.7740   18.7880   -4.3290 C.3   257  LEU257      0.1596
    134  C         14.6810   19.0400   -2.8250 C.2   257  LEU257      0.2287
    135  O         15.6940   19.0870   -2.1290 O.2   257  LEU257     -0.2864
    136  CB        14.9100   20.1250   -5.0620 C.3   257  LEU257      0.0297
    137  CG        15.1010   20.0090   -6.5730 C.3   257  LEU257      0.0022
    138  CD1       15.3730   21.3860   -7.1790 C.3   257  LEU257      0.0001
    139  CD2       16.2350   19.0430   -6.8810 C.3   257  LEU257      0.0001
@<TRIPOS>BOND
     1    46    47    2
     2    46    45    1
     3    48    45    1
     4    45    44    1
     5    44    35   am
     6    36    35    2
     7    35    34    1
     8    93    94    1
     9    34    33    1
    10    34    37    1
    11   103   104    2
    12   103   102    1
    13    95    96    2
    14    95    94    1
    15   101   102    1
    16    94    97    1
    17    37    38    1
    18   102   105    1
    19   105   106    1
    20    97    98    1
    21    97    99    1
    22   108   106   ar
    23    38    39   ar
    24    38    40   ar
    25   106   107   ar
    26    98   100    1
    27    80    79    1
    28    77    79   ar
    29    77    75   ar
    30    39    41   ar
    31    40    42   ar
    32    79    78   ar
    33    75    74   ar
    34    25    24    2
    35    32    30    1
    36    24    23    1
    37    41    43   ar
    38    42    43   ar
    39    78    76   ar
    40    74    76   ar
    41    74    73    1
    42    30    31    1
    43    30    29    2
    44    23    26    1
    45    23    22    1
    46    73    70    1
    47    28    27    1
    48    28    29    1
    49    27    26    1
    50    72    71    2
    51    71    70    1
    52    70    69    1
    53   115   114    1
    54   114   116    1
    55   114   113    1
    56    90    88   ar
    57    90    91   ar
    58   109   110    1
    59    58    57    1
    60    88    86   ar
    61    92    91    1
    62    83    84    2
    63    83    82    1
    64    57    59    1
    65    57    56    2
    66    91    89   ar
    67    55    56    1
    68    55    54    1
    69    11     9    1
    70   113   110    1
    71   110   111    1
    72    86    85    1
    73    86    87   ar
    74    81    82    1
    75    85    82    1
    76    53    54    1
    77    53    50    1
    78    20    21   ar
    79    20    18   ar
    80    89    87   ar
    81     9    10    1
    82     9     8    2
    83    21    19   ar
    84    49    50    1
    85   111   112    2
    86    18    17   ar
    87    50    51    1
    88     8     7    1
    89   138   137    1
    90    68    66   am
    91    19    17   ar
    92   139   137    1
    93    67    66    2
    94    17    16    1
    95   137   136    1
    96   131   128    1
    97   123   125   ar
    98   123   122   ar
    99    66    65    1
   100   125   126   ar
   101    51    52    2
   102     7     6    1
   103    16    13    1
   104    15    14    2
   105    14    13    1
   106   122   121    1
   107   122   124   ar
   108   127   128    1
   109   127   119   am
   110   121   118    1
   111   126   124   ar
   112   136   133    1
   113   128   129    1
   114    65    64    1
   115     6     5    1
   116   132   129   am
   117   132   133    1
   118    13    12    1
   119    64    61    1
   120   129   130    2
   121   133   134    1
   122   118   119    1
   123   118   117    1
   124    12     3   am
   125   119   120    2
   126    62    63    2
   127    62    61    1
   128     5     2    1
   129    61    60    1
   130     3     2    1
   131     3     4    2
   132   134   135    2
   133     2     1    1
