@<TRIPOS>MOLECULE
tmp/3it6A00.pdb
 63 59 0 0 0
SMALL
GASTEIGER

@<TRIPOS>ATOM
      1  N         16.5800    4.1650    9.6360 N.3   121  THR121     -0.1203
      2  CA        16.2490    4.7480   10.9370 C.3   121  THR121      0.1994
      3  C         15.2220    3.8790   11.6680 C.2   121  THR121      0.2618
      4  O         14.3360    3.2920   11.0390 O.2   121  THR121     -0.2717
      5  CB        15.7920    6.2430   10.8100 C.3   121  THR121      0.1784
      6  OG1       15.4900    6.7770   12.1040 O.3   121  THR121     -0.2211
      7  CG2       14.5790    6.3890    9.9020 C.3   121  THR121      0.0376
      8  N         15.3650    3.7760   12.9880 N.am  122  GLY122     -0.1956
      9  CA        14.5130    2.9020   13.8110 C.3   122  GLY122      0.1869
     10  C         15.2880    2.2770   14.9600 C.2   122  GLY122      0.2309
     11  O         16.2210    2.8880   15.4770 O.2   122  GLY122     -0.2863
     12  N         17.9100   -0.0630   16.9960 N.3   124  ILE124     -0.1245
     13  CA        19.2430   -0.6350   16.8130 C.3   124  ILE124      0.1561
     14  C         19.2380   -2.1480   17.0980 C.2   124  ILE124      0.2260
     15  O         18.6450   -2.6060   18.0880 O.2   124  ILE124     -0.2867
     16  CB        20.2920    0.0550   17.7190 C.3   124  ILE124      0.0252
     17  CG1       20.3720    1.5470   17.4020 C.3   124  ILE124      0.0019
     18  CG2       21.6730   -0.6050   17.5710 C.3   124  ILE124      0.0019
     19  CD1       20.8680    2.3940   18.5570 C.3   124  ILE124      0.0001
     20  N          9.8430    8.1410   12.3160 N.3   160  THR160     -0.1203
     21  CA         9.7840    7.0690   13.3080 C.3   160  THR160      0.1994
     22  C          8.8700    7.5310   14.4470 C.2   160  THR160      0.2618
     23  O          7.6680    7.2710   14.4210 O.2   160  THR160     -0.2717
     24  CB        11.1860    6.6680   13.8350 C.3   160  THR160      0.1784
     25  OG1       11.8010    7.7790   14.5100 O.3   160  THR160     -0.2211
     26  CG2       12.0790    6.2170   12.6840 C.3   160  THR160      0.0376
     27  N          9.4330    8.2460   15.4160 N.am  161  THR161     -0.1952
     28  CA         8.6820    8.7220   16.5810 C.3   161  THR161      0.1897
     29  C          8.1870   10.1650   16.4090 C.2   161  THR161      0.2313
     30  O          7.5480   10.7170   17.3080 O.2   161  THR161     -0.2863
     31  CB         9.5130    8.5860   17.8640 C.3   161  THR161      0.1794
     32  OG1       10.7880    9.2160   17.6660 O.3   161  THR161     -0.2208
     33  CG2        9.7400    7.1090   18.1840 C.3   161  THR161      0.0378
     34  N         13.7550   14.3060    9.6040 N.3   183  LYS183     -0.1231
     35  CA        13.0330   13.6020   10.6620 C.3   183  LYS183      0.1693
     36  C         13.9190   13.5040   11.8980 C.2   183  LYS183      0.2593
     37  O         15.1510   13.7080   11.8230 O.2   183  LYS183     -0.2718
     38  CB        12.5700   12.2180   10.1900 C.3   183  LYS183      0.0285
     39  CG        13.6840   11.2450    9.7710 C.3   183  LYS183      0.0035
     40  CD        14.3500   10.5390   10.9430 C.3   183  LYS183      0.0206
     41  CE        13.3900    9.7500   11.8000 C.3   183  LYS183      0.1093
     42  NZ        14.1560    9.0050   12.8400 N.3   183  LYS183     -0.1314
     43  N         13.2830   13.2000   13.0270 N.am  184  GLY184     -0.1942
     44  CA        13.9770   12.9040   14.2740 C.3   184  GLY184      0.2014
     45  C         13.3730   13.6150   15.4600 C.2   184  GLY184      0.2639
     46  O         13.1500   14.8290   15.3990 O.2   184  GLY184     -0.2714
     47  N         13.1100   12.8770   16.5400 N.am  185  ALA185     -0.1963
     48  CA        12.4390   13.4490   17.7150 C.3   185  ALA185      0.1728
     49  C         13.0590   13.0140   19.0390 C.2   185  ALA185      0.2617
     50  O         12.8290   13.6450   20.0700 O.2   185  ALA185     -0.2715
     51  CB        10.9250   13.1360   17.6910 C.3   185  ALA185      0.0334
     52  N         13.8490   11.9420   18.9920 N.am  186  GLY186     -0.1940
     53  CA        14.5690   11.4080   20.1490 C.3   186  GLY186      0.2014
     54  C         15.8790   10.8210   19.6660 C.2   186  GLY186      0.2638
     55  O         16.0510   10.6050   18.4710 O.2   186  GLY186     -0.2714
     56  N         16.8040   10.5490   20.5870 N.am  187  MET187     -0.1976
     57  CA        18.2010   10.3000   20.2150 C.3   187  MET187      0.1605
     58  C         18.6170   11.3630   19.2040 C.2   187  MET187      0.2287
     59  O         18.9980   11.0620   18.0630 O.2   187  MET187     -0.2864
     60  CB        18.3960    8.8730   19.6680 C.3   187  MET187      0.0413
     61  CG        19.8320    8.4010   19.6560 C.3   187  MET187      0.0598
     62  SD        20.0250    6.7040   19.0630 S.3   187  MET187     -0.1393
     63  CE        19.4780    5.7370   20.4630 C.3   187  MET187      0.0692
@<TRIPOS>BOND
     1    34    35    1
     2     1     2    1
     3    39    38    1
     4    39    40    1
     5     7     5    1
     6    38    35    1
     7    35    36    1
     8     5     2    1
     9     5     6    1
    10     2     3    1
    11    40    41    1
    12     4     3    2
    13     3     8   am
    14    41    42    1
    15    37    36    2
    16    36    43   am
    17    20    21    1
    18    26    24    1
    19     8     9    1
    20    43    44    1
    21    21    24    1
    22    21    22    1
    23     9    10    1
    24    24    25    1
    25    44    45    1
    26    23    22    2
    27    22    27   am
    28    10    11    2
    29    46    45    2
    30    27    28    1
    31    45    47   am
    32    29    28    1
    33    29    30    2
    34    47    48    1
    35    28    31    1
    36    13    12    1
    37    13    14    1
    38    13    16    1
    39    14    15    2
    40    17    16    1
    41    17    19    1
    42    18    16    1
    43    32    31    1
    44    51    48    1
    45    48    49    1
    46    31    33    1
    47    59    58    2
    48    55    54    2
    49    52    49   am
    50    52    53    1
    51    49    50    2
    52    62    61    1
    53    62    63    1
    54    58    57    1
    55    61    60    1
    56    54    53    1
    57    54    56   am
    58    60    57    1
    59    57    56    1
