@<TRIPOS>MOLECULE
tmp/3it7A00.pdb
 132 130 0 0 0
SMALL
GASTEIGER

@<TRIPOS>ATOM
      1  N         18.0720   -0.8310  -14.2010 N.3    20  ASN20      -0.1240
      2  CA        16.9760   -0.3170  -15.0240 C.3    20  ASN20       0.1653
      3  C         17.4940    0.7460  -16.0060 C.2    20  ASN20       0.2266
      4  O         18.7050    0.9710  -16.0920 O.2    20  ASN20      -0.2867
      5  CB        15.7790    0.1570  -14.1700 C.3    20  ASN20       0.1155
      6  CG        16.0380    1.4730  -13.4620 C.2    20  ASN20       0.2627
      7  OD1       17.1440    2.0000  -13.5080 O.2    20  ASN20      -0.2716
      8  ND2       15.0080    2.0100  -12.7970 N.am   20  ASN20      -0.0877
      9  N         18.4660    7.5260  -16.4660 N.3    23  HIS23      -0.1241
     10  CA        17.6000    8.6730  -16.1780 C.3    23  HIS23       0.1621
     11  C         18.3700    9.7800  -15.4630 C.2    23  HIS23       0.2264
     12  O         19.4970    9.5690  -15.0150 O.2    23  HIS23      -0.2867
     13  CB        16.3800    8.2470  -15.3430 C.3    23  HIS23       0.0745
     14  CG        16.7230    7.4300  -14.1300 C.ar   23  HIS23       0.0817
     15  ND1       16.9900    6.0790  -14.1940 N.ar   23  HIS23      -0.2268
     16  CD2       16.8240    7.7710  -12.8230 C.ar   23  HIS23       0.1154
     17  CE1       17.2430    5.6240  -12.9790 C.ar   23  HIS23       0.1986
     18  NE2       17.1440    6.6310  -12.1290 N.ar   23  HIS23      -0.2212
     19  N         18.9870   12.6020  -12.3500 N.3    25  ASN25      -0.1225
     20  CA        18.9470   12.4670  -10.8970 C.3    25  ASN25       0.1785
     21  C         17.5530   12.6740  -10.3110 C.2    25  ASN25       0.2598
     22  O         17.1570   11.9630   -9.3830 O.2    25  ASN25      -0.2718
     23  CB        19.9490   13.4020  -10.2190 C.3    25  ASN25       0.1169
     24  CG        20.0070   13.1910   -8.7160 C.2    25  ASN25       0.2627
     25  OD1       20.1990   12.0630   -8.2370 O.2    25  ASN25      -0.2716
     26  ND2       19.8300   14.2780   -7.9580 N.am   25  ASN25      -0.0877
     27  N         16.8190   13.6440  -10.8570 N.am   26  THR26      -0.1939
     28  CA        15.4470   13.9210  -10.4280 C.3    26  THR26       0.2028
     29  C         14.4590   12.8970  -10.9970 C.2    26  THR26       0.2642
     30  O         13.3830   12.6910  -10.4400 O.2    26  THR26      -0.2714
     31  CB        14.9870   15.3340  -10.8570 C.3    26  THR26       0.1808
     32  OG1       14.9860   15.4220  -12.2890 O.3    26  THR26      -0.2208
     33  CG2       15.9170   16.4150  -10.2970 C.3    26  THR26       0.0379
     34  N         14.8170   12.2690  -12.1140 N.am   27  GLY27      -0.1954
     35  CA        13.9290   11.3210  -12.7840 C.3    27  GLY27       0.1869
     36  C         13.0710   11.9400  -13.8830 C.2    27  GLY27       0.2309
     37  O         12.3490   11.2300  -14.5870 O.2    27  GLY27      -0.2863
     38  N         19.3400    2.7980  -11.8750 N.3    36  ASP36      -0.1239
     39  CA        19.0130    2.1120  -10.6370 C.3    36  ASP36       0.1674
     40  C         19.4400    0.6570  -10.7600 C.2    36  ASP36       0.2266
     41  O         19.5000    0.1170  -11.8670 O.2    36  ASP36      -0.2867
     42  CB        17.5090    2.1770  -10.3450 C.3    36  ASP36       0.1410
     43  CG        16.9740    3.5990  -10.2630 C.2    36  ASP36       0.3668
     44  OD1       17.6910    4.5070   -9.7800 O.co2  36  ASP36      -0.2456
     45  OD2       15.8110    3.8070  -10.6640 O.co2  36  ASP36      -0.2456
     46  N         14.7260   -6.6850   -7.7450 N.3    41  TRP41      -0.1241
     47  CA        13.6220   -5.7110   -7.8140 C.3    41  TRP41       0.1605
     48  C         12.3770   -6.1830   -7.0400 C.2    41  TRP41       0.2264
     49  O         11.3020   -6.3360   -7.6170 O.2    41  TRP41      -0.2867
     50  CB        13.2930   -5.3510   -9.2790 C.3    41  TRP41       0.0550
     51  CG        14.3440   -4.4560   -9.8700 C.ar   41  TRP41       0.0003
     52  CD1       15.4540   -4.8380  -10.5730 C.ar   41  TRP41       0.0946
     53  CD2       14.4110   -3.0310   -9.7570 C.ar   41  TRP41       0.0152
     54  NE1       16.1990   -3.7350  -10.9230 N.ar   41  TRP41      -0.2442
     55  CE2       15.5800   -2.6120  -10.4360 C.ar   41  TRP41       0.0810
     56  CE3       13.5860   -2.0640   -9.1660 C.ar   41  TRP41       0.0012
     57  CZ2       15.9460   -1.2700  -10.5340 C.ar   41  TRP41       0.0191
     58  CZ3       13.9480   -0.7280   -9.2650 C.ar   41  TRP41       0.0001
     59  CH2       15.1180   -0.3440   -9.9450 C.ar   41  TRP41       0.0015
     60  N         22.0560    6.6590   -3.6700 N.3    80  TYR80      -0.1227
     61  CA        20.8250    7.0970   -3.0110 C.3    80  TYR80       0.1736
     62  C         19.8420    5.9430   -2.7430 C.2    80  TYR80       0.2595
     63  O         19.8660    4.9190   -3.4380 O.2    80  TYR80      -0.2718
     64  CB        20.1950    8.2260   -3.8470 C.3    80  TYR80       0.0548
     65  CG        18.9230    8.8400   -3.3080 C.ar   80  TYR80      -0.0200
     66  CD1       18.8730    9.3980   -2.0280 C.ar   80  TYR80      -0.0009
     67  CD2       17.7710    8.8970   -4.1010 C.ar   80  TYR80      -0.0009
     68  CE1       17.7050    9.9730   -1.5420 C.ar   80  TYR80       0.0417
     69  CE2       16.5900    9.4770   -3.6200 C.ar   80  TYR80       0.0417
     70  CZ        16.5660   10.0070   -2.3430 C.ar   80  TYR80       0.1957
     71  OH        15.4090   10.5840   -1.8670 O.3    80  TYR80      -0.2866
     72  N         18.9830    6.1230   -1.7360 N.am   81  HIS81      -0.1975
     73  CA        18.1340    5.0490   -1.1740 C.3    81  HIS81       0.1656
     74  C         19.0010    4.0100   -0.4430 C.2    81  HIS81       0.2291
     75  O         18.7040    2.8090   -0.4620 O.2    81  HIS81      -0.2864
     76  CB        17.2730    4.3330   -2.2350 C.3    81  HIS81       0.0771
     77  CG        16.3840    5.2340   -3.0330 C.ar   81  HIS81       0.0820
     78  ND1       15.5050    6.1240   -2.4550 N.ar   81  HIS81      -0.2267
     79  CD2       16.2060    5.3450   -4.3720 C.ar   81  HIS81       0.1154
     80  CE1       14.8330    6.7540   -3.4050 C.ar   81  HIS81       0.1986
     81  NE2       15.2420    6.3000   -4.5770 N.ar   81  HIS81      -0.2212
     82  N          9.1160    9.5170   -3.3220 N.3   115  SER115     -0.1202
     83  CA         8.4930    8.2450   -3.7270 C.3   115  SER115      0.2020
     84  C          9.4240    7.2310   -4.3540 C.2   115  SER115      0.2619
     85  O         10.4360    7.5920   -4.9740 O.2   115  SER115     -0.2717
     86  CB         7.3280    8.5030   -4.6950 C.3   115  SER115      0.2103
     87  OG         6.2600    9.1170   -4.0050 O.3   115  SER115     -0.2182
     88  N          9.0500    5.9570   -4.2120 N.am  116  SER116     -0.1937
     89  CA         9.7620    4.8520   -4.8460 C.3   116  SER116      0.2055
     90  C          8.9060    3.5840   -4.9180 C.2   116  SER116      0.2643
     91  O          8.0030    3.3850   -4.1070 O.2   116  SER116     -0.2714
     92  CB        11.0720    4.5720   -4.1150 C.3   116  SER116      0.2130
     93  OG        11.7720    3.5210   -4.7430 O.3   116  SER116     -0.2179
     94  N          9.2140    2.7310   -5.8930 N.am  117  THR117     -0.1950
     95  CA         8.4660    1.4970   -6.1420 C.3   117  THR117      0.1897
     96  C          8.8130    0.3570   -5.1840 C.2   117  THR117      0.2313
     97  O          7.9680   -0.4930   -4.8830 O.2   117  THR117     -0.2863
     98  CB         8.7100    0.9880   -7.5750 C.3   117  THR117      0.1794
     99  OG1       10.1200    0.8660   -7.8090 O.3   117  THR117     -0.2208
    100  CG2        8.1080    1.9350   -8.5910 C.3   117  THR117      0.0378
    101  N         15.9150   -0.5810   -4.1610 N.3   120  HIS120     -0.1241
    102  CA        16.9460   -0.4640   -5.1920 C.3   120  HIS120      0.1621
    103  C         17.9370    0.6430   -4.8360 C.2   120  HIS120      0.2264
    104  O         17.6270    1.5330   -4.0370 O.2   120  HIS120     -0.2867
    105  CB        16.3250   -0.1540   -6.5600 C.3   120  HIS120      0.0745
    106  CG        15.7000    1.2030   -6.6410 C.ar  120  HIS120      0.0817
    107  ND1       14.4010    1.4480   -6.2470 N.ar  120  HIS120     -0.2268
    108  CD2       16.1920    2.3890   -7.0740 C.ar  120  HIS120      0.1154
    109  CE1       14.1230    2.7260   -6.4280 C.ar  120  HIS120      0.1986
    110  NE2       15.1940    3.3200   -6.9230 N.ar  120  HIS120     -0.2212
    111  N         19.8670    3.9390   -6.2540 N.3   122  HIS122     -0.1241
    112  CA        19.8670    4.9870   -7.2770 C.3   122  HIS122      0.1621
    113  C         21.2960    5.5090   -7.3730 C.2   122  HIS122      0.2264
    114  O         21.8330    6.0780   -6.4090 O.2   122  HIS122     -0.2867
    115  CB        18.8600    6.0960   -6.9220 C.3   122  HIS122      0.0745
    116  CG        18.9420    7.3160   -7.7910 C.ar  122  HIS122      0.0817
    117  ND1       18.2350    7.4500   -8.9690 N.ar  122  HIS122     -0.2268
    118  CD2       19.6170    8.4790   -7.6260 C.ar  122  HIS122      0.1154
    119  CE1       18.4910    8.6320   -9.5020 C.ar  122  HIS122      0.1986
    120  NE2       19.3270    9.2760   -8.7070 N.ar  122  HIS122     -0.2212
    121  N         14.3160    6.7180  -17.8970 N.3   151  TYR151     -0.1241
    122  CA        13.9750    5.3110  -17.6430 C.3   151  TYR151      0.1605
    123  C         13.7480    4.4600  -18.9020 C.2   151  TYR151      0.2264
    124  O         13.3140    3.3120  -18.7940 O.2   151  TYR151     -0.2867
    125  CB        12.7830    5.1930  -16.6690 C.3   151  TYR151      0.0534
    126  CG        13.0030    5.9100  -15.3590 C.ar  151  TYR151     -0.0201
    127  CD1       12.5420    7.2130  -15.1720 C.ar  151  TYR151     -0.0009
    128  CD2       13.6740    5.2870  -14.3000 C.ar  151  TYR151     -0.0009
    129  CE1       12.7470    7.8910  -13.9660 C.ar  151  TYR151      0.0417
    130  CE2       13.8770    5.9520  -13.0830 C.ar  151  TYR151      0.0417
    131  CZ        13.4120    7.2570  -12.9290 C.ar  151  TYR151      0.1957
    132  OH        13.6070    7.9360  -11.7430 O.3   151  TYR151     -0.2866
@<TRIPOS>BOND
     1   123   124    2
     2   123   122    1
     3   121   122    1
     4   122   125    1
     5   125   126    1
     6     9    10    1
     7    10    11    1
     8    10    13    1
     9     4     3    2
    10     3     2    1
    11    11    12    2
    12   126   127   ar
    13   126   128   ar
    14    13    14    1
    15   127   129   ar
    16     2     1    1
    17     2     5    1
    18    37    36    2
    19   128   130   ar
    20    15    14   ar
    21    15    17   ar
    22     5     6    1
    23    14    16   ar
    24   129   131   ar
    25    36    35    1
    26     7     6    2
    27     6     8   am
    28   130   131   ar
    29    17    18   ar
    30   131   132    1
    31    16    18   ar
    32    35    34    1
    33    19    20    1
    34    32    31    1
    35    34    29   am
    36    38    39    1
    37    41    40    2
    38    29    30    2
    39    29    28    1
    40    54    52   ar
    41    54    55   ar
    42    20    21    1
    43    20    23    1
    44    27    28    1
    45    27    21   am
    46    31    28    1
    47    31    33    1
    48    40    39    1
    49    45    43   ar
    50    39    42    1
    51    52    51   ar
    52    57    55   ar
    53    57    59   ar
    54    55    53   ar
    55    42    43    1
    56    21    22    2
    57    43    44   ar
    58    23    24    1
    59    59    58   ar
    60    51    53   ar
    61    51    50    1
    62    53    56   ar
    63   119   117   ar
    64   119   120   ar
    65    50    47    1
    66    58    56   ar
    67   117   116   ar
    68    24    25    2
    69    24    26   am
    70   120   118   ar
    71   100    98    1
    72    47    46    1
    73    47    48    1
    74    99    98    1
    75   116   118   ar
    76   116   115    1
    77    49    48    2
    78    98    95    1
    79   113   112    1
    80   113   114    2
    81   112   115    1
    82   112   111    1
    83   108   110   ar
    84   108   106   ar
    85   110   109   ar
    86   106   105    1
    87   106   107   ar
    88   105   102    1
    89   109   107   ar
    90    95    94    1
    91    95    96    1
    92    94    90   am
    93   102   103    1
    94   102   101    1
    95    96    97    2
    96    85    84    2
    97    90    89    1
    98    90    91    2
    99    89    88    1
   100    89    92    1
   101   103   104    2
   102    93    92    1
   103    86    87    1
   104    86    83    1
   105    81    79   ar
   106    81    80   ar
   107    79    77   ar
   108    84    88   am
   109    84    83    1
   110    67    69   ar
   111    67    65   ar
   112    64    65    1
   113    64    61    1
   114    83    82    1
   115    60    61    1
   116    69    70   ar
   117    63    62    2
   118    80    78   ar
   119    65    66   ar
   120    77    78   ar
   121    77    76    1
   122    61    62    1
   123    62    72   am
   124    70    71    1
   125    70    68   ar
   126    76    73    1
   127    66    68   ar
   128    72    73    1
   129    73    74    1
   130    75    74    2
