@<TRIPOS>MOLECULE
tmp/3it8D00.pdb
 89 82 0 0 0
SMALL
GASTEIGER

@<TRIPOS>ATOM
      1  N        -20.3140  -30.7820   29.1760 N.3     4  LYS4       -0.1245
      2  CA       -21.6120  -30.9800   29.8160 C.3     4  LYS4        0.1561
      3  C        -21.5580  -31.7880   31.1110 C.2     4  LYS4        0.2260
      4  O        -20.9200  -32.8340   31.1600 O.2     4  LYS4       -0.2867
      5  CB       -22.5740  -31.6640   28.8350 C.3     4  LYS4        0.0271
      6  CG       -23.9730  -31.8230   29.3830 C.3     4  LYS4        0.0035
      7  CD       -24.9310  -32.4800   28.3980 C.3     4  LYS4        0.0206
      8  CE       -24.6620  -33.9620   28.2170 C.3     4  LYS4        0.1093
      9  NZ       -25.7080  -34.6240   27.3700 N.3     4  LYS4       -0.1314
     10  N        -24.0030  -33.6340   34.0090 N.3     6  ASN6       -0.1240
     11  CA       -25.3580  -34.1500   34.2010 C.3     6  ASN6        0.1653
     12  C        -25.4510  -34.8650   35.5410 C.2     6  ASN6        0.2266
     13  O        -24.7880  -35.8730   35.7530 O.2     6  ASN6       -0.2867
     14  CB       -25.6980  -35.1210   33.0440 C.3     6  ASN6        0.1155
     15  CG       -27.1090  -35.7080   33.1230 C.2     6  ASN6        0.2627
     16  OD1      -27.8600  -35.4680   34.0740 O.2     6  ASN6       -0.2716
     17  ND2      -27.4450  -36.4950   32.0980 N.am    6  ASN6       -0.0877
     18  N        -28.0660  -36.7560   38.0960 N.3     8  THR8       -0.1218
     19  CA       -29.4110  -37.3000   38.1020 C.3     8  THR8        0.1862
     20  C        -29.7570  -38.2340   39.2560 C.2     8  THR8        0.2287
     21  O        -29.0500  -39.2130   39.4940 O.2     8  THR8       -0.2866
     22  CB       -29.6820  -38.0560   36.7960 C.3     8  THR8        0.1770
     23  OG1      -29.3540  -37.2180   35.6800 O.3     8  THR8       -0.2211
     24  CG2      -31.1480  -38.4550   36.7100 C.3     8  THR8        0.0375
     25  N        -26.4900  -40.5200   39.7780 N.3    20  VAL20      -0.1245
     26  CA       -25.3920  -40.6390   38.8350 C.3    20  VAL20       0.1561
     27  C        -24.9860  -39.2700   38.3740 C.2    20  VAL20       0.2260
     28  O        -25.7640  -38.3070   38.4150 O.2    20  VAL20      -0.2867
     29  CB       -25.7510  -41.4200   37.5610 C.3    20  VAL20       0.0252
     30  CG1      -25.6180  -42.8960   37.8090 C.3    20  VAL20       0.0019
     31  CG2      -27.1560  -41.0630   37.1140 C.3    20  VAL20       0.0019
     32  N        -22.4760  -37.5060   35.1390 N.3    22  TYR22      -0.1241
     33  CA       -21.6920  -37.7160   33.9330 C.3    22  TYR22       0.1605
     34  C        -21.0160  -36.4250   33.5320 C.2    22  TYR22       0.2264
     35  O        -21.6180  -35.3580   33.5740 O.2    22  TYR22      -0.2867
     36  CB       -22.5630  -38.1940   32.7620 C.3    22  TYR22       0.0534
     37  CG       -23.1510  -39.5750   32.9270 C.ar   22  TYR22      -0.0201
     38  CD1      -24.5010  -39.7430   33.2410 C.ar   22  TYR22      -0.0009
     39  CD2      -22.3590  -40.7160   32.7790 C.ar   22  TYR22      -0.0009
     40  CE1      -25.0500  -41.0120   33.4010 C.ar   22  TYR22       0.0417
     41  CE2      -22.8980  -41.9920   32.9420 C.ar   22  TYR22       0.0417
     42  CZ       -24.2450  -42.1320   33.2490 C.ar   22  TYR22       0.1957
     43  OH       -24.8010  -43.3880   33.3780 O.3    22  TYR22      -0.2866
     44  N        -32.9590  -33.9840   37.2320 N.3    92  SER92      -0.1217
     45  CA       -31.6330  -33.7890   36.6480 C.3    92  SER92       0.1889
     46  C        -31.1370  -32.3450   36.6860 C.2    92  SER92       0.2288
     47  O        -31.9020  -31.3940   36.4660 O.2    92  SER92      -0.2866
     48  CB       -31.6070  -34.2490   35.1900 C.3    92  SER92       0.2089
     49  OG       -31.7710  -35.6420   35.0730 O.3    92  SER92      -0.2183
     50  N        -28.6890  -30.0970   34.7510 N.3    94  ILE94      -0.1245
     51  CA       -27.8930  -29.9970   33.5330 C.3    94  ILE94       0.1561
     52  C        -27.1600  -28.6690   33.5060 C.2    94  ILE94       0.2260
     53  O        -27.7710  -27.6070   33.5130 O.2    94  ILE94      -0.2867
     54  CB       -28.7910  -30.0850   32.2770 C.3    94  ILE94       0.0252
     55  CG1      -29.6340  -31.3570   32.3220 C.3    94  ILE94       0.0019
     56  CG2      -27.9410  -30.0830   31.0220 C.3    94  ILE94       0.0019
     57  CD1      -28.8320  -32.6020   32.4880 C.3    94  ILE94       0.0001
     58  N        -29.6700  -25.6660   34.1950 N.3   109  TYR109     -0.1241
     59  CA       -31.0960  -25.7870   34.4180 C.3   109  TYR109      0.1605
     60  C        -31.4500  -27.1240   35.0450 C.2   109  TYR109      0.2264
     61  O        -30.6340  -28.0470   35.0770 O.2   109  TYR109     -0.2867
     62  CB       -31.8380  -25.6000   33.1080 C.3   109  TYR109      0.0534
     63  CG       -31.4900  -26.6160   32.0500 C.ar  109  TYR109     -0.0201
     64  CD1      -32.1720  -27.8360   31.9640 C.ar  109  TYR109     -0.0009
     65  CD2      -30.5310  -26.3270   31.0750 C.ar  109  TYR109     -0.0009
     66  CE1      -31.9180  -28.7280   30.9280 C.ar  109  TYR109      0.0417
     67  CE2      -30.2650  -27.2170   30.0330 C.ar  109  TYR109      0.0417
     68  CZ       -30.9630  -28.4090   29.9630 C.ar  109  TYR109      0.1957
     69  OH       -30.7260  -29.2650   28.9140 O.3   109  TYR109     -0.2866
     70  N        -34.2160  -30.2200   34.9760 N.3   111  GLU111     -0.1245
     71  CA       -35.3160  -30.8350   34.2480 C.3   111  GLU111      0.1567
     72  C        -35.8340  -32.0530   35.0130 C.2   111  GLU111      0.2260
     73  O        -35.1510  -32.6150   35.8690 O.2   111  GLU111     -0.2867
     74  CB       -34.9190  -31.2230   32.8280 C.3   111  GLU111      0.0388
     75  CG       -33.7210  -32.0990   32.7350 C.3   111  GLU111      0.1160
     76  CD       -33.4010  -32.4640   31.3020 C.2   111  GLU111      0.3649
     77  OE1      -33.5320  -31.5780   30.4180 O.co2 111  GLU111     -0.2457
     78  OE2      -33.0040  -33.6330   31.0630 O.co2 111  GLU111     -0.2457
     79  N        -28.1760  -28.4900   26.0010 N.3   248  PRO248     -0.2102
     80  CA       -28.3370  -29.7950   25.3510 C.3   248  PRO248      0.1504
     81  C        -29.7880  -30.1750   25.0490 C.2   248  PRO248      0.2576
     82  O        -30.0510  -30.9990   24.1660 O.2   248  PRO248     -0.2718
     83  CB       -27.6350  -30.7650   26.3120 C.3   248  PRO248      0.0282
     84  CG       -27.5840  -30.0380   27.6120 C.3   248  PRO248      0.0208
     85  CD       -27.3450  -28.6020   27.2110 C.3   248  PRO248      0.0893
     86  N        -30.7290  -29.5450   25.7420 N.am  249  GLY249     -0.1957
     87  CA       -32.1280  -29.8500   25.5140 C.3   249  GLY249      0.1869
     88  C        -32.7290  -29.3170   24.2220 C.2   249  GLY249      0.2309
     89  O        -33.8570  -29.6690   23.8790 O.2   249  GLY249     -0.2863
@<TRIPOS>BOND
     1    89    88    2
     2    82    81    2
     3    88    87    1
     4    81    80    1
     5    81    86   am
     6    80    79    1
     7    80    83    1
     8    87    86    1
     9    79    85    1
    10    83    84    1
    11    85    84    1
    12     9     8    1
    13     8     7    1
    14     7     6    1
    15     5     6    1
    16     5     2    1
    17    69    68    1
    18     1     2    1
    19     2     3    1
    20    68    67   ar
    21    68    66   ar
    22    67    65   ar
    23    77    76   ar
    24    66    64   ar
    25    56    54    1
    26    78    76   ar
    27    65    63   ar
    28     3     4    2
    29    76    75    1
    30    64    63   ar
    31    63    62    1
    32    17    15   am
    33    54    55    1
    34    54    51    1
    35    55    57    1
    36    75    74    1
    37    36    37    1
    38    36    33    1
    39    39    37   ar
    40    39    41   ar
    41    74    71    1
    42    37    38   ar
    43    41    42   ar
    44    14    15    1
    45    14    11    1
    46    62    59    1
    47    15    16    2
    48    38    40   ar
    49    42    43    1
    50    42    40   ar
    51    52    53    2
    52    52    51    1
    53    34    35    2
    54    34    33    1
    55    51    50    1
    56    33    32    1
    57    10    11    1
    58    58    59    1
    59    11    12    1
    60    71    70    1
    61    71    72    1
    62    59    60    1
    63    72    73    2
    64    60    61    2
    65    49    48    1
    66    48    45    1
    67    12    13    2
    68    23    22    1
    69    47    46    2
    70    45    46    1
    71    45    44    1
    72    24    22    1
    73    22    19    1
    74    31    29    1
    75    29    30    1
    76    29    26    1
    77    18    19    1
    78    19    20    1
    79    27    28    2
    80    27    26    1
    81    26    25    1
    82    20    21    2
