@<TRIPOS>MOLECULE
tmp/3itaD00.pdb
 101 100 0 0 0
SMALL
GASTEIGER

@<TRIPOS>ATOM
      1  N         21.0920  -81.7930   15.3330 N.3   245  PRO245     -0.2102
      2  CA        21.4400  -82.8750   14.4260 C.3   245  PRO245      0.1504
      3  C         20.5670  -84.1080   14.6630 C.2   245  PRO245      0.2575
      4  O         20.4750  -84.9480   13.7830 O.2   245  PRO245     -0.2718
      5  CB        22.9020  -83.1690   14.7790 C.3   245  PRO245      0.0282
      6  CG        23.0170  -82.8210   16.1900 C.3   245  PRO245      0.0208
      7  CD        22.1050  -81.6160   16.3820 C.3   245  PRO245      0.0893
      8  N         19.8910  -84.1840   15.8130 N.am  246  ILE246     -0.1980
      9  CA        18.8450  -85.1870   16.0300 C.3   246  ILE246      0.1595
     10  C         17.5450  -84.5270   16.4690 C.2   246  ILE246      0.2287
     11  O         17.4350  -84.0520   17.6010 O.2   246  ILE246     -0.2864
     12  CB        19.2580  -86.2330   17.0850 C.3   246  ILE246      0.0276
     13  CG1       20.6210  -86.8520   16.7400 C.3   246  ILE246      0.0022
     14  CG2       18.2100  -87.3480   17.1650 C.3   246  ILE246      0.0022
     15  CD1       21.2980  -87.5030   17.9460 C.3   246  ILE246      0.0001
     16  N         17.3250  -91.9760   15.7220 N.3   252  PHE252     -0.1227
     17  CA        18.7770  -91.9170   15.5400 C.3   252  PHE252      0.1736
     18  C         19.3240  -93.2890   15.1300 C.2   252  PHE252      0.2595
     19  O         20.2050  -93.4140   14.2540 O.2   252  PHE252     -0.2718
     20  CB        19.4200  -91.3900   16.8450 C.3   252  PHE252      0.0547
     21  CG        20.9250  -91.3850   16.8280 C.ar  252  PHE252     -0.0202
     22  CD1       21.6130  -90.6960   15.8520 C.ar  252  PHE252     -0.0042
     23  CD2       21.6360  -92.0820   17.7850 C.ar  252  PHE252     -0.0042
     24  CE1       23.0050  -90.7210   15.8190 C.ar  252  PHE252     -0.0003
     25  CE2       23.0200  -92.0900   17.7740 C.ar  252  PHE252     -0.0003
     26  CZ        23.6990  -91.4030   16.7950 C.ar  252  PHE252     -0.0000
     27  N         18.7840  -94.3380   15.7440 N.am  253  VAL253     -0.1980
     28  CA        19.2430  -95.6770   15.4660 C.3   253  VAL253      0.1595
     29  C         18.1310  -96.6160   15.9340 C.2   253  VAL253      0.2287
     30  O         17.3800  -96.2830   16.8270 O.2   253  VAL253     -0.2864
     31  CB        20.5670  -95.9650   16.2230 C.3   253  VAL253      0.0276
     32  CG1       20.3100  -96.0970   17.7280 C.3   253  VAL253      0.0022
     33  CG2       21.2140  -97.2180   15.6750 C.3   253  VAL253      0.0022
     34  N         29.0860  -78.1260   12.1930 N.3   282  LEU282     -0.1231
     35  CA        28.1310  -79.2310   12.2020 C.3   282  LEU282      0.1693
     36  C         28.5920  -80.3430   11.2470 C.2   282  LEU282      0.2591
     37  O         28.5480  -81.5270   11.5770 O.2   282  LEU282     -0.2718
     38  CB        26.7460  -78.7180   11.7640 C.3   282  LEU282      0.0284
     39  CG        25.6710  -79.8060   11.6770 C.3   282  LEU282      0.0019
     40  CD1       25.6210  -80.5870   12.9960 C.3   282  LEU282      0.0001
     41  CD2       24.3180  -79.1840   11.3460 C.3   282  LEU282      0.0001
     42  N         29.0250  -79.9680   10.0510 N.am  283  LYS283     -0.1980
     43  CA        29.4290  -80.9650    9.0840 C.3   283  LYS283      0.1596
     44  C         30.5540  -81.8540    9.6140 C.2   283  LYS283      0.2287
     45  O         30.7670  -82.9440    9.1060 O.2   283  LYS283     -0.2864
     46  CB        29.8180  -80.3180    7.7550 C.3   283  LYS283      0.0298
     47  CG        31.1550  -79.6340    7.7720 C.3   283  LYS283      0.0038
     48  CD        31.2500  -78.6260    6.6370 C.3   283  LYS283      0.0206
     49  CE        32.4610  -77.7240    6.7880 C.3   283  LYS283      0.1093
     50  NZ        32.8250  -77.1210    5.4800 N.3   283  LYS283     -0.1314
     51  N         30.8590  -82.7690   12.9840 N.3   285  LEU285     -0.1231
     52  CA        30.4420  -83.3980   14.2250 C.3   285  LEU285      0.1693
     53  C         30.2320  -84.8890   13.9830 C.2   285  LEU285      0.2592
     54  O         29.6300  -85.2680   12.9800 O.2   285  LEU285     -0.2718
     55  CB        29.1050  -82.7770   14.6190 C.3   285  LEU285      0.0284
     56  CG        28.6140  -82.9190   16.0420 C.3   285  LEU285      0.0019
     57  CD1       29.6250  -82.2530   16.9880 C.3   285  LEU285      0.0001
     58  CD2       27.2270  -82.2610   16.1310 C.3   285  LEU285      0.0001
     59  N         30.7080  -85.7230   14.9020 N.am  286  LYS286     -0.1966
     60  CA        30.5740  -87.1810   14.7720 C.3   286  LYS286      0.1728
     61  C         29.7690  -87.7160   15.9450 C.2   286  LYS286      0.2616
     62  O         30.1180  -87.4870   17.1090 O.2   286  LYS286     -0.2715
     63  CB        31.9500  -87.8740   14.7500 C.3   286  LYS286      0.0311
     64  CG        32.9570  -87.2620   13.7810 C.3   286  LYS286      0.0038
     65  CD        32.7050  -87.6900   12.3540 C.3   286  LYS286      0.0206
     66  CE        33.6160  -86.9400   11.3990 C.3   286  LYS286      0.1093
     67  NZ        33.0590  -86.9350   10.0170 N.3   286  LYS286     -0.1314
     68  N         28.6910  -88.4310   15.6470 N.am  287  ALA287     -0.1963
     69  CA        27.8420  -88.9290   16.7090 C.3   287  ALA287      0.1728
     70  C         28.1040  -90.4180   16.9410 C.2   287  ALA287      0.2617
     71  O         28.4900  -91.1350   16.0240 O.2   287  ALA287     -0.2715
     72  CB        26.3800  -88.6640   16.3730 C.3   287  ALA287      0.0334
     73  N         27.9570  -90.8750   18.1760 N.am  288  SER288     -0.1936
     74  CA        28.1220  -92.2980   18.4750 C.3   288  SER288      0.2055
     75  C         27.2730  -92.5800   19.6920 C.2   288  SER288      0.2643
     76  O         26.8000  -91.6470   20.3390 O.2   288  SER288     -0.2714
     77  CB        29.5910  -92.5830   18.8240 C.3   288  SER288      0.2130
     78  OG        29.9410  -91.9520   20.0590 O.3   288  SER288     -0.2179
     79  N         27.1140  -93.8500   20.0540 N.am  289  TYR289     -0.1973
     80  CA        26.3150  -94.1570   21.2280 C.3   289  TYR289      0.1639
     81  C         26.7870  -95.3920   21.9850 C.2   289  TYR289      0.2290
     82  O         27.4370  -96.2630   21.4260 O.2   289  TYR289     -0.2864
     83  CB        24.8420  -94.2950   20.8280 C.3   289  TYR289      0.0560
     84  CG        24.5590  -95.5160   19.9940 C.ar  289  TYR289     -0.0198
     85  CD1       24.7620  -95.5170   18.6230 C.ar  289  TYR289     -0.0009
     86  CD2       24.1080  -96.6940   20.5900 C.ar  289  TYR289     -0.0009
     87  CE1       24.5230  -96.6490   17.8680 C.ar  289  TYR289      0.0417
     88  CE2       23.8510  -97.8170   19.8380 C.ar  289  TYR289      0.0417
     89  CZ        24.0540  -97.7930   18.4890 C.ar  289  TYR289      0.1957
     90  OH        23.7950  -98.9260   17.7510 O.3   289  TYR289     -0.2866
     91  N         28.6650  -86.7310   21.1390 N.3   311  PHE311     -0.1241
     92  CA        29.0200  -85.9550   19.9680 C.3   311  PHE311      0.1605
     93  C         30.4770  -85.5130   20.0850 C.2   311  PHE311      0.2264
     94  O         30.8680  -84.9760   21.1110 O.2   311  PHE311     -0.2867
     95  CB        28.1200  -84.7310   19.8660 C.3   311  PHE311      0.0534
     96  CG        26.6550  -85.0580   19.7890 C.ar  311  PHE311     -0.0203
     97  CD1       25.8550  -84.9780   20.9130 C.ar  311  PHE311     -0.0042
     98  CD2       26.0800  -85.3890   18.5750 C.ar  311  PHE311     -0.0042
     99  CE1       24.4950  -85.2520   20.8340 C.ar  311  PHE311     -0.0003
    100  CE2       24.7340  -85.6600   18.4890 C.ar  311  PHE311     -0.0003
    101  CZ        23.9400  -85.5850   19.6170 C.ar  311  PHE311     -0.0000
@<TRIPOS>BOND
     1    50    49    1
     2    48    49    1
     3    48    47    1
     4    46    47    1
     5    46    43    1
     6    43    44    1
     7    43    42    1
     8    45    44    2
     9    67    66    1
    10    42    36   am
    11    36    37    2
    12    36    35    1
    13    41    39    1
    14    66    65    1
    15    39    38    1
    16    39    40    1
    17    38    35    1
    18    34    35    1
    19    65    64    1
    20    54    53    2
    21    51    52    1
    22    64    63    1
    23     4     3    2
    24    53    52    1
    25    53    59   am
    26    52    55    1
    27    19    18    2
    28     2     3    1
    29     2     5    1
    30     2     1    1
    31    55    56    1
    32     3     8   am
    33    63    60    1
    34    60    59    1
    35    60    61    1
    36     5     6    1
    37    18    17    1
    38    18    27   am
    39     1     7    1
    40    28    27    1
    41    28    29    1
    42    28    31    1
    43    17    16    1
    44    17    20    1
    45    68    61   am
    46    68    69    1
    47    33    31    1
    48     8     9    1
    49    24    22   ar
    50    24    26   ar
    51    22    21   ar
    52    29    30    2
    53    61    62    2
    54    71    70    2
    55     9    10    1
    56     9    12    1
    57    56    58    1
    58    56    57    1
    59     6     7    1
    60    31    32    1
    61    72    69    1
    62    10    11    2
    63    69    70    1
    64    13    12    1
    65    13    15    1
    66    26    25   ar
    67    21    20    1
    68    21    23   ar
    69    70    73   am
    70    12    14    1
    71    90    89    1
    72    25    23   ar
    73    87    89   ar
    74    87    85   ar
    75    73    74    1
    76    74    77    1
    77    74    75    1
    78   100    98   ar
    79   100   101   ar
    80    89    88   ar
    81    98    96   ar
    82    85    84   ar
    83    77    78    1
    84   101    99   ar
    85    75    79   am
    86    75    76    2
    87    96    95    1
    88    96    97   ar
    89    88    86   ar
    90    95    92    1
    91    92    93    1
    92    92    91    1
    93    84    86   ar
    94    84    83    1
    95    79    80    1
    96    93    94    2
    97    83    80    1
    98    99    97   ar
    99    80    81    1
   100    82    81    2
