@<TRIPOS>MOLECULE
tmp/3itaA00.pdb
 122 113 0 0 0
SMALL
GASTEIGER

@<TRIPOS>ATOM
      1  N         12.5650   -6.1200    4.7060 N.3    35  ALA35      -0.1231
      2  CA        12.9490   -7.4410    4.2010 C.3    35  ALA35       0.1694
      3  C         11.8790   -7.9450    3.2150 C.2    35  ALA35       0.2592
      4  O         11.6200   -7.2570    2.2300 O.2    35  ALA35      -0.2718
      5  CB        13.2230   -8.4140    5.3320 C.3    35  ALA35       0.0304
      6  N         11.2590   -9.0960    3.4380 N.am   36  SER36      -0.1952
      7  CA        10.3710   -9.6530    2.3700 C.3    36  SER36       0.1924
      8  C          9.1750   -8.7740    2.0120 C.2    36  SER36       0.2314
      9  O          8.5620   -8.9350    0.9480 O.2    36  SER36      -0.2863
     10  CB         9.7320  -10.9600    2.7970 C.3    36  SER36       0.2116
     11  OG        10.7710  -11.9360    2.7720 O.3    36  SER36      -0.2180
     12  N          8.5540   -6.8300   -1.3320 N.3    39  LYS39      -0.1245
     13  CA         7.9550   -7.3850   -2.5420 C.3    39  LYS39       0.1561
     14  C          6.5050   -6.8880   -2.7230 C.2    39  LYS39       0.2260
     15  O          5.9500   -6.9920   -3.8120 O.2    39  LYS39      -0.2867
     16  CB         7.9690   -8.9100   -2.4380 C.3    39  LYS39       0.0271
     17  CG         9.3650   -9.4970   -2.6620 C.3    39  LYS39       0.0035
     18  CD         9.2870  -11.0000   -2.7660 C.3    39  LYS39       0.0206
     19  CE        10.6710  -11.6200   -2.5880 C.3    39  LYS39       0.1093
     20  NZ        10.8240  -11.9800   -1.1460 N.3    39  LYS39      -0.1314
     21  N         20.1620  -19.6180   -1.1310 N.3    77  GLY77      -0.1210
     22  CA        19.2540  -20.1470   -0.1120 C.3    77  GLY77       0.1956
     23  C         18.2640  -19.1080    0.3760 C.2    77  GLY77       0.2613
     24  O         17.9670  -19.0290    1.5620 O.2    77  GLY77      -0.2717
     25  N         17.7600  -18.2980   -0.5460 N.am   78  SER78      -0.1938
     26  CA        16.5140  -17.5740   -0.3270 C.3    78  SER78       0.2055
     27  C         15.3830  -18.2450   -1.1010 C.2    78  SER78       0.2643
     28  O         15.6320  -19.1270   -1.9220 O.2    78  SER78      -0.2714
     29  CB        16.6670  -16.1110   -0.7610 C.3    78  SER78       0.2130
     30  OG        16.9690  -16.0040   -2.1440 O.3    78  SER78      -0.2179
     31  N         14.1450  -17.8290   -0.8440 N.am   79  SER79      -0.1949
     32  CA        13.0140  -18.3050   -1.6390 C.3    79  SER79       0.1924
     33  C         13.1360  -18.0010   -3.1370 C.2    79  SER79       0.2314
     34  O         13.3480  -16.8460   -3.5380 O.2    79  SER79      -0.2863
     35  CB        11.6920  -17.7690   -1.0990 C.3    79  SER79       0.2116
     36  OG        10.6110  -18.2880   -1.8650 O.3    79  SER79      -0.2180
     37  N          6.6300  -15.4690   -3.4450 N.3   102  SER102     -0.1217
     38  CA         7.6720  -14.5420   -2.9800 C.3   102  SER102      0.1889
     39  C          9.0750  -14.9760   -3.3960 C.2   102  SER102      0.2288
     40  O         10.0110  -14.9230   -2.5950 O.2   102  SER102     -0.2866
     41  CB         7.6230  -14.4000   -1.4520 C.3   102  SER102      0.2089
     42  OG         6.8330  -13.2910   -1.0550 O.3   102  SER102     -0.2183
     43  N         12.6980  -14.7020   -5.0210 N.3   104  ASN104     -0.1240
     44  CA        13.6080  -13.5820   -5.1620 C.3   104  ASN104      0.1653
     45  C         14.1630  -13.5170   -6.5810 C.2   104  ASN104      0.2266
     46  O         14.4420  -12.4300   -7.1030 O.2   104  ASN104     -0.2867
     47  CB        14.7360  -13.7020   -4.1200 C.3   104  ASN104      0.1155
     48  CG        14.2270  -13.5540   -2.6850 C.2   104  ASN104      0.2627
     49  OD1       13.3000  -12.7980   -2.4360 O.2   104  ASN104     -0.2716
     50  ND2       14.8350  -14.2680   -1.7400 N.am  104  ASN104     -0.0877
     51  N         13.8910   -7.5780   -1.3350 N.3   144  GLY144     -0.1210
     52  CA        13.7530   -7.4230    0.1080 C.3   144  GLY144      0.1956
     53  C         14.7230   -8.2850    0.9010 C.2   144  GLY144      0.2612
     54  O         14.4790   -8.5960    2.0640 O.2   144  GLY144     -0.2717
     55  N         15.8160   -8.6950    0.2660 N.am  145  LEU145     -0.1965
     56  CA        16.8850   -9.3340    1.0150 C.3   145  LEU145      0.1728
     57  C         17.4100   -8.2400    1.9470 C.2   145  LEU145      0.2616
     58  O         17.6450   -7.1220    1.5020 O.2   145  LEU145     -0.2715
     59  CB        17.9540   -9.8620    0.0470 C.3   145  LEU145      0.0311
     60  CG        17.5120  -11.0990   -0.7520 C.3   145  LEU145      0.0022
     61  CD1       18.5090  -11.5030   -1.8260 C.3   145  LEU145      0.0001
     62  CD2       17.1620  -12.2870    0.1490 C.3   145  LEU145      0.0001
     63  N         17.5030   -8.5330    3.2460 N.am  146  ASP146     -0.1971
     64  CA        17.9990   -7.5460    4.2110 C.3   146  ASP146      0.1709
     65  C         19.2120   -6.8500    3.5820 C.2   146  ASP146      0.2293
     66  O         20.0100   -7.4940    2.8930 O.2   146  ASP146     -0.2864
     67  CB        18.3890   -8.2020    5.5550 C.3   146  ASP146      0.1436
     68  CG        17.1800   -8.7680    6.3290 C.2   146  ASP146      0.3671
     69  OD1       16.6350   -8.0790    7.2320 O.co2 146  ASP146     -0.2456
     70  OD2       16.7900   -9.9240    6.0510 O.co2 146  ASP146     -0.2456
     71  N          2.2030  -18.6020    1.6330 N.3   190  ARG190     -0.1245
     72  CA         2.5000  -18.7130    3.0860 C.3   190  ARG190      0.1563
     73  C          1.6040  -17.8770    4.0020 C.2   190  ARG190      0.2260
     74  O          1.6860  -17.9860    5.2220 O.2   190  ARG190     -0.2867
     75  CB         3.9770  -18.4360    3.3540 C.3   190  ARG190      0.0307
     76  CG         4.8640  -19.5810    2.8060 C.3   190  ARG190      0.0489
     77  CD         6.3170  -19.4180    3.2560 C.3   190  ARG190      0.2205
     78  NE         6.3810  -19.4250    4.7210 N.pl3 190  ARG190     -0.0865
     79  CZ         6.4670  -20.5270    5.4630 C.cat 190  ARG190      0.5346
     80  NH1        6.4820  -20.4350    6.7880 N.pl3 190  ARG190      0.1354
     81  NH2        6.5350  -21.7150    4.8820 N.pl3 190  ARG190      0.1354
     82  N          3.8520  -11.9570    3.9240 N.3   206  THR206     -0.1203
     83  CA         4.5740  -12.2900    5.1480 C.3   206  THR206      0.1994
     84  C          6.0620  -11.9630    5.0160 C.2   206  THR206      0.2618
     85  O          6.5830  -11.8190    3.9080 O.2   206  THR206     -0.2717
     86  CB         4.4620  -13.8020    5.4670 C.3   206  THR206      0.1784
     87  OG1        5.1310  -14.5530    4.4400 O.3   206  THR206     -0.2211
     88  CG2        2.9790  -14.2340    5.5670 C.3   206  THR206      0.0376
     89  N          6.7410  -11.8430    6.1510 N.am  207  GLY207     -0.1942
     90  CA         8.1940  -11.6450    6.1460 C.3   207  GLY207      0.2014
     91  C          8.8050  -11.8320    7.5240 C.2   207  GLY207      0.2639
     92  O          8.1270  -12.0460    8.5120 O.2   207  GLY207     -0.2714
     93  N         10.1160  -11.6860    7.5820 N.am  208  THR208     -0.1950
     94  CA        10.8040  -11.5990    8.8610 C.3   208  THR208      0.1897
     95  C         11.7340  -10.4000    8.7830 C.2   208  THR208      0.2313
     96  O         12.0910   -9.9510    7.6840 O.2   208  THR208     -0.2863
     97  CB        11.6710  -12.8710    9.0880 C.3   208  THR208      0.1794
     98  OG1       12.5290  -13.0430    7.9660 O.3   208  THR208     -0.2208
     99  CG2       10.7880  -14.0750    9.1800 C.3   208  THR208      0.0378
    100  N          8.7420  -11.9400   13.4150 N.3   214  TYR214     -0.1241
    101  CA         7.9100  -12.3430   12.2630 C.3   214  TYR214      0.1605
    102  C          6.8700  -11.2610   11.9320 C.2   214  TYR214      0.2264
    103  O          6.2550  -10.7080   12.8550 O.2   214  TYR214     -0.2867
    104  CB         7.1810  -13.6310   12.6070 C.3   214  TYR214      0.0534
    105  CG         8.1430  -14.8200   12.7800 C.ar  214  TYR214     -0.0201
    106  CD1        8.7440  -15.0870   14.0060 C.ar  214  TYR214     -0.0009
    107  CD2        8.4670  -15.6450   11.7040 C.ar  214  TYR214     -0.0009
    108  CE1        9.6430  -16.1600   14.1630 C.ar  214  TYR214      0.0417
    109  CE2        9.3690  -16.7210   11.8520 C.ar  214  TYR214      0.0417
    110  CZ         9.9390  -16.9780   13.0850 C.ar  214  TYR214      0.1957
    111  OH        10.8200  -18.0410   13.2370 O.3   214  TYR214     -0.2866
    112  N          2.4880  -14.0520   15.0040 N.3   240  ARG240     -0.1245
    113  CA         2.4020  -13.2250   13.8140 C.3   240  ARG240      0.1563
    114  C          0.9840  -13.2730   13.2130 C.2   240  ARG240      0.2260
    115  O          0.4070  -12.2220   12.8760 O.2   240  ARG240     -0.2867
    116  CB         3.4510  -13.7210   12.8020 C.3   240  ARG240      0.0307
    117  CG         3.4810  -13.0190   11.4390 C.3   240  ARG240      0.0489
    118  CD         3.2170  -13.9830   10.2730 C.3   240  ARG240      0.2205
    119  NE         4.1830  -15.0860   10.1560 N.pl3 240  ARG240     -0.0865
    120  CZ         5.3420  -15.0440    9.4770 C.cat 240  ARG240      0.5346
    121  NH1        5.7750  -13.9400    8.9100 N.pl3 240  ARG240      0.1354
    122  NH2        6.1220  -16.1230    9.4090 N.pl3 240  ARG240      0.1354
@<TRIPOS>BOND
     1    46    45    2
     2    45    44    1
     3    44    43    1
     4    44    47    1
     5    47    48    1
     6    15    14    2
     7    34    33    2
     8    37    38    1
     9    39    38    1
    10    39    40    2
    11    33    32    1
    12    38    41    1
    13    18    17    1
    14    18    19    1
    15    14    13    1
    16    48    49    2
    17    48    50   am
    18    17    16    1
    19    19    20    1
    20    13    16    1
    21    13    12    1
    22    30    29    1
    23    28    27    2
    24    36    35    1
    25    61    60    1
    26    32    35    1
    27    32    31    1
    28    41    42    1
    29    51    52    1
    30    21    22    1
    31    27    31   am
    32    27    26    1
    33    29    26    1
    34    60    59    1
    35    60    62    1
    36    25    26    1
    37    25    23   am
    38    22    23    1
    39    59    56    1
    40    52    53    1
    41    55    53   am
    42    55    56    1
    43    23    24    2
    44    53    54    2
    45     9     8    2
    46    56    57    1
    47    58    57    2
    48    71    72    1
    49    57    63   am
    50     8     7    1
    51     4     3    2
    52     7    10    1
    53     7     6    1
    54    11    10    1
    55    76    77    1
    56    76    75    1
    57    66    65    2
    58    72    75    1
    59    72    73    1
    60     3     6   am
    61     3     2    1
    62    63    64    1
    63    77    78    1
    64    65    64    1
    65    85    84    2
    66    82    83    1
    67    73    74    2
    68     2     1    1
    69     2     5    1
    70    64    67    1
    71    87    86    1
    72    78    79    2
    73    81    79    1
    74    84    83    1
    75    84    89   am
    76    83    86    1
    77    79    80    1
    78    86    88    1
    79    67    68    1
    80    70    68   ar
    81    90    89    1
    82    90    91    1
    83    68    69   ar
    84    91    93   am
    85    91    92    2
    86    93    94    1
    87    96    95    2
    88    98    97    1
    89    95    94    1
    90    94    97    1
    91   121   120    1
    92    97    99    1
    93   122   120    1
    94   120   119    2
    95   119   118    1
    96   118   117    1
    97   117   116    1
    98   107   109   ar
    99   107   105   ar
   100   109   110   ar
   101   102   101    1
   102   102   103    2
   103   101   104    1
   104   101   100    1
   105   104   105    1
   106   105   106   ar
   107   116   113    1
   108   115   114    2
   109   110   111    1
   110   110   108   ar
   111   114   113    1
   112   113   112    1
   113   106   108   ar
