@<TRIPOS>MOLECULE
tmp/3itcA00.pdb
 119 114 0 0 0
SMALL
GASTEIGER

@<TRIPOS>ATOM
      1  N        -19.1200  -26.6350  -20.3700 N.3    22  ASP22      -0.1239
      2  CA       -18.9450  -27.8670  -19.5950 C.3    22  ASP22       0.1674
      3  C        -17.6000  -28.5450  -19.8120 C.2    22  ASP22       0.2266
      4  O        -17.4840  -29.7600  -19.5580 O.2    22  ASP22      -0.2867
      5  CB       -20.1090  -28.8540  -19.8580 C.3    22  ASP22       0.1410
      6  CG       -21.3100  -28.6170  -18.9650 C.2    22  ASP22       0.3668
      7  OD1      -22.4520  -28.5280  -19.4730 O.co2  22  ASP22      -0.2456
      8  OD2      -21.1380  -28.4950  -17.7100 O.co2  22  ASP22      -0.2456
      9  N        -24.1470  -26.4430  -11.5570 N.3   123  GLU123     -0.1245
     10  CA       -25.2670  -26.8010  -12.4260 C.3   123  GLU123      0.1567
     11  C        -26.1660  -27.8170  -11.7380 C.2   123  GLU123      0.2260
     12  O        -26.0730  -29.0120  -12.0180 O.2   123  GLU123     -0.2867
     13  CB       -24.7980  -27.2960  -13.8050 C.3   123  GLU123      0.0388
     14  CG       -25.9970  -27.4150  -14.7560 C.3   123  GLU123      0.1160
     15  CD       -25.6630  -27.6880  -16.1940 C.2   123  GLU123      0.3649
     16  OE1      -24.5660  -28.2120  -16.4990 O.co2 123  GLU123     -0.2457
     17  OE2      -26.5130  -27.3110  -17.0540 O.co2 123  GLU123     -0.2457
     18  N        -30.7570  -29.5410  -12.4030 N.3   150  HIS150     -0.1226
     19  CA       -30.3760  -29.9850  -13.7360 C.3   150  HIS150      0.1752
     20  C        -31.6010  -30.6550  -14.3570 C.2   150  HIS150      0.2596
     21  O        -32.6950  -30.0720  -14.3040 O.2   150  HIS150     -0.2718
     22  CB       -29.0840  -30.8180  -13.6630 C.3   150  HIS150      0.0759
     23  CG       -28.5530  -31.1870  -15.0160 C.ar  150  HIS150      0.0818
     24  ND1      -28.5350  -32.5090  -15.4640 N.ar  150  HIS150     -0.2268
     25  CD2      -28.0610  -30.4540  -16.0380 C.ar  150  HIS150      0.1154
     26  CE1      -28.0500  -32.5510  -16.6880 C.ar  150  HIS150      0.1986
     27  NE2      -27.7380  -31.3120  -17.0610 N.ar  150  HIS150     -0.2212
     28  N        -31.5050  -31.8320  -14.9350 N.am  151  ASN151     -0.1974
     29  CA       -32.6120  -32.4440  -15.6850 C.3   151  ASN151      0.1688
     30  C        -33.6700  -33.1710  -14.8890 C.2   151  ASN151      0.2292
     31  O        -34.7010  -33.5480  -15.4310 O.2   151  ASN151     -0.2864
     32  CB       -31.9150  -33.4280  -16.6430 C.3   151  ASN151      0.1181
     33  CG       -31.2110  -32.9490  -17.8690 C.2   151  ASN151      0.2629
     34  OD1      -30.5040  -33.6350  -18.6400 O.2   151  ASN151     -0.2716
     35  ND2      -31.3360  -31.6900  -18.1970 N.am  151  ASN151     -0.0877
     36  N        -32.6200  -24.8550  -17.1020 N.3   191  HIS191     -0.1241
     37  CA       -32.9990  -26.2210  -16.6910 C.3   191  HIS191      0.1621
     38  C        -34.2160  -26.3000  -15.8110 C.2   191  HIS191      0.2264
     39  O        -34.7250  -27.4180  -15.6680 O.2   191  HIS191     -0.2867
     40  CB       -31.8540  -26.9630  -15.9840 C.3   191  HIS191      0.0745
     41  CG       -30.7940  -27.4560  -16.9190 C.ar  191  HIS191      0.0817
     42  ND1      -30.9350  -28.6430  -17.5730 N.ar  191  HIS191     -0.2268
     43  CD2      -29.6010  -26.9830  -17.3470 C.ar  191  HIS191      0.1154
     44  CE1      -29.8910  -28.8810  -18.3440 C.ar  191  HIS191      0.1986
     45  NE2      -29.0360  -27.8690  -18.2420 N.ar  191  HIS191     -0.2212
     46  N        -27.8770  -20.5880  -19.9070 N.3   212  HIS212     -0.1241
     47  CA       -27.9360  -21.1760  -21.2420 C.3   212  HIS212      0.1621
     48  C        -29.3800  -21.6030  -21.5430 C.2   212  HIS212      0.2264
     49  O        -29.7310  -22.7810  -21.4010 O.2   212  HIS212     -0.2867
     50  CB       -26.9700  -22.3430  -21.4180 C.3   212  HIS212      0.0745
     51  CG       -27.0580  -23.5880  -20.6600 C.ar  212  HIS212      0.0817
     52  ND1      -26.9020  -23.5750  -19.3390 N.ar  212  HIS212     -0.2268
     53  CD2      -27.2160  -24.9280  -20.8010 C.ar  212  HIS212      0.1154
     54  CE1      -26.9830  -24.6510  -18.5900 C.ar  212  HIS212      0.1986
     55  NE2      -27.1660  -25.5180  -19.5640 N.ar  212  HIS212     -0.2212
     56  N        -37.0620  -26.2520  -21.9640 N.3   223  ARG223     -0.1245
     57  CA       -35.7140  -25.8730  -21.5910 C.3   223  ARG223      0.1563
     58  C        -35.5750  -24.3870  -21.9510 C.2   223  ARG223      0.2260
     59  O        -34.6090  -23.7610  -21.4910 O.2   223  ARG223     -0.2867
     60  CB       -34.5670  -26.6720  -22.2330 C.3   223  ARG223      0.0307
     61  CG       -34.0600  -27.8230  -21.4040 C.3   223  ARG223      0.0489
     62  CD       -33.3070  -27.3220  -20.1720 C.3   223  ARG223      0.2205
     63  NE       -31.9290  -26.9510  -20.4900 N.pl3 223  ARG223     -0.0865
     64  CZ       -31.4180  -25.7270  -20.5770 C.cat 223  ARG223      0.5346
     65  NH1      -30.1300  -25.6230  -20.8690 N.pl3 223  ARG223      0.1354
     66  NH2      -32.1190  -24.6200  -20.4130 N.pl3 223  ARG223      0.1354
     67  N        -27.6810  -24.9160  -28.4260 N.3   245  VAL245     -0.1245
     68  CA       -28.1310  -26.3190  -28.5410 C.3   245  VAL245      0.1561
     69  C        -29.1710  -26.4440  -29.6620 C.2   245  VAL245      0.2260
     70  O        -30.2680  -25.8590  -29.5970 O.2   245  VAL245     -0.2867
     71  CB       -28.7400  -26.8030  -27.2170 C.3   245  VAL245      0.0252
     72  CG1      -29.2950  -28.2160  -27.3110 C.3   245  VAL245      0.0019
     73  CG2      -27.7450  -26.7160  -26.0490 C.3   245  VAL245      0.0019
     74  N        -31.4380  -28.5970  -30.6740 N.3   247  LYS247     -0.1231
     75  CA       -32.8160  -28.9210  -30.2870 C.3   247  LYS247      0.1693
     76  C        -33.4690  -27.9040  -29.3810 C.2   247  LYS247      0.2592
     77  O        -34.6670  -27.9560  -29.0610 O.2   247  LYS247     -0.2718
     78  CB       -32.8420  -30.3230  -29.6890 C.3   247  LYS247      0.0285
     79  CG       -32.3310  -30.4700  -28.2690 C.3   247  LYS247      0.0035
     80  CD       -32.9900  -31.7370  -27.7420 C.3   247  LYS247      0.0206
     81  CE       -32.2480  -32.4500  -26.6340 C.3   247  LYS247      0.1093
     82  NZ       -33.1740  -33.4600  -25.9940 N.3   247  LYS247     -0.1314
     83  N        -32.7480  -26.8720  -28.9510 N.am  248  PHE248     -0.1976
     84  CA       -33.4520  -25.7930  -28.2760 C.3   248  PHE248      0.1639
     85  C        -33.6060  -24.5540  -29.1490 C.2   248  PHE248      0.2290
     86  O        -34.2670  -23.5640  -28.7920 O.2   248  PHE248     -0.2864
     87  CB       -32.6890  -25.3860  -27.0160 C.3   248  PHE248      0.0560
     88  CG       -32.5270  -26.4910  -25.9830 C.ar  248  PHE248     -0.0200
     89  CD1      -31.4980  -26.3680  -25.0570 C.ar  248  PHE248     -0.0042
     90  CD2      -33.3520  -27.5890  -25.9590 C.ar  248  PHE248     -0.0042
     91  CE1      -31.2740  -27.3700  -24.1230 C.ar  248  PHE248     -0.0003
     92  CE2      -33.1370  -28.5710  -25.0230 C.ar  248  PHE248     -0.0003
     93  CZ       -32.1060  -28.4620  -24.1100 C.ar  248  PHE248     -0.0000
     94  N        -23.1990  -23.4430  -24.0930 N.3   320  ASP320     -0.1239
     95  CA       -23.1920  -24.8480  -23.6800 C.3   320  ASP320      0.1674
     96  C        -22.1000  -25.6530  -24.3690 C.2   320  ASP320      0.2266
     97  O        -22.2070  -26.8800  -24.5390 O.2   320  ASP320     -0.2867
     98  CB       -24.5590  -25.5060  -23.9300 C.3   320  ASP320      0.1410
     99  CG       -24.8900  -26.6840  -23.0690 C.2   320  ASP320      0.3668
    100  OD1      -24.3390  -26.8690  -21.9640 O.co2 320  ASP320     -0.2456
    101  OD2      -25.7810  -27.4640  -23.4980 O.co2 320  ASP320     -0.2456
    102  N        -20.7810  -29.3320  -23.5250 N.3   323  GLY323     -0.1210
    103  CA       -21.9380  -29.7700  -22.8100 C.3   323  GLY323      0.1956
    104  C        -23.0670  -30.3470  -23.6290 C.2   323  GLY323      0.2613
    105  O        -24.0980  -30.7550  -23.0920 O.2   323  GLY323     -0.2717
    106  N        -22.8420  -30.3450  -24.9230 N.am  324  THR324     -0.1939
    107  CA       -23.8680  -30.7080  -25.9160 C.3   324  THR324      0.2013
    108  C        -23.1430  -31.3030  -27.1070 C.2   324  THR324      0.2484
    109  O        -22.0680  -30.8240  -27.4980 O.2   324  THR324     -0.2729
    110  CB       -24.7290  -29.4870  -26.2740 C.3   324  THR324      0.1807
    111  OG1      -25.8160  -29.8910  -27.1080 O.3   324  THR324     -0.2208
    112  CG2      -23.9790  -28.4630  -27.1020 C.3   324  THR324      0.0379
    113  N        -23.6640  -32.4030  -27.6510 N.am  325  PRO325     -0.2726
    114  CA       -22.9260  -33.0980  -28.7020 C.3   325  PRO325      0.1402
    115  C        -23.0500  -32.4420  -30.0620 C.2   325  PRO325      0.2269
    116  O        -22.1350  -32.6040  -30.8700 O.2   325  PRO325     -0.2865
    117  CB       -23.5800  -34.4760  -28.7240 C.3   325  PRO325      0.0296
    118  CG       -24.9400  -34.2620  -28.1790 C.3   325  PRO325      0.0237
    119  CD       -24.8770  -33.1020  -27.2070 C.3   325  PRO325      0.0939
@<TRIPOS>BOND
     1   116   115    2
     2    74    75    1
     3    75    78    1
     4    75    76    1
     5   115   114    1
     6    78    79    1
     7    69    70    2
     8    69    68    1
     9    76    77    2
    10    76    83   am
    11    85    86    2
    12    85    84    1
    13    83    84    1
    14   117   114    1
    15   117   118    1
    16   114   113    1
    17    68    67    1
    18    68    71    1
    19    84    87    1
    20    79    80    1
    21   118   119    1
    22    80    81    1
    23   113   119    1
    24   113   108   am
    25   109   108    2
    26    72    71    1
    27    71    73    1
    28   111   110    1
    29   108   107    1
    30   112   110    1
    31    87    88    1
    32    81    82    1
    33   110   107    1
    34    88    90   ar
    35    88    89   ar
    36    90    92   ar
    37   107   106    1
    38    89    91   ar
    39    92    93   ar
    40   106   104   am
    41    97    96    2
    42    96    95    1
    43    91    93   ar
    44    94    95    1
    45    98    95    1
    46    98    99    1
    47   104   105    2
    48   104   103    1
    49   102   103    1
    50   101    99   ar
    51    99   100   ar
    52    60    57    1
    53    60    61    1
    54    56    57    1
    55    58    57    1
    56    58    59    2
    57    48    49    2
    58    48    47    1
    59    50    47    1
    60    50    51    1
    61    61    62    1
    62    47    46    1
    63    65    64    1
    64    53    51   ar
    65    53    55   ar
    66    51    52   ar
    67    64    63    2
    68    64    66    1
    69    63    62    1
    70     1     2    1
    71     5     2    1
    72     5     6    1
    73     3     2    1
    74     3     4    2
    75    55    54   ar
    76     7     6   ar
    77    52    54   ar
    78     6     8   ar
    79    34    33    2
    80    44    45   ar
    81    44    42   ar
    82    45    43   ar
    83    35    33   am
    84    33    32    1
    85    42    41   ar
    86    43    41   ar
    87    36    37    1
    88    27    26   ar
    89    27    25   ar
    90    17    15   ar
    91    41    40    1
    92    37    40    1
    93    37    38    1
    94    26    24   ar
    95    32    29    1
    96    16    15   ar
    97    15    14    1
    98    25    23   ar
    99    38    39    2
   100    29    28    1
   101    29    30    1
   102    24    23   ar
   103    31    30    2
   104    23    22    1
   105    28    20   am
   106    14    13    1
   107    20    21    2
   108    20    19    1
   109    13    10    1
   110    19    22    1
   111    19    18    1
   112    10    11    1
   113    10     9    1
   114    12    11    2
