@<TRIPOS>MOLECULE
tmp/3ithC00.pdb
 100 96 0 0 0
SMALL
GASTEIGER

@<TRIPOS>ATOM
      1  N         22.7080  -14.4420    4.9630 N.3   183  TYR183     -0.1227
      2  CA        24.0930  -14.1410    5.3390 C.3   183  TYR183      0.1736
      3  C         25.1320  -14.6910    4.3620 C.2   183  TYR183      0.2595
      4  O         25.6660  -15.7760    4.5560 O.2   183  TYR183     -0.2718
      5  CB        24.4280  -14.5890    6.7620 C.3   183  TYR183      0.0548
      6  CG        25.7240  -13.9700    7.2100 C.ar  183  TYR183     -0.0200
      7  CD1       25.8010  -12.6030    7.4810 C.ar  183  TYR183     -0.0009
      8  CD2       26.8790  -14.7240    7.3060 C.ar  183  TYR183     -0.0009
      9  CE1       26.9800  -12.0180    7.8580 C.ar  183  TYR183      0.0417
     10  CE2       28.0700  -14.1480    7.6870 C.ar  183  TYR183      0.0417
     11  CZ        28.1150  -12.7940    7.9610 C.ar  183  TYR183      0.1957
     12  OH        29.3050  -12.2160    8.3440 O.3   183  TYR183     -0.2866
     13  N         25.4300  -13.9100    3.3300 N.am  184  MET184     -0.1965
     14  CA        26.2890  -14.3580    2.2430 C.3   184  MET184      0.1736
     15  C         25.6540  -15.5670    1.5540 C.2   184  MET184      0.2616
     16  O         24.4310  -15.6900    1.5000 O.2   184  MET184     -0.2715
     17  CB        27.7020  -14.6800    2.7510 C.3   184  MET184      0.0427
     18  CG        28.5000  -13.4470    3.2110 C.3   184  MET184      0.0599
     19  SD        30.2970  -13.6920    3.3840 S.3   184  MET184     -0.1393
     20  CE        30.3540  -15.2050    4.3480 C.3   184  MET184      0.0692
     21  N         26.4840  -16.4560    1.0260 N.am  185  ASP185     -0.1957
     22  CA        26.0020  -17.6520    0.3520 C.3   185  ASP185      0.1840
     23  C         24.9110  -18.3850    1.1430 C.2   185  ASP185      0.2622
     24  O         23.9750  -18.9160    0.5560 O.2   185  ASP185     -0.2715
     25  CB        27.1760  -18.5910    0.1040 C.3   185  ASP185      0.1450
     26  CG        27.8890  -18.9700    1.3890 C.2   185  ASP185      0.3671
     27  OD1       27.4780  -19.9800    2.0110 O.co2 185  ASP185     -0.2456
     28  OD2       28.8470  -18.2520    1.7750 O.co2 185  ASP185     -0.2456
     29  N         25.0240  -18.4110    2.4690 N.am  186  ASP186     -0.1971
     30  CA        24.0970  -19.1810    3.3130 C.3   186  ASP186      0.1709
     31  C         22.7560  -18.4760    3.5710 C.2   186  ASP186      0.2293
     32  O         22.7250  -17.2890    3.9070 O.2   186  ASP186     -0.2864
     33  CB        24.7540  -19.5250    4.6590 C.3   186  ASP186      0.1436
     34  CG        25.8120  -20.6090    4.5430 C.2   186  ASP186      0.3671
     35  OD1       25.6850  -21.4860    3.6580 O.co2 186  ASP186     -0.2456
     36  OD2       26.7670  -20.5800    5.3480 O.co2 186  ASP186     -0.2456
     37  N         24.8070  -26.8380    8.9810 N.3   228  LEU228     -0.1245
     38  CA        25.6010  -25.6330    9.1460 C.3   228  LEU228      0.1561
     39  C         25.0090  -24.3220    8.6120 C.2   228  LEU228      0.2260
     40  O         24.4870  -24.2570    7.4910 O.2   228  LEU228     -0.2867
     41  CB        26.9900  -25.8580    8.5650 C.3   228  LEU228      0.0270
     42  CG        27.9820  -26.1870    9.6710 C.3   228  LEU228      0.0019
     43  CD1       27.4680  -27.3270   10.5410 C.3   228  LEU228      0.0001
     44  CD2       29.3470  -26.4930    9.0910 C.3   228  LEU228      0.0001
     45  N         26.5330  -20.3280    8.5340 N.3   230  MET230     -0.1230
     46  CA        27.5510  -19.3480    8.8390 C.3   230  MET230      0.1702
     47  C         28.6970  -19.9580    9.6000 C.2   230  MET230      0.2592
     48  O         29.5240  -19.2250   10.1350 O.2   230  MET230     -0.2718
     49  CB        26.9930  -18.2160    9.6920 C.3   230  MET230      0.0401
     50  CG        25.8260  -17.4790    9.1280 C.3   230  MET230      0.0596
     51  SD        25.5640  -16.1010   10.2440 S.3   230  MET230     -0.1393
     52  CE        27.2290  -15.4660   10.3550 C.3   230  MET230      0.0692
     53  N         28.7540  -21.2840    9.6550 N.am  231  GLY231     -0.1957
     54  CA        29.8390  -21.9570   10.3400 C.3   231  GLY231      0.1869
     55  C         29.3900  -22.3250   11.7300 C.2   231  GLY231      0.2309
     56  O         30.1290  -22.9300   12.5030 O.2   231  GLY231     -0.2863
     57  N         38.1880  -23.6890   15.0850 N.3   244  ILE244     -0.1245
     58  CA        38.5970  -23.1740   13.7920 C.3   244  ILE244      0.1561
     59  C         40.0760  -23.4830   13.5920 C.2   244  ILE244      0.2260
     60  O         40.9040  -23.2570   14.4820 O.2   244  ILE244     -0.2867
     61  CB        38.3410  -21.6550   13.6580 C.3   244  ILE244      0.0252
     62  CG1       36.8430  -21.3610   13.6480 C.3   244  ILE244      0.0019
     63  CG2       38.9620  -21.1180   12.3860 C.3   244  ILE244      0.0019
     64  CD1       36.2330  -21.3120   15.0180 C.3   244  ILE244      0.0001
     65  N         42.1890  -13.4770    2.9660 N.3   259  LYS259     -0.1245
     66  CA        41.3430  -14.5720    3.4290 C.3   259  LYS259      0.1561
     67  C         41.5300  -14.8070    4.9290 C.2   259  LYS259      0.2260
     68  O         40.5550  -14.9730    5.6690 O.2   259  LYS259     -0.2867
     69  CB        41.6510  -15.8670    2.6580 C.3   259  LYS259      0.0271
     70  CG        41.3290  -15.8290    1.1720 C.3   259  LYS259      0.0035
     71  CD        41.2910  -17.2380    0.5850 C.3   259  LYS259      0.0206
     72  CE        40.3000  -18.1280    1.3450 C.3   259  LYS259      0.1093
     73  NZ        39.9700  -19.4020    0.6380 N.3   259  LYS259     -0.1314
     74  N         39.8940  -12.5510    6.9400 N.3   262  GLY262     -0.1210
     75  CA        38.4670  -12.7910    6.8190 C.3   262  GLY262      0.1956
     76  C         37.8980  -13.6820    7.9140 C.2   262  GLY262      0.2611
     77  O         36.9930  -13.2710    8.6410 O.2   262  GLY262     -0.2717
     78  N         38.4240  -14.9020    8.0290 N.am  263  LYS263     -0.1979
     79  CA        37.9530  -15.8680    9.0250 C.3   263  LYS263      0.1596
     80  C         38.2790  -15.4610   10.4570 C.2   263  LYS263      0.2287
     81  O         37.5290  -15.7730   11.3800 O.2   263  LYS263     -0.2864
     82  CB        38.5330  -17.2590    8.7570 C.3   263  LYS263      0.0298
     83  CG        38.1310  -18.3120    9.7830 C.3   263  LYS263      0.0038
     84  CD        39.0550  -19.5370    9.7370 C.3   263  LYS263      0.0206
     85  CE        38.9770  -20.3040    8.4020 C.3   263  LYS263      0.1093
     86  NZ        39.4690  -21.7330    8.4790 N.3   263  LYS263     -0.1314
     87  N         35.2960  -13.0940   11.7020 N.3   266  TRP266     -0.1241
     88  CA        34.1000  -13.8690   11.9980 C.3   266  TRP266      0.1605
     89  C         34.2320  -14.6100   13.3230 C.2   266  TRP266      0.2264
     90  O         33.2460  -14.8230   14.0230 O.2   266  TRP266     -0.2867
     91  CB        33.8350  -14.8570   10.8640 C.3   266  TRP266      0.0550
     92  CG        32.7300  -15.8060   11.1250 C.ar  266  TRP266      0.0003
     93  CD1       31.4150  -15.6210   10.8480 C.ar  266  TRP266      0.0946
     94  CD2       32.8420  -17.1080   11.7110 C.ar  266  TRP266      0.0152
     95  NE1       30.6930  -16.7240   11.2280 N.ar  266  TRP266     -0.2442
     96  CE2       31.5470  -17.6500   11.7600 C.ar  266  TRP266      0.0810
     97  CE3       33.9120  -17.8630   12.2010 C.ar  266  TRP266      0.0012
     98  CZ2       31.2920  -18.9180   12.2830 C.ar  266  TRP266      0.0191
     99  CZ3       33.6580  -19.1180   12.7160 C.ar  266  TRP266      0.0001
    100  CH2       32.3580  -19.6360   12.7500 C.ar  266  TRP266      0.0015
@<TRIPOS>BOND
     1    25    22    1
     2    25    26    1
     3    22    21    1
     4    22    23    1
     5    24    23    2
     6    71    70    1
     7    71    72    1
     8    73    72    1
     9    21    15   am
    10    23    29   am
    11    70    69    1
    12    26    28   ar
    13    26    27   ar
    14    16    15    2
    15    15    14    1
    16    14    17    1
    17    14    13    1
    18    29    30    1
    19    69    66    1
    20    17    18    1
    21    65    66    1
    22    18    19    1
    23    30    31    1
    24    30    33    1
    25    13     3   am
    26    19    20    1
    27    66    67    1
    28    31    32    2
    29    35    34   ar
    30     3     4    2
    31     3     2    1
    32    34    33    1
    33    34    36   ar
    34    67    68    2
    35     1     2    1
    36     2     5    1
    37     5     6    1
    38    75    74    1
    39    75    76    1
    40     6     8   ar
    41     6     7   ar
    42     8    10   ar
    43     7     9   ar
    44    40    39    2
    45    10    11   ar
    46     9    11   ar
    47    76    78   am
    48    76    77    2
    49    11    12    1
    50    78    79    1
    51    85    86    1
    52    85    84    1
    53    45    46    1
    54    41    38    1
    55    41    42    1
    56    39    38    1
    57    82    79    1
    58    82    83    1
    59    46    47    1
    60    46    49    1
    61    37    38    1
    62    79    80    1
    63    44    42    1
    64    50    49    1
    65    50    51    1
    66    47    53   am
    67    47    48    2
    68    53    54    1
    69    42    43    1
    70    84    83    1
    71    51    52    1
    72    54    55    1
    73    80    81    2
    74    93    92   ar
    75    93    95   ar
    76    91    92    1
    77    91    88    1
    78    92    94   ar
    79    95    96   ar
    80    87    88    1
    81    94    96   ar
    82    94    97   ar
    83    55    56    2
    84    96    98   ar
    85    88    89    1
    86    97    99   ar
    87    98   100   ar
    88    63    61    1
    89    99   100   ar
    90    89    90    2
    91    59    58    1
    92    59    60    2
    93    62    61    1
    94    62    64    1
    95    61    58    1
    96    58    57    1
