@<TRIPOS>MOLECULE
tmp/3itiA00.pdb
 74 70 0 0 0
SMALL
GASTEIGER

@<TRIPOS>ATOM
      1  N         65.8270   31.6840   10.7880 N.3   106  PRO106     -0.2102
      2  CA        66.2120   32.4570   11.9910 C.3   106  PRO106      0.1504
      3  C         67.6830   32.8280   11.9560 C.2   106  PRO106      0.2576
      4  O         68.4370   32.1400   11.2780 O.2   106  PRO106     -0.2718
      5  CB        65.8870   31.5030   13.1300 C.3   106  PRO106      0.0282
      6  CG        65.6980   30.1520   12.5490 C.3   106  PRO106      0.0208
      7  CD        65.5550   30.2620   11.0680 C.3   106  PRO106      0.0893
      8  N         68.1020   33.8880   12.6170 N.am  107  THR107     -0.1939
      9  CA        69.4750   34.2180   12.9490 C.3   107  THR107      0.2028
     10  C         69.8010   34.0400   14.4270 C.2   107  THR107      0.2643
     11  O         70.9720   33.9680   14.7940 O.2   107  THR107     -0.2714
     12  CB        69.7610   35.6970   12.6100 C.3   107  THR107      0.1808
     13  OG1       69.0230   36.5270   13.5110 O.3   107  THR107     -0.2208
     14  CG2       69.2240   36.0160   11.2260 C.3   107  THR107      0.0379
     15  N         68.7800   33.9910   15.2510 N.am  108  SER108     -0.1935
     16  CA        68.7330   33.7030   16.6630 C.3   108  SER108      0.2055
     17  C         67.5610   32.7700   16.9620 C.2   108  SER108      0.2643
     18  O         66.5020   32.9180   16.3580 O.2   108  SER108     -0.2714
     19  CB        68.5180   34.9830   17.4920 C.3   108  SER108      0.2130
     20  OG        69.7500   35.7060   17.5280 O.3   108  SER108     -0.2179
     21  N         67.7980   31.8750   17.8960 N.am  109  CYS109     -0.1953
     22  CA        66.7410   31.0050   18.4120 C.3   109  CYS109      0.1843
     23  C         65.6780   31.8160   19.1200 C.2   109  CYS109      0.2625
     24  O         65.9750   32.8680   19.7040 O.2   109  CYS109     -0.2714
     25  CB        67.3900   29.9520   19.3230 C.3   109  CYS109      0.0997
     26  SG        68.5900   28.8810   18.4960 S.3   109  CYS109     -0.0797
     27  N         64.4380   31.3630   19.0900 N.am  110  ALA110     -0.1963
     28  CA        63.3100   32.0280   19.7170 C.3   110  ALA110      0.1728
     29  C         63.2810   31.7760   21.2160 C.2   110  ALA110      0.2616
     30  O         63.9240   30.8590   21.7440 O.2   110  ALA110     -0.2715
     31  CB        62.0190   31.5520   19.0590 C.3   110  ALA110      0.0334
     32  N         62.5320   32.6000   21.9210 N.am  111  SER111     -0.1950
     33  CA        62.5160   32.6160   23.3750 C.3   111  SER111      0.1924
     34  C         61.2730   31.9230   23.8960 C.2   111  SER111      0.2314
     35  O         60.1770   31.9610   23.3560 O.2   111  SER111     -0.2863
     36  CB        62.5380   34.0440   23.9500 C.3   111  SER111      0.2116
     37  OG        63.7200   34.7280   23.5980 O.3   111  SER111     -0.2180
     38  N         57.4470   33.1640   23.7060 N.3   114  THR114     -0.1218
     39  CA        57.1060   33.7970   22.4390 C.3   114  THR114      0.1862
     40  C         55.8790   33.1280   21.8140 C.2   114  THR114      0.2287
     41  O         55.7720   31.9070   21.8240 O.2   114  THR114     -0.2866
     42  CB        58.3000   33.7450   21.4820 C.3   114  THR114      0.1770
     43  OG1       59.4300   34.4060   22.0410 O.3   114  THR114     -0.2211
     44  CG2       57.9750   34.5030   20.2040 C.3   114  THR114      0.0375
     45  N         57.6010   32.3420   14.3030 N.3   183  CYS183     -0.1221
     46  CA        57.6680   33.2030   15.4920 C.3   183  CYS183      0.1808
     47  C         58.4280   34.4620   15.0690 C.2   183  CYS183      0.2601
     48  O         59.5210   34.3410   14.5080 O.2   183  CYS183     -0.2717
     49  CB        58.3700   32.5520   16.6590 C.3   183  CYS183      0.0970
     50  SG        58.0690   30.8040   16.9780 S.3   183  CYS183     -0.0800
     51  N         57.8530   35.6310   15.3230 N.am  184  SER184     -0.1952
     52  CA        58.4740   36.9000   14.9190 C.3   184  SER184      0.1924
     53  C         58.9470   36.8750   13.4750 C.2   184  SER184      0.2314
     54  O         60.0330   37.3390   13.1210 O.2   184  SER184     -0.2863
     55  CB        59.6580   37.2500   15.8290 C.3   184  SER184      0.2116
     56  OG        59.2670   37.1680   17.1920 O.3   184  SER184     -0.2180
     57  N         60.0050   34.4800   11.5350 N.3   186  LYS186     -0.1245
     58  CA        61.0100   33.5220   11.1390 C.3   186  LYS186      0.1561
     59  C         60.4850   32.0780   11.3220 C.2   186  LYS186      0.2260
     60  O         59.6670   31.8230   12.2110 O.2   186  LYS186     -0.2867
     61  CB        62.2990   33.6570   11.9430 C.3   186  LYS186      0.0271
     62  CG        62.8150   35.0770   12.0950 C.3   186  LYS186      0.0035
     63  CD        63.3300   35.5960   10.7580 C.3   186  LYS186      0.0206
     64  CE        64.6580   36.3260   11.0050 C.3   186  LYS186      0.1093
     65  NZ        64.3880   37.5130   11.8800 N.3   186  LYS186     -0.1314
     66  N         60.8780   29.0070   12.9980 N.3   188  GLN188     -0.1245
     67  CA        61.6430   28.5470   14.1530 C.3   188  GLN188      0.1566
     68  C         61.3890   27.0700   14.4600 C.2   188  GLN188      0.2260
     69  O         62.2400   26.4300   15.0990 O.2   188  GLN188     -0.2867
     70  CB        61.3230   29.3740   15.4080 C.3   188  GLN188      0.0367
     71  CG        61.8310   30.8050   15.2770 C.3   188  GLN188      0.0905
     72  CD        63.3000   30.9900   15.5930 C.2   188  GLN188      0.2608
     73  OE1       64.0780   30.0370   15.6880 O.2   188  GLN188     -0.2717
     74  NE2       63.7520   32.2490   15.7770 N.am  188  GLN188     -0.0878
@<TRIPOS>BOND
     1    63    64    1
     2    63    62    1
     3     1     7    1
     4     1     2    1
     5    64    65    1
     6     7     6    1
     7    58    59    1
     8    58    57    1
     9    58    61    1
    10    14    12    1
    11     4     3    2
    12    59    60    2
    13    61    62    1
    14     3     2    1
    15     3     8   am
    16     2     5    1
    17     6     5    1
    18    12     9    1
    19    12    13    1
    20     8     9    1
    21     9    10    1
    22    66    67    1
    23    54    53    2
    24    53    52    1
    25    67    68    1
    26    67    70    1
    27    45    46    1
    28    10    11    2
    29    10    15   am
    30    68    69    2
    31    48    47    2
    32    52    51    1
    33    52    55    1
    34    47    51   am
    35    47    46    1
    36    15    16    1
    37    71    70    1
    38    71    72    1
    39    46    49    1
    40    72    73    2
    41    72    74   am
    42    55    56    1
    43    18    17    2
    44    49    50    1
    45    16    17    1
    46    16    19    1
    47    17    21   am
    48    19    20    1
    49    21    22    1
    50    22    23    1
    51    22    25    1
    52    26    25    1
    53    31    28    1
    54    27    23   am
    55    27    28    1
    56    23    24    2
    57    28    29    1
    58    44    42    1
    59    29    30    2
    60    29    32   am
    61    42    43    1
    62    42    39    1
    63    40    41    2
    64    40    39    1
    65    32    33    1
    66    39    38    1
    67    35    34    2
    68    33    34    1
    69    33    36    1
    70    37    36    1
