@<TRIPOS>MOLECULE
tmp/3itkC01.pdb
 82 78 0 0 0
SMALL
GASTEIGER

@<TRIPOS>ATOM
      1  N         47.2990  -21.5310  -52.8030 N.3   328  THR328     -0.1218
      2  CA        48.2320  -22.0270  -51.8070 C.3   328  THR328      0.1862
      3  C         49.4950  -22.5060  -52.5060 C.2   328  THR328      0.2287
      4  O         49.4200  -23.2630  -53.4420 O.2   328  THR328     -0.2866
      5  CB        47.5970  -23.1740  -50.9960 C.3   328  THR328      0.1770
      6  OG1       46.4020  -22.7040  -50.3550 O.3   328  THR328     -0.2211
      7  CG2       48.5570  -23.6700  -49.9470 C.3   328  THR328      0.0375
      8  N         48.4470  -13.0380  -50.1250 N.3   359  MET359     -0.1230
      9  CA        49.0280  -13.6800  -48.9680 C.3   359  MET359      0.1702
     10  C         47.9360  -14.3840  -48.1310 C.2   359  MET359      0.2592
     11  O         48.1460  -15.4940  -47.5950 O.2   359  MET359     -0.2718
     12  CB        49.7710  -12.6660  -48.1190 C.3   359  MET359      0.0401
     13  CG        51.0980  -12.1790  -48.7000 C.3   359  MET359      0.0596
     14  SD        51.6420  -10.7350  -47.8060 S.3   359  MET359     -0.1393
     15  CE        52.1550  -11.3900  -46.2010 C.3   359  MET359      0.0692
     16  N         46.7680  -13.7600  -48.0480 N.am  360  ASP360     -0.1960
     17  CA        45.6290  -14.4030  -47.3940 C.3   360  ASP360      0.1840
     18  C         45.1380  -15.6990  -48.0740 C.2   360  ASP360      0.2622
     19  O         44.3740  -16.4270  -47.4490 O.2   360  ASP360     -0.2715
     20  CB        44.4670  -13.4230  -47.2420 C.3   360  ASP360      0.1450
     21  CG        43.4860  -13.8200  -46.1100 C.2   360  ASP360      0.3671
     22  OD1       43.9290  -14.3180  -45.0480 O.co2 360  ASP360     -0.2456
     23  OD2       42.2670  -13.6250  -46.2770 O.co2 360  ASP360     -0.2456
     24  N         45.5510  -15.9480  -49.3270 N.am  361  GLU361     -0.1963
     25  CA        45.3050  -17.1990  -50.0610 C.3   361  GLU361      0.1733
     26  C         46.5230  -18.1440  -50.0710 C.2   361  GLU361      0.2616
     27  O         46.4890  -19.1930  -50.7010 O.2   361  GLU361     -0.2715
     28  CB        44.9890  -16.8930  -51.5250 C.3   361  GLU361      0.0429
     29  CG        43.8190  -15.9820  -51.7140 C.3   361  GLU361      0.1163
     30  CD        42.5110  -16.6480  -51.3950 C.2   361  GLU361      0.3649
     31  OE1       42.4810  -17.8950  -51.2700 O.co2 361  GLU361     -0.2457
     32  OE2       41.5120  -15.9290  -51.2540 O.co2 361  GLU361     -0.2457
     33  N         47.6160  -17.7590  -49.4120 N.am  362  GLY362     -0.1955
     34  CA        48.7690  -18.6190  -49.3110 C.3   362  GLY362      0.1869
     35  C         49.7310  -18.5150  -50.4820 C.2   362  GLY362      0.2309
     36  O         50.6050  -19.3730  -50.6160 O.2   362  GLY362     -0.2863
     37  N         53.0030   -7.6620  -40.0110 N.3   383  HIS383     -0.1241
     38  CA        52.0740   -7.2660  -38.9330 C.3   383  HIS383      0.1621
     39  C         52.7630   -6.2040  -38.0650 C.2   383  HIS383      0.2264
     40  O         53.9520   -6.3580  -37.7460 O.2   383  HIS383     -0.2867
     41  CB        51.6540   -8.4780  -38.0760 C.3   383  HIS383      0.0745
     42  CG        50.7980   -9.4640  -38.8110 C.ar  383  HIS383      0.0817
     43  ND1       51.3230  -10.4810  -39.5850 N.ar  383  HIS383     -0.2268
     44  CD2       49.4510   -9.5700  -38.9190 C.ar  383  HIS383      0.1154
     45  CE1       50.3390  -11.1730  -40.1310 C.ar  383  HIS383      0.1986
     46  NE2       49.1920  -10.6400  -39.7440 N.ar  383  HIS383     -0.2212
     47  N         56.3700  -14.3740  -39.5460 N.3   390  ASP390     -0.1225
     48  CA        56.5270  -15.6830  -40.1950 C.3   390  ASP390      0.1805
     49  C         55.8030  -15.7830  -41.5240 C.2   390  ASP390      0.2597
     50  O         56.2840  -16.4460  -42.4390 O.2   390  ASP390     -0.2718
     51  CB        56.0780  -16.8300  -39.2720 C.3   390  ASP390      0.1424
     52  CG        57.1490  -17.2210  -38.2600 C.2   390  ASP390      0.3668
     53  OD1       58.3490  -16.9360  -38.5190 O.co2 390  ASP390     -0.2456
     54  OD2       56.8030  -17.8140  -37.2020 O.co2 390  ASP390     -0.2456
     55  N         54.6520  -15.1400  -41.6330 N.am  391  GLN391     -0.1979
     56  CA        53.8920  -15.2150  -42.8700 C.3   391  GLN391      0.1601
     57  C         54.7130  -14.5900  -44.0050 C.2   391  GLN391      0.2287
     58  O         54.8900  -15.1930  -45.0620 O.2   391  GLN391     -0.2864
     59  CB        52.5170  -14.5520  -42.7300 C.3   391  GLN391      0.0394
     60  CG        51.4600  -15.1770  -43.6390 C.3   391  GLN391      0.0908
     61  CD        50.1940  -14.3410  -43.7890 C.2   391  GLN391      0.2608
     62  OE1       50.0850  -13.2320  -43.2660 O.2   391  GLN391     -0.2717
     63  NE2       49.2350  -14.8770  -44.5170 N.am  391  GLN391     -0.0878
     64  N         57.7100  -16.7980  -44.8980 N.3   394  ARG394     -0.1231
     65  CA        57.2750  -18.0150  -45.5950 C.3   394  ARG394      0.1694
     66  C         56.6840  -17.7220  -46.9990 C.2   394  ARG394      0.2591
     67  O         56.8410  -18.5200  -47.9170 O.2   394  ARG394     -0.2718
     68  CB        56.2890  -18.8200  -44.7170 C.3   394  ARG394      0.0321
     69  CG        56.9610  -19.5120  -43.5150 C.3   394  ARG394      0.0489
     70  CD        55.9610  -20.3420  -42.7290 C.3   394  ARG394      0.2205
     71  NE        54.8840  -19.5120  -42.1870 N.pl3 394  ARG394     -0.0865
     72  CZ        53.5970  -19.5900  -42.5250 C.cat 394  ARG394      0.5346
     73  NH1       53.1690  -20.5190  -43.3750 N.pl3 394  ARG394      0.1354
     74  NH2       52.7270  -18.7650  -41.9690 N.pl3 394  ARG394      0.1354
     75  N         56.0310  -16.5680  -47.1700 N.am  395  LEU395     -0.1980
     76  CA        55.2780  -16.2760  -48.4010 C.3   395  LEU395      0.1596
     77  C         55.9350  -15.2840  -49.3760 C.2   395  LEU395      0.2287
     78  O         55.7030  -15.3530  -50.5950 O.2   395  LEU395     -0.2864
     79  CB        53.8840  -15.7550  -48.0380 C.3   395  LEU395      0.0297
     80  CG        52.9370  -16.6540  -47.2210 C.3   395  LEU395      0.0022
     81  CD1       51.5360  -16.0550  -47.1210 C.3   395  LEU395      0.0001
     82  CD2       52.8860  -18.0430  -47.8280 C.3   395  LEU395      0.0001
@<TRIPOS>BOND
     1     4     3    2
     2     1     2    1
     3     3     2    1
     4     2     5    1
     5    29    28    1
     6    29    30    1
     7    28    25    1
     8    30    31   ar
     9    30    32   ar
    10     5     6    1
    11     5     7    1
    12    27    26    2
    13    36    35    2
    14    78    77    2
    15    35    34    1
    16     8     9    1
    17    26    25    1
    18    26    33   am
    19    25    24    1
    20    33    34    1
    21    77    76    1
    22    24    18   am
    23     9    10    1
    24     9    12    1
    25    13    12    1
    26    13    14    1
    27    76    79    1
    28    76    75    1
    29    10    16   am
    30    10    11    2
    31    18    19    2
    32    18    17    1
    33    16    17    1
    34    79    80    1
    35    67    66    2
    36    82    80    1
    37    14    15    1
    38    17    20    1
    39    20    21    1
    40    80    81    1
    41    75    66   am
    42    66    65    1
    43    23    21   ar
    44    21    22   ar
    45    65    64    1
    46    65    68    1
    47    58    57    2
    48    68    69    1
    49    63    61   am
    50    57    56    1
    51    61    60    1
    52    61    62    2
    53    60    59    1
    54    69    70    1
    55    73    72    1
    56    56    59    1
    57    56    55    1
    58    70    71    1
    59    72    71    2
    60    72    74    1
    61    50    49    2
    62    55    49   am
    63    49    48    1
    64    48    47    1
    65    48    51    1
    66    45    46   ar
    67    45    43   ar
    68    37    38    1
    69    46    44   ar
    70    43    42   ar
    71    51    52    1
    72    38    41    1
    73    38    39    1
    74    44    42   ar
    75    42    41    1
    76    53    52   ar
    77    52    54   ar
    78    39    40    2
