@<TRIPOS>MOLECULE
tmp/3itkF00.pdb
 141 136 0 0 0
SMALL
GASTEIGER

@<TRIPOS>ATOM
      1  N         -6.1850  -34.5930  -52.2790 N.3   164  LEU164     -0.1231
      2  CA        -6.4390  -34.6090  -53.7270 C.3   164  LEU164      0.1693
      3  C         -5.4510  -33.7680  -54.4660 C.2   164  LEU164      0.2592
      4  O         -5.2180  -32.6260  -54.0730 O.2   164  LEU164     -0.2718
      5  CB        -7.7800  -33.9520  -54.0820 C.3   164  LEU164      0.0284
      6  CG        -9.0580  -34.5430  -53.5690 C.3   164  LEU164      0.0019
      7  CD1      -10.2030  -33.7250  -54.1510 C.3   164  LEU164      0.0001
      8  CD2       -9.1170  -35.9550  -53.9850 C.3   164  LEU164      0.0001
      9  N         -4.9250  -34.3130  -55.5640 N.am  165  ALA165     -0.1966
     10  CA        -4.3100  -33.4860  -56.5840 C.3   165  ALA165      0.1728
     11  C         -5.3630  -33.2120  -57.6570 C.2   165  ALA165      0.2616
     12  O         -5.8540  -34.1250  -58.3000 O.2   165  ALA165     -0.2715
     13  CB        -3.0830  -34.1640  -57.1620 C.3   165  ALA165      0.0334
     14  N         -5.7300  -31.9580  -57.8420 N.am  166  GLU166     -0.1977
     15  CA        -6.6720  -31.6120  -58.9010 C.3   166  GLU166      0.1602
     16  C         -6.0380  -31.8760  -60.2600 C.2   166  GLU166      0.2287
     17  O         -4.8890  -31.5170  -60.4960 O.2   166  GLU166     -0.2864
     18  CB        -7.1160  -30.1650  -58.7720 C.3   166  GLU166      0.0415
     19  CG        -7.7440  -29.9170  -57.4050 C.3   166  GLU166      0.1163
     20  CD        -8.2030  -28.5120  -57.2300 C.2   166  GLU166      0.3649
     21  OE1       -8.3200  -27.7570  -58.2240 O.co2 166  GLU166     -0.2457
     22  OE2       -8.4300  -28.1580  -56.0780 O.co2 166  GLU166     -0.2457
     23  N          9.1460  -28.3440  -54.4950 N.3   232  ILE232     -0.1245
     24  CA         9.0190  -27.4680  -55.6670 C.3   232  ILE232      0.1561
     25  C          9.8910  -26.2390  -55.5290 C.2   232  ILE232      0.2260
     26  O         10.6240  -25.8920  -56.4650 O.2   232  ILE232     -0.2867
     27  CB         7.5650  -27.0900  -55.9460 C.3   232  ILE232      0.0252
     28  CG1        6.7530  -28.3540  -56.3160 C.3   232  ILE232      0.0019
     29  CG2        7.4150  -26.1060  -57.1320 C.3   232  ILE232      0.0019
     30  CD1        5.2710  -28.2300  -55.9350 C.3   232  ILE232      0.0001
     31  N          7.0990  -34.5800  -57.5830 N.3   266  PHE266     -0.1241
     32  CA         7.1420  -33.2060  -57.1670 C.3   266  PHE266      0.1605
     33  C          8.5150  -32.6050  -57.2890 C.2   266  PHE266      0.2264
     34  O          8.9290  -31.8210  -56.4190 O.2   266  PHE266     -0.2867
     35  CB         6.6340  -33.0630  -55.7380 C.3   266  PHE266      0.0534
     36  CG         5.2180  -32.7180  -55.6840 C.ar  266  PHE266     -0.0203
     37  CD1        4.8020  -31.4920  -55.2120 C.ar  266  PHE266     -0.0042
     38  CD2        4.2970  -33.6000  -56.1520 C.ar  266  PHE266     -0.0042
     39  CE1        3.4420  -31.1930  -55.1750 C.ar  266  PHE266     -0.0003
     40  CE2        2.9430  -33.3040  -56.1160 C.ar  266  PHE266     -0.0003
     41  CZ         2.5200  -32.1090  -55.6420 C.ar  266  PHE266     -0.0000
     42  N          9.2260  -25.0390  -62.3510 N.3   270  SER270     -0.1217
     43  CA         8.1580  -24.2440  -63.0030 C.3   270  SER270      0.1889
     44  C          8.2910  -22.7880  -62.6200 C.2   270  SER270      0.2288
     45  O          9.1280  -22.4290  -61.7890 O.2   270  SER270     -0.2866
     46  CB         6.7780  -24.7180  -62.4910 C.3   270  SER270      0.2089
     47  OG         6.6120  -24.4270  -61.0760 O.3   270  SER270     -0.2183
     48  N          6.1710  -21.3900  -60.8500 N.3   272  GLY272     -0.1210
     49  CA         5.7650  -21.3630  -59.4320 C.3   272  GLY272      0.1956
     50  C          4.5950  -22.2900  -59.1200 C.2   272  GLY272      0.2612
     51  O          3.6810  -22.4540  -59.9460 O.2   272  GLY272     -0.2717
     52  N          4.6090  -22.8850  -57.9250 N.am  273  PHE273     -0.1962
     53  CA         3.4490  -23.6220  -57.4580 C.3   273  PHE273      0.1771
     54  C          2.2470  -22.6930  -57.1790 C.2   273  PHE273      0.2620
     55  O          2.3840  -21.5060  -56.8360 O.2   273  PHE273     -0.2715
     56  CB         3.7670  -24.5430  -56.2560 C.3   273  PHE273      0.0574
     57  CG         4.1140  -23.8420  -54.9750 C.ar  273  PHE273     -0.0200
     58  CD1        3.1400  -23.2260  -54.2080 C.ar  273  PHE273     -0.0042
     59  CD2        5.4030  -23.8560  -54.4940 C.ar  273  PHE273     -0.0042
     60  CE1        3.4700  -22.5890  -52.9920 C.ar  273  PHE273     -0.0003
     61  CE2        5.7330  -23.2150  -53.3130 C.ar  273  PHE273     -0.0003
     62  CZ         4.7460  -22.5990  -52.5470 C.ar  273  PHE273     -0.0000
     63  N          1.0720  -23.2920  -57.2800 N.am  274  GLY274     -0.1940
     64  CA        -0.2000  -22.6300  -57.0330 C.3   274  GLY274      0.2014
     65  C         -1.1930  -23.5660  -56.3480 C.2   274  GLY274      0.2639
     66  O         -0.8380  -24.6320  -55.8480 O.2   274  GLY274     -0.2714
     67  N         -2.4510  -23.1550  -56.3440 N.am  275  GLY275     -0.1939
     68  CA        -3.5060  -23.9440  -55.7880 C.3   275  GLY275      0.2014
     69  C         -3.8770  -23.3820  -54.4360 C.2   275  GLY275      0.2640
     70  O         -3.1650  -22.5190  -53.9240 O.2   275  GLY275     -0.2714
     71  N         -4.9810  -23.8820  -53.8680 N.am  276  SER276     -0.1935
     72  CA        -5.5710  -23.3120  -52.6410 C.3   276  SER276      0.2055
     73  C         -5.0420  -23.9970  -51.4080 C.2   276  SER276      0.2643
     74  O         -5.5670  -23.8170  -50.3430 O.2   276  SER276     -0.2714
     75  CB        -7.0970  -23.4430  -52.6410 C.3   276  SER276      0.2130
     76  OG        -7.4870  -24.8050  -52.7850 O.3   276  SER276     -0.2179
     77  N         -3.9880  -24.7590  -51.5530 N.am  277  CYS277     -0.1953
     78  CA        -3.4670  -25.5210  -50.4600 C.3   277  CYS277      0.1843
     79  C         -2.0350  -25.1820  -50.0500 C.2   277  CYS277      0.2625
     80  O         -1.7500  -25.0730  -48.8470 O.2   277  CYS277     -0.2714
     81  CB        -3.5970  -26.9940  -50.8260 C.3   277  CYS277      0.0997
     82  SG        -2.6880  -28.0900  -49.8200 S.3   277  CYS277     -0.0797
     83  N         -1.1360  -24.9990  -51.0140 N.am  278  PHE278     -0.1974
     84  CA         0.3070  -24.8890  -50.6940 C.3   278  PHE278      0.1639
     85  C          0.6860  -23.5620  -50.0290 C.2   278  PHE278      0.2290
     86  O          1.2260  -23.5710  -48.9430 O.2   278  PHE278     -0.2864
     87  CB         1.1920  -25.1210  -51.9160 C.3   278  PHE278      0.0560
     88  CG         1.2060  -26.5170  -52.4040 C.ar  278  PHE278     -0.0200
     89  CD1        1.1660  -27.5840  -51.5220 C.ar  278  PHE278     -0.0042
     90  CD2        1.2580  -26.7870  -53.7590 C.ar  278  PHE278     -0.0042
     91  CE1        1.1650  -28.8790  -51.9610 C.ar  278  PHE278     -0.0003
     92  CE2        1.2510  -28.1180  -54.2130 C.ar  278  PHE278     -0.0003
     93  CZ         1.2100  -29.1500  -53.3130 C.ar  278  PHE278     -0.0000
     94  N         -3.9760  -23.0560  -62.2990 N.3   339  PHE339     -0.1227
     95  CA        -2.7480  -23.1550  -61.5210 C.3   339  PHE339      0.1736
     96  C         -1.9230  -24.3590  -61.9450 C.2   339  PHE339      0.2595
     97  O         -0.7230  -24.4120  -61.7020 O.2   339  PHE339     -0.2718
     98  CB        -3.0370  -23.1610  -60.0230 C.3   339  PHE339      0.0547
     99  CG        -3.3970  -24.5050  -59.4530 C.ar  339  PHE339     -0.0202
    100  CD1       -2.4130  -25.3530  -58.9780 C.ar  339  PHE339     -0.0042
    101  CD2       -4.7310  -24.9070  -59.3440 C.ar  339  PHE339     -0.0042
    102  CE1       -2.7560  -26.6380  -58.4090 C.ar  339  PHE339     -0.0003
    103  CE2       -5.0880  -26.1690  -58.7920 C.ar  339  PHE339     -0.0003
    104  CZ        -4.1020  -27.0260  -58.3090 C.ar  339  PHE339     -0.0000
    105  N         -2.5700  -25.3400  -62.5720 N.am  340  LYS340     -0.1980
    106  CA        -1.8540  -26.4620  -63.1910 C.3   340  LYS340      0.1596
    107  C         -2.7490  -27.0360  -64.2740 C.2   340  LYS340      0.2287
    108  O         -3.8480  -26.5660  -64.4530 O.2   340  LYS340     -0.2864
    109  CB        -1.4830  -27.5400  -62.1520 C.3   340  LYS340      0.0298
    110  CG        -2.6800  -28.2220  -61.5160 C.3   340  LYS340      0.0038
    111  CD        -2.2960  -29.3340  -60.4940 C.3   340  LYS340      0.0206
    112  CE        -1.9170  -30.6640  -61.1780 C.3   340  LYS340      0.1093
    113  NZ        -2.9060  -31.0930  -62.1950 N.3   340  LYS340     -0.1314
    114  N         -9.3510  -24.6420  -61.9920 N.3   345  ASP345     -0.1239
    115  CA        -9.0530  -23.9180  -60.7260 C.3   345  ASP345      0.1674
    116  C         -7.9390  -22.9180  -60.9650 C.2   345  ASP345      0.2266
    117  O         -6.8790  -23.2910  -61.4390 O.2   345  ASP345     -0.2867
    118  CB        -8.5650  -24.9490  -59.7070 C.3   345  ASP345      0.1410
    119  CG        -8.7350  -24.5250  -58.2370 C.2   345  ASP345      0.3668
    120  OD1       -9.0990  -23.3690  -57.8760 O.co2 345  ASP345     -0.2456
    121  OD2       -8.4660  -25.4280  -57.4250 O.co2 345  ASP345     -0.2456
    122  N          0.8960  -26.0210  -67.9850 N.3   417  GLU417     -0.1245
    123  CA         1.4200  -27.0850  -68.8130 C.3   417  GLU417      0.1567
    124  C          0.3520  -27.9240  -69.4960 C.2   417  GLU417      0.2260
    125  O          0.4850  -29.1550  -69.6170 O.2   417  GLU417     -0.2867
    126  CB         2.3510  -27.9980  -67.9980 C.3   417  GLU417      0.0388
    127  CG         1.7250  -28.9070  -66.8870 C.3   417  GLU417      0.1160
    128  CD         1.2620  -28.1700  -65.6300 C.2   417  GLU417      0.3649
    129  OE1        1.2960  -26.9120  -65.5720 O.co2 417  GLU417     -0.2457
    130  OE2        0.8420  -28.8600  -64.6930 O.co2 417  GLU417     -0.2457
    131  N          7.0710  -23.8570  -67.9020 N.3   443  ARG443     -0.1245
    132  CA         6.7150  -25.1790  -67.3970 C.3   443  ARG443      0.1563
    133  C          7.5210  -26.3400  -67.9530 C.2   443  ARG443      0.2260
    134  O          7.1990  -27.4850  -67.6460 O.2   443  ARG443     -0.2867
    135  CB         5.2780  -25.4620  -67.7970 C.3   443  ARG443      0.0307
    136  CG         4.2630  -24.5920  -67.1230 C.3   443  ARG443      0.0489
    137  CD         4.1570  -24.9890  -65.6430 C.3   443  ARG443      0.2205
    138  NE         3.2170  -24.1480  -64.9290 N.pl3 443  ARG443     -0.0865
    139  CZ         2.8840  -24.3170  -63.6570 C.cat 443  ARG443      0.5346
    140  NH1        3.4270  -25.2890  -62.9370 N.pl3 443  ARG443      0.1354
    141  NH2        1.9940  -23.5040  -63.1250 N.pl3 443  ARG443      0.1354
@<TRIPOS>BOND
     1   125   124    2
     2   124   123    1
     3   123   126    1
     4   123   122    1
     5   126   127    1
     6   133   134    2
     7   133   132    1
     8   131   132    1
     9   135   132    1
    10   135   136    1
    11   136   137    1
    12   127   128    1
    13   137   138    1
    14   128   129   ar
    15   128   130   ar
    16   138   139    2
    17   108   107    2
    18   107   106    1
    19   139   141    1
    20   139   140    1
    21   106   105    1
    22   106   109    1
    23    43    44    1
    24    43    46    1
    25    43    42    1
    26    44    45    2
    27   105    96   am
    28    46    47    1
    29    94    95    1
    30   113   112    1
    31   109   110    1
    32   114   115    1
    33    96    97    2
    34    96    95    1
    35    95    98    1
    36   110   111    1
    37   117   116    2
    38   112   111    1
    39   116   115    1
    40    48    49    1
    41   115   118    1
    42    17    16    2
    43    16    15    1
    44    98    99    1
    45    51    50    2
    46   118   119    1
    47    99   101   ar
    48    99   100   ar
    49    49    50    1
    50   101   103   ar
    51    50    52   am
    52   100   102   ar
    53    15    18    1
    54    15    14    1
    55   103   104   ar
    56    18    19    1
    57   102   104   ar
    58    12    11    2
    59   119   120   ar
    60   119   121   ar
    61    21    20   ar
    62    52    53    1
    63    14    11   am
    64    11    10    1
    65    31    32    1
    66    53    54    1
    67    53    56    1
    68    19    20    1
    69    33    32    1
    70    33    34    2
    71    63    54   am
    72    63    64    1
    73    20    22   ar
    74    54    55    2
    75    32    35    1
    76    13    10    1
    77    29    27    1
    78    64    65    1
    79    10     9    1
    80    26    25    2
    81    65    67   am
    82    65    66    2
    83    67    68    1
    84    28    27    1
    85    28    30    1
    86    56    57    1
    87    38    40   ar
    88    38    36   ar
    89    40    41   ar
    90    27    24    1
    91    68    69    1
    92    35    36    1
    93    36    37   ar
    94    24    25    1
    95    24    23    1
    96    41    39   ar
    97     9     3   am
    98    37    39   ar
    99    57    59   ar
   100    57    58   ar
   101    59    61   ar
   102     3     4    2
   103     3     2    1
   104    69    70    2
   105    69    71   am
   106    92    90   ar
   107    92    93   ar
   108    58    60   ar
   109     7     6    1
   110     5     2    1
   111     5     6    1
   112     8     6    1
   113    71    72    1
   114    90    88   ar
   115     2     1    1
   116    93    91   ar
   117    61    62   ar
   118    60    62   ar
   119    76    75    1
   120    72    75    1
   121    72    73    1
   122    88    87    1
   123    88    89   ar
   124    91    89   ar
   125    87    84    1
   126    77    73   am
   127    77    78    1
   128    73    74    2
   129    83    84    1
   130    83    79   am
   131    81    78    1
   132    81    82    1
   133    84    85    1
   134    78    79    1
   135    79    80    2
   136    85    86    2
