@<TRIPOS>MOLECULE
tmp/3itkD00.pdb
 110 108 0 0 0
SMALL
GASTEIGER

@<TRIPOS>ATOM
      1  N         29.0210   19.5760  -59.0120 N.3   232  ILE232     -0.1245
      2  CA        28.0790   20.4630  -58.3510 C.3   232  ILE232      0.1561
      3  C         27.7020   19.8960  -56.9950 C.2   232  ILE232      0.2260
      4  O         27.7120   20.6240  -55.9950 O.2   232  ILE232     -0.2867
      5  CB        26.8400   20.7160  -59.2240 C.3   232  ILE232      0.0252
      6  CG1       27.2400   21.4870  -60.4830 C.3   232  ILE232      0.0019
      7  CG2       25.8300   21.5420  -58.4790 C.3   232  ILE232      0.0019
      8  CD1       26.2980   21.2900  -61.6640 C.3   232  ILE232      0.0001
      9  N         38.2060   25.4050  -63.1070 N.3   264  ASN264     -0.1225
     10  CA        37.2930   26.3200  -62.4140 C.3   264  ASN264      0.1785
     11  C         35.8360   26.3030  -62.9050 C.2   264  ASN264      0.2597
     12  O         35.0460   27.1550  -62.5130 O.2   264  ASN264     -0.2718
     13  CB        37.8400   27.7530  -62.4600 C.3   264  ASN264      0.1169
     14  CG        37.9020   28.3390  -63.8850 C.2   264  ASN264      0.2627
     15  OD1       37.3340   27.7860  -64.8440 O.2   264  ASN264     -0.2716
     16  ND2       38.5950   29.4800  -64.0130 N.am  264  ASN264     -0.0877
     17  N         35.4820   25.3500  -63.7580 N.am  265  LYS265     -0.1966
     18  CA        34.1050   25.2560  -64.2790 C.3   265  LYS265      0.1728
     19  C         33.2670   24.3070  -63.4430 C.2   265  LYS265      0.2616
     20  O         33.7980   23.3620  -62.8540 O.2   265  LYS265     -0.2715
     21  CB        34.0800   24.8000  -65.7440 C.3   265  LYS265      0.0311
     22  CG        34.8330   25.7440  -66.7330 C.3   265  LYS265      0.0038
     23  CD        34.4060   27.2100  -66.6000 C.3   265  LYS265      0.0206
     24  CE        35.1350   28.1370  -67.5910 C.3   265  LYS265      0.1093
     25  NZ        36.6220   27.9250  -67.5870 N.3   265  LYS265     -0.1314
     26  N         31.9730   24.6060  -63.3540 N.am  266  PHE266     -0.1960
     27  CA        31.0260   23.7560  -62.6640 C.3   266  PHE266      0.1771
     28  C         31.3200   23.6040  -61.1650 C.2   266  PHE266      0.2619
     29  O         31.0550   22.5480  -60.5950 O.2   266  PHE266     -0.2715
     30  CB        30.9190   22.3620  -63.3530 C.3   266  PHE266      0.0574
     31  CG        29.8120   22.2860  -64.3580 C.ar  266  PHE266     -0.0200
     32  CD1       28.7030   21.4840  -64.1370 C.ar  266  PHE266     -0.0042
     33  CD2       29.8320   23.1020  -65.4720 C.ar  266  PHE266     -0.0042
     34  CE1       27.6730   21.4380  -65.0340 C.ar  266  PHE266     -0.0003
     35  CE2       28.7950   23.0900  -66.3600 C.ar  266  PHE266     -0.0003
     36  CZ        27.7130   22.2490  -66.1510 C.ar  266  PHE266     -0.0000
     37  N         31.8090   24.6850  -60.5510 N.am  267  LEU267     -0.1963
     38  CA        32.1110   24.7220  -59.1420 C.3   267  LEU267      0.1728
     39  C         31.3450   25.8170  -58.4160 C.2   267  LEU267      0.2616
     40  O         31.8080   26.3620  -57.4260 O.2   267  LEU267     -0.2715
     41  CB        33.6160   24.9180  -58.9260 C.3   267  LEU267      0.0311
     42  CG        34.5600   23.7590  -59.2540 C.3   267  LEU267      0.0022
     43  CD1       35.9900   24.1940  -58.9510 C.3   267  LEU267      0.0001
     44  CD2       34.1740   22.5110  -58.4750 C.3   267  LEU267      0.0001
     45  N         30.1480   26.1140  -58.8870 N.am  268  LYS268     -0.1977
     46  CA        29.3480   27.1900  -58.3070 C.3   268  LYS268      0.1596
     47  C         28.2310   26.6180  -57.4090 C.2   268  LYS268      0.2287
     48  O         27.2440   26.0960  -57.8960 O.2   268  LYS268     -0.2864
     49  CB        28.7820   28.0320  -59.4470 C.3   268  LYS268      0.0298
     50  CG        28.0790   29.2840  -59.0420 C.3   268  LYS268      0.0038
     51  CD        29.0310   30.4390  -58.7770 C.3   268  LYS268      0.0206
     52  CE        28.2510   31.7530  -58.5870 C.3   268  LYS268      0.1093
     53  NZ        29.2060   32.9040  -58.4380 N.3   268  LYS268     -0.1314
     54  N         21.3690   21.6440  -58.5220 N.3   273  PHE273     -0.1227
     55  CA        21.3260   21.6110  -60.0000 C.3   273  PHE273      0.1736
     56  C         19.9540   21.1610  -60.4850 C.2   273  PHE273      0.2596
     57  O         19.2290   20.4380  -59.7750 O.2   273  PHE273     -0.2718
     58  CB        22.4500   20.7400  -60.6010 C.3   273  PHE273      0.0547
     59  CG        22.3930   19.2510  -60.2530 C.ar  273  PHE273     -0.0202
     60  CD1       21.5160   18.4130  -60.8960 C.ar  273  PHE273     -0.0042
     61  CD2       23.2660   18.6950  -59.3080 C.ar  273  PHE273     -0.0042
     62  CE1       21.4650   17.0520  -60.5980 C.ar  273  PHE273     -0.0003
     63  CE2       23.2550   17.3250  -59.0230 C.ar  273  PHE273     -0.0003
     64  CZ        22.3360   16.5010  -59.6420 C.ar  273  PHE273     -0.0000
     65  N         19.6040   21.5960  -61.6920 N.am  274  GLY274     -0.1957
     66  CA        18.3470   21.2380  -62.3330 C.3   274  GLY274      0.1869
     67  C         18.5210   20.9360  -63.8120 C.2   274  GLY274      0.2309
     68  O         19.5910   20.6650  -64.2490 O.2   274  GLY274     -0.2863
     69  N         20.7920   16.2140  -65.9940 N.3   278  PHE278     -0.1241
     70  CA        21.6720   15.6820  -64.9400 C.3   278  PHE278      0.1605
     71  C         21.0260   14.5720  -64.1550 C.2   278  PHE278      0.2264
     72  O         21.5350   13.4540  -64.1610 O.2   278  PHE278     -0.2867
     73  CB        22.2520   16.7890  -64.0530 C.3   278  PHE278      0.0534
     74  CG        23.1230   17.7660  -64.8200 C.ar  278  PHE278     -0.0203
     75  CD1       24.1160   17.3110  -65.6770 C.ar  278  PHE278     -0.0042
     76  CD2       22.9050   19.1250  -64.7390 C.ar  278  PHE278     -0.0042
     77  CE1       24.8900   18.1960  -66.4140 C.ar  278  PHE278     -0.0003
     78  CE2       23.6780   20.0170  -65.4810 C.ar  278  PHE278     -0.0003
     79  CZ        24.6590   19.5560  -66.3300 C.ar  278  PHE278     -0.0000
     80  N         15.0940   26.8080  -64.0530 N.3   339  PHE339     -0.1227
     81  CA        16.1330   25.9560  -63.4160 C.3   339  PHE339      0.1736
     82  C         17.4790   26.6710  -63.3350 C.2   339  PHE339      0.2595
     83  O         18.2600   26.4050  -62.4010 O.2   339  PHE339     -0.2718
     84  CB        16.2480   24.5490  -64.0820 C.3   339  PHE339      0.0547
     85  CG        17.1740   24.4760  -65.2790 C.ar  339  PHE339     -0.0202
     86  CD1       18.4940   24.1820  -65.1150 C.ar  339  PHE339     -0.0042
     87  CD2       16.6980   24.6290  -66.5650 C.ar  339  PHE339     -0.0042
     88  CE1       19.3350   24.0700  -66.2300 C.ar  339  PHE339     -0.0003
     89  CE2       17.5380   24.5140  -67.6600 C.ar  339  PHE339     -0.0003
     90  CZ        18.8450   24.2390  -67.4980 C.ar  339  PHE339     -0.0000
     91  N         17.6920   27.6060  -64.2800 N.am  340  LYS340     -0.1980
     92  CA        18.8360   28.5250  -64.2990 C.3   340  LYS340      0.1596
     93  C         18.4260   29.8660  -64.9280 C.2   340  LYS340      0.2287
     94  O         17.3140   30.0010  -65.4310 O.2   340  LYS340     -0.2864
     95  CB        19.9730   27.9230  -65.1130 C.3   340  LYS340      0.0298
     96  CG        19.6560   27.7830  -66.6230 C.3   340  LYS340      0.0038
     97  CD        20.8490   27.2520  -67.4390 C.3   340  LYS340      0.0206
     98  CE        20.6020   27.3650  -68.9430 C.3   340  LYS340      0.1093
     99  NZ        21.8370   27.2250  -69.7650 N.3   340  LYS340     -0.1314
    100  N         21.5270   31.2580  -54.4220 N.3   443  ARG443     -0.1245
    101  CA        22.4600   31.2460  -55.5660 C.3   443  ARG443      0.1563
    102  C         23.7180   32.0770  -55.4280 C.2   443  ARG443      0.2260
    103  O         24.4580   32.1510  -56.4050 O.2   443  ARG443     -0.2867
    104  CB        21.7660   31.7370  -56.8560 C.3   443  ARG443      0.0307
    105  CG        20.5680   30.9110  -57.3040 C.3   443  ARG443      0.0489
    106  CD        21.0130   29.7150  -58.0950 C.3   443  ARG443      0.2205
    107  NE        19.9030   28.8640  -58.5150 N.pl3 443  ARG443     -0.0865
    108  CZ        20.0550   27.7340  -59.1890 C.cat 443  ARG443      0.5346
    109  NH1       21.2740   27.3150  -59.5110 N.pl3 443  ARG443      0.1354
    110  NH2       18.9980   27.0040  -59.5350 N.pl3 443  ARG443      0.1354
@<TRIPOS>BOND
     1    99    98    1
     2    98    97    1
     3    89    90   ar
     4    89    87   ar
     5    24    25    1
     6    24    23    1
     7    90    88   ar
     8    97    96    1
     9    22    23    1
    10    22    21    1
    11    96    95    1
    12    87    85   ar
    13    77    79   ar
    14    77    75   ar
    15    35    36   ar
    16    35    33   ar
    17    79    78   ar
    18    88    86   ar
    19    36    34   ar
    20    69    70    1
    21    21    18    1
    22    75    74   ar
    23    78    76   ar
    24    33    31   ar
    25    94    93    2
    26    85    86   ar
    27    85    84    1
    28    95    92    1
    29    34    32   ar
    30    70    71    1
    31    70    73    1
    32    93    92    1
    33    15    14    2
    34    74    76   ar
    35    74    73    1
    36    31    32   ar
    37    31    30    1
    38    92    91    1
    39    91    82   am
    40    18    17    1
    41    18    19    1
    42    68    67    2
    43    72    71    2
    44    84    81    1
    45    80    81    1
    46    16    14   am
    47    14    13    1
    48    67    66    1
    49    17    11   am
    50    19    26   am
    51    19    20    2
    52    81    82    1
    53    26    27    1
    54    30    27    1
    55    82    83    2
    56     9    10    1
    57    11    12    2
    58    11    10    1
    59    27    28    1
    60    13    10    1
    61    66    65    1
    62    65    56   am
    63     8     6    1
    64    28    29    2
    65    28    37   am
    66    60    62   ar
    67    60    59   ar
    68    58    59    1
    69    58    55    1
    70    62    64   ar
    71    37    38    1
    72    56    55    1
    73    56    57    2
    74     6     5    1
    75    59    61   ar
    76    55    54    1
    77    64    63   ar
    78   110   108    1
    79   109   108    1
    80    49    50    1
    81    49    46    1
    82    61    63   ar
    83    42    43    1
    84    42    41    1
    85    42    44    1
    86     5     7    1
    87     5     2    1
    88   108   107    2
    89    38    41    1
    90    38    39    1
    91    50    51    1
    92     1     2    1
    93    45    39   am
    94    45    46    1
    95    51    52    1
    96    52    53    1
    97   107   106    1
    98    39    40    2
    99     2     3    1
   100    46    47    1
   101   106   105    1
   102    48    47    2
   103   105   104    1
   104     3     4    2
   105   104   101    1
   106   103   102    2
   107   101   102    1
   108   101   100    1
