@<TRIPOS>MOLECULE
tmp/3itoB00.pdb
 140 136 0 0 0
SMALL
GASTEIGER

@<TRIPOS>ATOM
      1  N        -34.7210   29.0040   23.0700 N.3    54  TRP54      -0.1241
      2  CA       -35.4780   28.0550   22.2620 C.3    54  TRP54       0.1605
      3  C        -36.2660   27.0610   23.1060 C.2    54  TRP54       0.2264
      4  O        -36.9420   26.1770   22.5720 O.2    54  TRP54      -0.2867
      5  CB       -34.5260   27.3060   21.3210 C.3    54  TRP54       0.0550
      6  CG       -33.4940   26.4570   22.0160 C.ar   54  TRP54       0.0003
      7  CD1      -33.5700   25.1150   22.2710 C.ar   54  TRP54       0.0946
      8  CD2      -32.2280   26.8900   22.5330 C.ar   54  TRP54       0.0152
      9  NE1      -32.4300   24.6860   22.9110 N.ar   54  TRP54      -0.2442
     10  CE2      -31.5910   25.7540   23.0870 C.ar   54  TRP54       0.0810
     11  CE3      -31.5700   28.1280   22.5860 C.ar   54  TRP54       0.0012
     12  CZ2      -30.3250   25.8180   23.6820 C.ar   54  TRP54       0.0191
     13  CZ3      -30.3100   28.1910   23.1790 C.ar   54  TRP54       0.0001
     14  CH2      -29.7030   27.0420   23.7200 C.ar   54  TRP54       0.0015
     15  N        -29.4890   31.5350   20.6130 N.3    98  HIS98      -0.1241
     16  CA       -29.0710   30.6400   19.5390 C.3    98  HIS98       0.1621
     17  C        -29.1340   31.4130   18.2230 C.2    98  HIS98       0.2264
     18  O        -30.1610   31.9980   17.8790 O.2    98  HIS98      -0.2867
     19  CB       -29.9930   29.4180   19.4790 C.3    98  HIS98       0.0745
     20  CG       -29.2800   28.1390   19.1640 C.ar   98  HIS98       0.0817
     21  ND1      -28.6000   27.9360   17.9840 N.ar   98  HIS98      -0.2268
     22  CD2      -29.1270   27.0020   19.8870 C.ar   98  HIS98       0.1154
     23  CE1      -28.0570   26.7310   17.9910 C.ar   98  HIS98       0.1986
     24  NE2      -28.3620   26.1430   19.1340 N.ar   98  HIS98      -0.2212
     25  N        -31.2880   31.6840   14.8830 N.3   101  TRP101     -0.1241
     26  CA       -32.6810   31.7290   15.3300 C.3   101  TRP101      0.1605
     27  C        -33.0930   33.0420   15.9990 C.2   101  TRP101      0.2264
     28  O        -34.1610   33.5830   15.7090 O.2   101  TRP101     -0.2867
     29  CB       -32.9890   30.5840   16.3040 C.3   101  TRP101      0.0550
     30  CG       -32.8490   29.1990   15.7420 C.ar  101  TRP101      0.0003
     31  CD1      -32.8370   28.8360   14.4220 C.ar  101  TRP101      0.0946
     32  CD2      -32.7420   27.9850   16.4920 C.ar  101  TRP101      0.0152
     33  NE1      -32.7280   27.4700   14.3070 N.ar  101  TRP101     -0.2442
     34  CE2      -32.6670   26.9230   15.5640 C.ar  101  TRP101      0.0810
     35  CE3      -32.7010   27.6900   17.8630 C.ar  101  TRP101      0.0012
     36  CZ2      -32.5530   25.5860   15.9610 C.ar  101  TRP101      0.0191
     37  CZ3      -32.5870   26.3600   18.2600 C.ar  101  TRP101      0.0001
     38  CH2      -32.5140   25.3250   17.3080 C.ar  101  TRP101      0.0015
     39  N        -24.9040   30.4960   21.3990 N.3   124  ASN124     -0.1240
     40  CA       -24.9400   29.1630   20.8040 C.3   124  ASN124      0.1653
     41  C        -24.9260   29.2660   19.2800 C.2   124  ASN124      0.2266
     42  O        -25.8280   29.8640   18.6820 O.2   124  ASN124     -0.2867
     43  CB       -26.1920   28.4050   21.2640 C.3   124  ASN124      0.1155
     44  CG       -26.1210   27.9830   22.7240 C.2   124  ASN124      0.2627
     45  OD1      -25.5740   26.9300   23.0550 O.2   124  ASN124     -0.2716
     46  ND2      -26.6620   28.8130   23.6060 N.am  124  ASN124     -0.0877
     47  N        -25.6280   22.9900   12.2660 N.3   128  PHE128     -0.1241
     48  CA       -26.2170   21.6560   12.1930 C.3   128  PHE128      0.1605
     49  C        -27.5050   21.7230   11.3620 C.2   128  PHE128      0.2264
     50  O        -28.3000   20.7800   11.3240 O.2   128  PHE128     -0.2867
     51  CB       -26.4940   21.1190   13.6040 C.3   128  PHE128      0.0534
     52  CG       -27.3100   22.0420   14.4670 C.ar  128  PHE128     -0.0203
     53  CD1      -28.6850   22.1670   14.2800 C.ar  128  PHE128     -0.0042
     54  CD2      -26.7010   22.7850   15.4780 C.ar  128  PHE128     -0.0042
     55  CE1      -29.4430   23.0170   15.0870 C.ar  128  PHE128     -0.0003
     56  CE2      -27.4510   23.6400   16.2920 C.ar  128  PHE128     -0.0003
     57  CZ       -28.8240   23.7540   16.0950 C.ar  128  PHE128     -0.0000
     58  N        -20.8380   28.5000   22.9850 N.3   174  THR174     -0.1218
     59  CA       -21.0080   27.0600   23.0830 C.3   174  THR174      0.1862
     60  C        -21.1060   26.4980   21.6780 C.2   174  THR174      0.2287
     61  O        -21.8990   26.9760   20.8670 O.2   174  THR174     -0.2866
     62  CB       -22.2810   26.6960   23.8440 C.3   174  THR174      0.1770
     63  OG1      -22.1050   27.0010   25.2310 O.3   174  THR174     -0.2211
     64  CG2      -22.5950   25.2100   23.6780 C.3   174  THR174      0.0375
     65  N        -21.8980   23.1220   19.6090 N.3   176  TRP176     -0.1241
     66  CA       -22.3570   21.7480   19.4750 C.3   176  TRP176      0.1605
     67  C        -22.6790   21.6160   18.0020 C.2   176  TRP176      0.2264
     68  O        -23.4290   22.4280   17.4640 O.2   176  TRP176     -0.2867
     69  CB       -23.6360   21.4510   20.2600 C.3   176  TRP176      0.0550
     70  CG       -24.1780   20.1000   19.8630 C.ar  176  TRP176      0.0003
     71  CD1      -23.6490   18.8790   20.1880 C.ar  176  TRP176      0.0946
     72  CD2      -25.2670   19.8340   18.9610 C.ar  176  TRP176      0.0152
     73  NE1      -24.3350   17.8750   19.5400 N.ar  176  TRP176     -0.2442
     74  CE2      -25.3300   18.4310   18.7800 C.ar  176  TRP176      0.0810
     75  CE3      -26.1890   20.6440   18.2840 C.ar  176  TRP176      0.0012
     76  CZ2      -26.2820   17.8210   17.9500 C.ar  176  TRP176      0.0191
     77  CZ3      -27.1360   20.0370   17.4570 C.ar  176  TRP176      0.0001
     78  CH2      -27.1710   18.6370   17.2980 C.ar  176  TRP176      0.0015
     79  N        -19.2780   20.7540   23.0280 N.3   216  GLU216     -0.1245
     80  CA       -20.2460   19.8060   23.5780 C.3   216  GLU216      0.1567
     81  C        -20.2230   18.4470   22.8880 C.2   216  GLU216      0.2260
     82  O        -20.4160   18.3580   21.6730 O.2   216  GLU216     -0.2867
     83  CB       -21.6520   20.4030   23.4630 C.3   216  GLU216      0.0388
     84  CG       -22.7350   19.6560   24.2220 C.3   216  GLU216      0.1160
     85  CD       -24.1020   20.3030   24.0730 C.2   216  GLU216      0.3649
     86  OE1      -24.1730   21.5380   23.9090 O.co2 216  GLU216     -0.2457
     87  OE2      -25.1100   19.5770   24.1370 O.co2 216  GLU216     -0.2457
     88  N        -21.5740   14.5030   22.1660 N.3   218  LYS218     -0.1245
     89  CA       -22.8570   13.8260   22.0460 C.3   218  LYS218      0.1561
     90  C        -22.6210   12.5040   21.3250 C.2   218  LYS218      0.2260
     91  O        -22.0550   12.4770   20.2370 O.2   218  LYS218     -0.2867
     92  CB       -23.8480   14.6900   21.2670 C.3   218  LYS218      0.0271
     93  CG       -25.2730   14.1490   21.3010 C.3   218  LYS218      0.0035
     94  CD       -26.2380   15.0400   20.5380 C.3   218  LYS218      0.0206
     95  CE       -27.6560   14.4760   20.6130 C.3   218  LYS218      0.1093
     96  NZ       -28.6520   15.3290   19.9120 N.3   218  LYS218     -0.1314
     97  N        -26.6160   13.1300   26.7110 N.3   254  HIS254     -0.1241
     98  CA       -25.7470   12.8400   25.5670 C.3   254  HIS254      0.1621
     99  C        -24.7550   11.7080   25.7760 C.2   254  HIS254      0.2264
    100  O        -23.7190   11.6560   25.1090 O.2   254  HIS254     -0.2867
    101  CB       -24.9680   14.0940   25.1670 C.3   254  HIS254      0.0745
    102  CG       -25.8250   15.1890   24.6170 C.ar  254  HIS254      0.0817
    103  ND1      -25.2970   16.3240   24.0420 N.ar  254  HIS254     -0.2268
    104  CD2      -27.1710   15.3210   24.5480 C.ar  254  HIS254      0.1154
    105  CE1      -26.2810   17.1080   23.6390 C.ar  254  HIS254      0.1986
    106  NE2      -27.4270   16.5230   23.9340 N.ar  254  HIS254     -0.2212
    107  N        -25.3290   21.0250   30.9660 N.3   278  HIS278     -0.1241
    108  CA       -26.6450   21.3040   30.3970 C.3   278  HIS278      0.1621
    109  C        -27.6230   20.2960   30.9800 C.2   278  HIS278      0.2264
    110  O        -27.5080   19.0940   30.7400 O.2   278  HIS278     -0.2867
    111  CB       -26.6180   21.2000   28.8710 C.3   278  HIS278      0.0745
    112  CG       -26.0520   22.4120   28.1990 C.ar  278  HIS278      0.0817
    113  ND1      -26.1550   22.6280   26.8420 N.ar  278  HIS278     -0.2268
    114  CD2      -25.3890   23.4810   28.7010 C.ar  278  HIS278      0.1154
    115  CE1      -25.5810   23.7780   26.5370 C.ar  278  HIS278      0.1986
    116  NE2      -25.1080   24.3150   27.6480 N.ar  278  HIS278     -0.2212
    117  N        -31.4270   10.9410   23.8710 N.3   286  ASP286     -0.1239
    118  CA       -31.3600   12.3640   24.1910 C.3   286  ASP286      0.1674
    119  C        -32.8150   12.8230   24.2320 C.2   286  ASP286      0.2266
    120  O        -33.2670   13.5590   23.3590 O.2   286  ASP286     -0.2867
    121  CB       -30.6090   13.1220   23.0970 C.3   286  ASP286      0.1410
    122  CG       -30.3670   14.5750   23.4540 C.2   286  ASP286      0.3668
    123  OD1      -30.0100   15.3560   22.5480 O.co2 286  ASP286     -0.2456
    124  OD2      -30.5230   14.9400   24.6390 O.co2 286  ASP286     -0.2456
    125  N        -34.3580   14.8810   26.2470 N.3   288  ASP288     -0.1239
    126  CA       -34.5620   16.2920   26.5730 C.3   288  ASP288      0.1674
    127  C        -35.7760   16.5610   27.4480 C.2   288  ASP288      0.2266
    128  O        -36.4670   17.5710   27.2750 O.2   288  ASP288     -0.2867
    129  CB       -34.6710   17.1260   25.2910 C.3   288  ASP288      0.1410
    130  CG       -33.3580   17.2240   24.5620 C.2   288  ASP288      0.3668
    131  OD1      -32.3280   17.3100   25.2580 O.co2 288  ASP288     -0.2456
    132  OD2      -33.3470   17.2230   23.3120 O.co2 288  ASP288     -0.2456
    133  N        -31.3880   22.7150   28.9620 N.3   324  ASN324     -0.1240
    134  CA       -31.5200   22.4470   27.5390 C.3   324  ASN324      0.1653
    135  C        -32.4920   21.2850   27.4030 C.2   324  ASN324      0.2266
    136  O        -32.1080   20.1140   27.4530 O.2   324  ASN324     -0.2867
    137  CB       -30.1670   22.1020   26.9160 C.3   324  ASN324      0.1155
    138  CG       -30.2550   21.9370   25.4160 C.2   324  ASN324      0.2627
    139  OD1      -31.0790   22.5730   24.7610 O.2   324  ASN324     -0.2716
    140  ND2      -29.4000   21.0920   24.8610 N.am  324  ASN324     -0.0877
@<TRIPOS>BOND
     1    50    49    2
     2    49    48    1
     3    48    47    1
     4    48    51    1
     5    51    52    1
     6    53    52   ar
     7    53    55   ar
     8    33    31   ar
     9    33    34   ar
    10    31    30   ar
    11    52    54   ar
    12    25    26    1
    13    55    57   ar
    14    26    27    1
    15    26    29    1
    16    54    56   ar
    17    34    36   ar
    18    34    32   ar
    19    28    27    2
    20    30    29    1
    21    30    32   ar
    22    36    38   ar
    23    57    56   ar
    24    32    35   ar
    25    78    77   ar
    26    78    76   ar
    27    38    37   ar
    28    77    75   ar
    29    68    67    2
    30    35    37   ar
    31    18    17    2
    32    76    74   ar
    33    21    23   ar
    34    21    20   ar
    35    23    24   ar
    36    67    66    1
    37    17    16    1
    38    75    72   ar
    39    42    41    2
    40    74    72   ar
    41    74    73   ar
    42    72    70   ar
    43    24    22   ar
    44    20    19    1
    45    20    22   ar
    46    41    40    1
    47    66    65    1
    48    66    69    1
    49    19    16    1
    50    16    15    1
    51    73    71   ar
    52    70    71   ar
    53    70    69    1
    54    96    95    1
    55    91    90    2
    56    94    95    1
    57    94    93    1
    58    40    43    1
    59    40    39    1
    60    61    60    2
    61    43    44    1
    62    92    93    1
    63    92    89    1
    64     5     6    1
    65     5     2    1
    66    90    89    1
    67    82    81    2
    68    60    59    1
    69     6     7   ar
    70     6     8   ar
    71    89    88    1
    72     2     1    1
    73     2     3    1
    74     7     9   ar
    75     8    11   ar
    76     8    10   ar
    77   123   122   ar
    78     4     3    2
    79    11    13   ar
    80    44    45    2
    81    44    46   am
    82    81    80    1
    83     9    10   ar
    84    58    59    1
    85    79    80    1
    86    59    62    1
    87    10    12   ar
    88   121   122    1
    89   121   118    1
    90    13    14   ar
    91   132   130   ar
    92   120   119    2
    93   122   124   ar
    94    83    80    1
    95    83    84    1
    96   105   106   ar
    97   105   103   ar
    98    64    62    1
    99    12    14   ar
   100    62    63    1
   101   117   118    1
   102    86    85   ar
   103   106   104   ar
   104   103   102   ar
   105    85    87   ar
   106    85    84    1
   107   118   119    1
   108   104   102   ar
   109   130   131   ar
   110   130   129    1
   111   102   101    1
   112   139   138    2
   113   140   138   am
   114   100    99    2
   115   101    98    1
   116   129   126    1
   117   138   137    1
   118    98    99    1
   119    98    97    1
   120   125   126    1
   121   115   113   ar
   122   115   116   ar
   123   126   127    1
   124   113   112   ar
   125   137   134    1
   126   128   127    2
   127   135   136    2
   128   135   134    1
   129   134   133    1
   130   116   114   ar
   131   112   114   ar
   132   112   111    1
   133   111   108    1
   134   108   107    1
   135   108   109    1
   136   110   109    2
