@<TRIPOS>MOLECULE
tmp/3ituB00.pdb
 135 130 0 0 0
SMALL
GASTEIGER

@<TRIPOS>ATOM
      1  N          8.1950    7.2150   41.1550 N.3    76  TYR76      -0.1227
      2  CA         9.5300    6.6430   41.4150 C.3    76  TYR76       0.1736
      3  C         10.3950    6.7340   40.1680 C.2    76  TYR76       0.2595
      4  O         11.5290    7.1920   40.2460 O.2    76  TYR76      -0.2718
      5  CB         9.4550    5.1930   41.8180 C.3    76  TYR76       0.0548
      6  CG        10.8330    4.6080   42.0290 C.ar   76  TYR76      -0.0200
      7  CD1       11.5210    4.9790   43.1770 C.ar   76  TYR76      -0.0009
      8  CD2       11.3790    3.6210   41.1810 C.ar   76  TYR76      -0.0009
      9  CE1       12.8550    4.3770   43.4250 C.ar   76  TYR76       0.0417
     10  CE2       12.5980    3.0200   41.4120 C.ar   76  TYR76       0.0417
     11  CZ        13.3570    3.4000   42.4950 C.ar   76  TYR76       0.1957
     12  OH        14.4970    2.7790   42.8000 O.3    76  TYR76      -0.2866
     13  N          9.9030    6.2470   39.0650 N.am   77  HIS77      -0.1975
     14  CA        10.7540    6.2180   37.7970 C.3    77  HIS77       0.1656
     15  C         10.9100    7.5370   37.0650 C.2    77  HIS77       0.2291
     16  O         10.4400    7.6480   35.9490 O.2    77  HIS77      -0.2864
     17  CB        10.2780    5.1130   36.8550 C.3    77  HIS77       0.0771
     18  CG        10.4720    3.7500   37.4240 C.ar   77  HIS77       0.0820
     19  ND1       11.6830    3.1110   37.5450 N.ar   77  HIS77      -0.2267
     20  CD2        9.5470    2.9000   37.9340 C.ar   77  HIS77       0.1154
     21  CE1       11.5000    1.8970   38.0740 C.ar   77  HIS77       0.1986
     22  NE2       10.2100    1.7660   38.3570 N.ar   77  HIS77      -0.2212
     23  N         14.6840   -7.0060   36.1570 N.3   188  LEU188     -0.1245
     24  CA        14.9890   -8.0190   37.2560 C.3   188  LEU188      0.1561
     25  C         14.7650   -9.5010   36.8760 C.2   188  LEU188      0.2260
     26  O         15.4370  -10.3690   37.4640 O.2   188  LEU188     -0.2867
     27  CB        14.2670   -7.6290   38.5850 C.3   188  LEU188      0.0270
     28  CG        14.8500   -6.3800   39.3240 C.3   188  LEU188      0.0019
     29  CD1       13.8370   -6.1170   40.4690 C.3   188  LEU188      0.0001
     30  CD2       16.2650   -6.6800   39.9000 C.3   188  LEU188      0.0001
     31  N         20.8440    0.1680   40.3750 N.3   226  ASP226     -0.1225
     32  CA        19.4580    0.3350   40.2340 C.3   226  ASP226      0.1805
     33  C         18.7290    0.1960   41.5990 C.2   226  ASP226      0.2594
     34  O         17.6630    0.8680   41.8010 O.2   226  ASP226     -0.2718
     35  CB        18.9320   -0.6450   39.1940 C.3   226  ASP226      0.1424
     36  CG        17.6380   -0.1320   38.4480 C.2   226  ASP226      0.3668
     37  OD1       17.0540    1.0120   38.6320 O.co2 226  ASP226     -0.2456
     38  OD2       17.2600   -0.8760   37.5190 O.co2 226  ASP226     -0.2456
     39  N         19.3030   -0.6860   42.4500 N.am  227  LEU227     -0.2033
     40  CA        18.6740   -1.0230   43.7710 C.3   227  LEU227      0.1282
     41  C         19.2700   -0.2020   44.9060 C.3   227  LEU227      0.2036
     42  O         18.9820   -0.5170   46.1460 O.3   227  LEU227     -0.2185
     43  CB        18.7400   -2.5740   44.0860 C.3   227  LEU227      0.0244
     44  CG        17.9530   -3.4360   43.1370 C.3   227  LEU227      0.0018
     45  CD1       17.6480   -4.8030   43.7180 C.3   227  LEU227      0.0001
     46  CD2       16.8390   -2.7590   42.2950 C.3   227  LEU227      0.0001
     47  N         19.1390    2.6140   46.3400 N.3   229  ASP229     -0.1225
     48  CA        18.3490    3.3330   47.4020 C.3   229  ASP229      0.1805
     49  C         18.1590    2.4860   48.6580 C.2   229  ASP229      0.2594
     50  O         17.7660    3.0360   49.7170 O.2   229  ASP229     -0.2718
     51  CB        16.9360    3.6020   46.9450 C.3   229  ASP229      0.1424
     52  CG        16.8130    4.6660   45.9850 C.2   229  ASP229      0.3668
     53  OD1       17.4370    5.7760   46.1190 O.co2 229  ASP229     -0.2456
     54  OD2       15.8910    4.4570   45.1030 O.co2 229  ASP229     -0.2456
     55  N         18.3390    1.1800   48.5700 N.am  230  GLN230     -0.2033
     56  CA        18.1800    0.3250   49.7520 C.3   230  GLN230      0.1287
     57  C         19.4770    0.2540   50.5920 C.3   230  GLN230      0.2036
     58  O         19.5310   -0.4580   51.6680 O.3   230  GLN230     -0.2185
     59  CB        17.7850   -1.0870   49.3170 C.3   230  GLN230      0.0340
     60  CG        16.5590   -1.0910   48.4390 C.3   230  GLN230      0.0904
     61  CD        15.4020   -0.5450   49.1450 C.2   230  GLN230      0.2608
     62  OE1       15.1860   -0.9040   50.2870 O.2   230  GLN230     -0.2717
     63  NE2       14.6680    0.3650   48.5280 N.am  230  GLN230     -0.0878
     64  N         11.4360    5.7630   49.6440 N.3   240  ILE240     -0.1231
     65  CA        11.4490    5.0430   48.3570 C.3   240  ILE240      0.1692
     66  C         10.3760    4.0050   48.2720 C.2   240  ILE240      0.2591
     67  O          9.6690    3.9150   47.2420 O.2   240  ILE240     -0.2718
     68  CB        12.8200    4.3530   48.0850 C.3   240  ILE240      0.0266
     69  CG1       13.9170    5.3860   47.9830 C.3   240  ILE240      0.0019
     70  CG2       12.6960    3.4290   46.8920 C.3   240  ILE240      0.0020
     71  CD1       13.6420    6.3780   46.9880 C.3   240  ILE240      0.0001
     72  N         10.1070    3.2960   49.3940 N.am  241  ALA241     -0.1980
     73  CA         8.9550    2.4060   49.4180 C.3   241  ALA241      0.1597
     74  C          7.6110    3.1570   49.1660 C.2   241  ALA241      0.2287
     75  O          6.7360    2.6860   48.3770 O.2   241  ALA241     -0.2864
     76  CB         8.9280    1.6770   50.7180 C.3   241  ALA241      0.0319
     77  N          7.5400    3.9070   45.2110 N.3   244  ILE244     -0.1231
     78  CA         7.3380    2.6380   44.4690 C.3   244  ILE244      0.1692
     79  C          5.8820    2.1620   44.6070 C.2   244  ILE244      0.2592
     80  O          5.1980    1.8900   43.6100 O.2   244  ILE244     -0.2718
     81  CB         8.3700    1.5950   44.9540 C.3   244  ILE244      0.0266
     82  CG1        9.7500    2.0790   44.4510 C.3   244  ILE244      0.0019
     83  CG2        8.0500    0.1780   44.4870 C.3   244  ILE244      0.0020
     84  CD1       10.8960    1.2120   44.8900 C.3   244  ILE244      0.0001
     85  N          5.4050    2.1000   45.8260 N.am  245  TYR245     -0.1976
     86  CA         4.0450    1.6920   46.0190 C.3   245  TYR245      0.1639
     87  C          3.0390    2.6350   45.4940 C.2   245  TYR245      0.2290
     88  O          2.0350    2.1820   44.9420 O.2   245  TYR245     -0.2864
     89  CB         3.7890    1.2240   47.4920 C.3   245  TYR245      0.0560
     90  CG         4.5190   -0.0720   47.6900 C.ar  245  TYR245     -0.0198
     91  CD1        5.6710   -0.1600   48.4970 C.ar  245  TYR245     -0.0009
     92  CD2        4.0850   -1.2630   47.0240 C.ar  245  TYR245     -0.0009
     93  CE1        6.3940   -1.3240   48.6060 C.ar  245  TYR245      0.0417
     94  CE2        4.8070   -2.4520   47.1470 C.ar  245  TYR245      0.0417
     95  CZ         5.9580   -2.4790   47.9710 C.ar  245  TYR245      0.1957
     96  OH         6.6360   -3.6630   48.0670 O.3   245  TYR245     -0.2866
     97  N          3.0490    1.5940   41.7550 N.3   248  PHE248     -0.1241
     98  CA         2.4240    0.2840   41.5870 C.3   248  PHE248      0.1605
     99  C          0.9230    0.3370   41.7920 C.2   248  PHE248      0.2264
    100  O          0.1470   -0.2060   40.9460 O.2   248  PHE248     -0.2867
    101  CB         2.9510   -0.6470   42.6640 C.3   248  PHE248      0.0534
    102  CG         4.3590   -1.1840   42.4560 C.ar  248  PHE248     -0.0203
    103  CD1        5.2120   -0.7570   41.4090 C.ar  248  PHE248     -0.0042
    104  CD2        4.8310   -2.1550   43.3550 C.ar  248  PHE248     -0.0042
    105  CE1        6.4870   -1.3740   41.2840 C.ar  248  PHE248     -0.0003
    106  CE2        6.1490   -2.7120   43.2240 C.ar  248  PHE248     -0.0003
    107  CZ         6.9020   -2.3500   42.1610 C.ar  248  PHE248     -0.0000
    108  N          0.7470   -7.1850   44.7030 N.3   265  MET265     -0.1245
    109  CA         1.5130   -6.0420   45.0970 C.3   265  MET265      0.1570
    110  C          1.0970   -4.7530   44.3930 C.2   265  MET265      0.2261
    111  O          1.5610   -3.6820   44.7870 O.2   265  MET265     -0.2867
    112  CB         3.0220   -6.2220   44.8840 C.3   265  MET265      0.0387
    113  CG         3.4880   -6.1910   43.5070 C.3   265  MET265      0.0595
    114  SD         5.2920   -6.4160   43.4670 S.3   265  MET265     -0.1393
    115  CE         5.5940   -8.1870   43.6670 C.3   265  MET265      0.0692
    116  N          7.8750   -5.5920   51.1040 N.3   277  GLN277     -0.1245
    117  CA         9.2110   -5.0570   51.1800 C.3   277  GLN277      0.1566
    118  C         10.1780   -6.0090   51.8190 C.2   277  GLN277      0.2260
    119  O         11.2550   -6.1950   51.2540 O.2   277  GLN277     -0.2867
    120  CB         9.2410   -3.7110   51.8860 C.3   277  GLN277      0.0367
    121  CG         8.7200   -2.6130   51.0500 C.3   277  GLN277      0.0905
    122  CD         9.6490   -2.3390   49.8420 C.2   277  GLN277      0.2608
    123  OE1        9.3020   -2.6760   48.7420 O.2   277  GLN277     -0.2717
    124  NE2       10.8120   -1.8540   50.0910 N.am  277  GLN277     -0.0878
    125  N         11.0790   -8.6130   49.1430 N.3   280  PHE280     -0.1241
    126  CA        11.9990   -8.0480   48.1000 C.3   280  PHE280      0.1605
    127  C         13.4160   -7.9020   48.6310 C.2   280  PHE280      0.2264
    128  O         14.4190   -8.1930   47.9120 O.2   280  PHE280     -0.2867
    129  CB        11.4500   -6.6590   47.7160 C.3   280  PHE280      0.0534
    130  CG        12.3040   -5.9840   46.6450 C.ar  280  PHE280     -0.0203
    131  CD1       12.1950   -6.4050   45.3160 C.ar  280  PHE280     -0.0042
    132  CD2       13.2450   -5.0430   46.9830 C.ar  280  PHE280     -0.0042
    133  CE1       13.0080   -5.8500   44.2920 C.ar  280  PHE280     -0.0003
    134  CE2       14.0770   -4.5040   45.9610 C.ar  280  PHE280     -0.0003
    135  CZ        13.9420   -4.9340   44.6600 C.ar  280  PHE280     -0.0000
@<TRIPOS>BOND
     1    16    15    2
     2    23    24    1
     3    17    18    1
     4    17    14    1
     5    25    24    1
     6    25    26    2
     7    15    14    1
     8    24    27    1
     9    18    19   ar
    10    18    20   ar
    11    38    36   ar
    12    19    21   ar
    13    14    13    1
    14    20    22   ar
    15    21    22   ar
    16    36    37   ar
    17    36    35    1
    18    27    28    1
    19    13     3   am
    20    35    32    1
    21    28    30    1
    22    28    29    1
    23     3     4    2
    24     3     2    1
    25    32    31    1
    26    32    33    1
    27   100    99    2
    28     1     2    1
    29     8    10   ar
    30     8     6   ar
    31   105   103   ar
    32   105   107   ar
    33   103   102   ar
    34    10    11   ar
    35     2     5    1
    36    98    97    1
    37    98    99    1
    38    98   101    1
    39    33    34    2
    40    33    39   am
    41     5     6    1
    42     6     7   ar
    43   107   106   ar
    44    46    44    1
    45    39    40    1
    46   102   101    1
    47   102   104   ar
    48    11    12    1
    49    11     9   ar
    50    44    45    1
    51    44    43    1
    52     7     9   ar
    53   106   104   ar
    54   114   113    1
    55   114   115    1
    56   113   112    1
    57    80    79    2
    58    40    43    1
    59    40    41    1
    60   133   135   ar
    61   133   131   ar
    62   110   111    2
    63   110   109    1
    64    82    84    1
    65    82    81    1
    66    78    79    1
    67    78    81    1
    68    78    77    1
    69    83    81    1
    70    79    85   am
    71   135   134   ar
    72   108   109    1
    73   112   109    1
    74    41    42    1
    75    88    87    2
    76    54    52   ar
    77   131   130   ar
    78    87    86    1
    79    85    86    1
    80   134   132   ar
    81    52    53   ar
    82    52    51    1
    83    86    89    1
    84    47    48    1
    85   130   132   ar
    86   130   129    1
    87    70    68    1
    88    51    48    1
    89    71    69    1
    90    92    94   ar
    91    92    90   ar
    92    94    95   ar
    93    67    66    2
    94    48    49    1
    95    89    90    1
    96    90    91   ar
    97   129   126    1
    98   128   127    2
    99    95    96    1
   100    95    93   ar
   101    69    68    1
   102    68    65    1
   103   126   127    1
   104   126   125    1
   105    66    65    1
   106    66    72   am
   107    65    64    1
   108    75    74    2
   109    60    61    1
   110    60    59    1
   111    91    93   ar
   112    63    61   am
   113    55    49   am
   114    55    56    1
   115    49    50    2
   116   123   122    2
   117    61    62    2
   118    74    73    1
   119    59    56    1
   120    72    73    1
   121    73    76    1
   122    56    57    1
   123   122   124   am
   124   122   121    1
   125    57    58    1
   126   121   120    1
   127   116   117    1
   128   117   118    1
   129   117   120    1
   130   119   118    2
