@<TRIPOS>MOLECULE
tmp/3itzA00.pdb
 182 173 0 0 0
SMALL
GASTEIGER

@<TRIPOS>ATOM
      1  N         -1.3890   33.8370   39.7180 N.3    34  VAL34      -0.1231
      2  CA        -2.4340   33.9010   38.6950 C.3    34  VAL34       0.1692
      3  C         -2.8370   32.5140   38.2030 C.2    34  VAL34       0.2592
      4  O         -2.0710   31.5570   38.3250 O.2    34  VAL34      -0.2718
      5  CB        -2.0200   34.7720   37.4740 C.3    34  VAL34       0.0266
      6  CG1       -2.2600   36.2450   37.7540 C.3    34  VAL34       0.0020
      7  CG2       -0.5700   34.5120   37.0720 C.3    34  VAL34       0.0020
      8  N         -4.0510   32.4190   37.6600 N.am   35  GLY35      -0.1957
      9  CA        -4.5360   31.2040   37.0030 C.3    35  GLY35       0.1869
     10  C         -5.0200   30.0820   37.9050 C.2    35  GLY35       0.2309
     11  O         -5.4110   29.0220   37.4140 O.2    35  GLY35      -0.2863
     12  N         -1.9330   27.1400   35.0890 N.3    39  TYR39      -0.1241
     13  CA        -0.6940   27.3360   34.3390 C.3    39  TYR39       0.1605
     14  C          0.5290   26.8630   35.1240 C.2    39  TYR39       0.2264
     15  O          1.6520   26.8970   34.6160 O.2    39  TYR39      -0.2867
     16  CB        -0.5360   28.8060   33.9480 C.3    39  TYR39       0.0534
     17  CG        -1.7860   29.4320   33.3690 C.ar   39  TYR39      -0.0201
     18  CD1       -2.3370   28.9630   32.1750 C.ar   39  TYR39      -0.0009
     19  CD2       -2.4090   30.5040   34.0070 C.ar   39  TYR39      -0.0009
     20  CE1       -3.4830   29.5370   31.6390 C.ar   39  TYR39       0.0417
     21  CE2       -3.5560   31.0860   33.4780 C.ar   39  TYR39       0.0417
     22  CZ        -4.0880   30.5970   32.2950 C.ar   39  TYR39       0.1957
     23  OH        -5.2240   31.1700   31.7640 O.3    39  TYR39      -0.2866
     24  N          2.7630   30.1130   38.6760 N.3    42  VAL42      -0.1245
     25  CA         2.9590   31.3480   37.9290 C.3    42  VAL42       0.1561
     26  C          2.4710   32.5510   38.7280 C.2    42  VAL42       0.2260
     27  O          1.3610   32.5490   39.2700 O.2    42  VAL42      -0.2867
     28  CB         2.2630   31.3060   36.5440 C.3    42  VAL42       0.0252
     29  CG1        2.4490   32.6220   35.7980 C.3    42  VAL42       0.0019
     30  CG2        2.8020   30.1580   35.7060 C.3    42  VAL42       0.0019
     31  N          4.6850   37.6300   33.4600 N.3    55  ALA55      -0.1231
     32  CA         4.3620   36.3610   34.0930 C.3    55  ALA55       0.1694
     33  C          5.6630   35.6400   34.4450 C.2    55  ALA55       0.2592
     34  O          6.5370   35.4670   33.5980 O.2    55  ALA55      -0.2718
     35  CB         3.5030   35.5140   33.1690 C.3    55  ALA55       0.0304
     36  N          5.7890   35.2430   35.7060 N.am   56  VAL56      -0.1966
     37  CA         6.9700   34.5310   36.1900 C.3    56  VAL56       0.1727
     38  C          6.5920   33.1200   36.6420 C.2    56  VAL56       0.2616
     39  O          5.8290   32.9540   37.5930 O.2    56  VAL56      -0.2715
     40  CB         7.6490   35.2840   37.3670 C.3    56  VAL56       0.0290
     41  CG1        8.9180   34.5680   37.8170 C.3    56  VAL56       0.0023
     42  CG2        7.9480   36.7260   36.9870 C.3    56  VAL56       0.0023
     43  N          7.1290   32.1120   35.9590 N.am   57  LYS57      -0.1977
     44  CA         6.8800   30.7160   36.3200 C.3    57  LYS57       0.1596
     45  C          8.0680   30.1330   37.0750 C.2    57  LYS57       0.2287
     46  O          9.1970   30.1850   36.5920 O.2    57  LYS57      -0.2864
     47  CB         6.5810   29.8780   35.0720 C.3    57  LYS57       0.0298
     48  CG         6.1610   28.4370   35.3630 C.3    57  LYS57       0.0038
     49  CD         6.4300   27.5060   34.1780 C.3    57  LYS57       0.0206
     50  CE         5.2780   27.4630   33.1800 C.3    57  LYS57       0.1093
     51  NZ         5.4660   26.4010   32.1320 N.3    57  LYS57      -0.1314
     52  N         11.9450   23.0150   27.5950 N.3    75  GLU75      -0.1245
     53  CA        11.1210   24.2130   27.7110 C.3    75  GLU75       0.1567
     54  C         11.9480   25.4980   27.5820 C.2    75  GLU75       0.2260
     55  O         11.5380   26.4330   26.8870 O.2    75  GLU75      -0.2867
     56  CB        10.3090   24.2030   29.0130 C.3    75  GLU75       0.0388
     57  CG         9.4420   25.4400   29.2020 C.3    75  GLU75       0.1160
     58  CD         8.3780   25.2870   30.2730 C.2    75  GLU75       0.3649
     59  OE1        8.4880   24.3810   31.1220 O.co2  75  GLU75      -0.2457
     60  OE2        7.4210   26.0880   30.2610 O.co2  75  GLU75      -0.2457
     61  N         13.2350   25.9930   23.9980 N.3    78  LEU78      -0.1231
     62  CA        12.0730   26.4170   23.2140 C.3    78  LEU78       0.1693
     63  C         11.7870   27.9070   23.3590 C.2    78  LEU78       0.2591
     64  O         11.6080   28.6100   22.3660 O.2    78  LEU78      -0.2718
     65  CB        10.8330   25.6220   23.6510 C.3    78  LEU78       0.0284
     66  CG        10.1230   24.5560   22.7990 C.3    78  LEU78       0.0019
     67  CD1       10.8990   24.0640   21.5830 C.3    78  LEU78       0.0001
     68  CD2        9.6800   23.3930   23.6900 C.3    78  LEU78       0.0001
     69  N         11.7400   28.3710   24.6040 N.am   79  LEU79      -0.1980
     70  CA        11.4150   29.7610   24.9130 C.3    79  LEU79       0.1596
     71  C         12.5070   30.7360   24.4690 C.2    79  LEU79       0.2287
     72  O         12.2000   31.8260   23.9880 O.2    79  LEU79      -0.2864
     73  CB        11.1130   29.9230   26.4060 C.3    79  LEU79       0.0297
     74  CG         9.7770   29.3750   26.9080 C.3    79  LEU79       0.0022
     75  CD1        9.8150   29.1610   28.4070 C.3    79  LEU79       0.0001
     76  CD2        8.5970   30.2730   26.5070 C.3    79  LEU79       0.0001
     77  N          4.7520   33.2730   22.4160 N.3    88  ILE88      -0.1245
     78  CA         5.3240   33.5600   23.7250 C.3    88  ILE88       0.1561
     79  C          6.8410   33.3270   23.7010 C.2    88  ILE88       0.2260
     80  O          7.3330   32.3490   23.1280 O.2    88  ILE88      -0.2867
     81  CB         4.6110   32.8130   24.8940 C.3    88  ILE88       0.0252
     82  CG1        4.6920   33.6350   26.1860 C.3    88  ILE88       0.0019
     83  CG2        5.1720   31.4010   25.1110 C.3    88  ILE88       0.0019
     84  CD1        3.7660   34.8480   26.2320 C.3    88  ILE88       0.0001
     85  N         11.1280   31.3580   34.9150 N.3   108  LEU108     -0.1245
     86  CA        10.9500   31.8550   33.5540 C.3   108  LEU108      0.1561
     87  C         10.0760   33.1060   33.5670 C.2   108  LEU108      0.2260
     88  O          9.1100   33.1770   34.3170 O.2   108  LEU108     -0.2867
     89  CB        10.3420   30.7700   32.6580 C.3   108  LEU108      0.0270
     90  CG        11.0190   29.3870   32.6400 C.3   108  LEU108      0.0019
     91  CD1       10.0680   28.3400   32.0760 C.3   108  LEU108      0.0001
     92  CD2       12.3450   29.3940   31.8620 C.3   108  LEU108      0.0001
     93  N          7.9020   35.7820   31.1260 N.3   110  THR110     -0.1203
     94  CA         7.3030   36.1310   29.8340 C.3   110  THR110      0.1994
     95  C          6.4130   37.3680   29.9610 C.2   110  THR110      0.2618
     96  O          6.2140   37.8910   31.0550 O.2   110  THR110     -0.2717
     97  CB         6.4530   34.9660   29.2370 C.3   110  THR110      0.1784
     98  OG1        5.2610   34.7860   30.0150 O.3   110  THR110     -0.2211
     99  CG2        7.2420   33.6590   29.1860 C.3   110  THR110      0.0376
    100  N          5.8820   37.8310   28.8320 N.am  111  HIS111     -0.1961
    101  CA         4.8410   38.8480   28.8370 C.3   111  HIS111      0.1787
    102  C          3.6270   38.3380   29.6110 C.2   111  HIS111      0.2620
    103  O          3.3010   37.1500   29.5480 O.2   111  HIS111     -0.2715
    104  CB         4.4250   39.1870   27.4080 C.3   111  HIS111      0.0785
    105  CG         5.3690   40.1080   26.7020 C.ar  111  HIS111      0.0821
    106  ND1        5.4120   41.4630   26.9520 N.ar  111  HIS111     -0.2267
    107  CD2        6.2900   39.8740   25.7360 C.ar  111  HIS111      0.1154
    108  CE1        6.3290   42.0210   26.1800 C.ar  111  HIS111      0.1986
    109  NE2        6.8720   41.0800   25.4300 N.ar  111  HIS111     -0.2212
    110  N          2.9770   39.2270   30.3580 N.am  112  LEU112     -0.1963
    111  CA         1.7070   38.8850   30.9930 C.3   112  LEU112      0.1728
    112  C          0.5730   39.1750   30.0220 C.2   112  LEU112      0.2616
    113  O          0.5030   40.2620   29.4360 O.2   112  LEU112     -0.2715
    114  CB         1.4940   39.6530   32.3010 C.3   112  LEU112      0.0311
    115  CG         0.2660   39.2620   33.1290 C.3   112  LEU112      0.0022
    116  CD1        0.4230   37.8560   33.6870 C.3   112  LEU112      0.0001
    117  CD2        0.0190   40.2680   34.2580 C.3   112  LEU112      0.0001
    118  N         -0.2950   38.1820   29.8500 N.am  113  MET113     -0.1963
    119  CA        -1.4700   38.3010   28.9940 C.3   113  MET113      0.1736
    120  C         -2.7380   38.3280   29.8430 C.2   113  MET113      0.2617
    121  O         -2.7120   37.9500   31.0140 O.2   113  MET113     -0.2715
    122  CB        -1.5050   37.1640   27.9710 C.3   113  MET113      0.0427
    123  CG        -0.2680   37.0900   27.0700 C.3   113  MET113      0.0599
    124  SD         0.0210   38.5710   26.0780 S.3   113  MET113     -0.1393
    125  CE        -1.2310   38.3850   24.8050 C.3   113  MET113      0.0692
    126  N         -3.8400   38.7820   29.2530 N.am  114  GLY114     -0.1940
    127  CA        -5.0830   39.0050   29.9960 C.3   114  GLY114      0.2014
    128  C         -5.9430   37.7750   30.2310 C.2   114  GLY114      0.2639
    129  O         -6.4570   37.5690   31.3310 O.2   114  GLY114     -0.2714
    130  N         -6.1130   36.9670   29.1890 N.am  115  ALA115     -0.1963
    131  CA        -6.9460   35.7690   29.2550 C.3   115  ALA115      0.1728
    132  C         -6.5840   34.8050   28.1320 C.2   115  ALA115      0.2616
    133  O         -5.9010   35.1880   27.1820 O.2   115  ALA115     -0.2715
    134  CB        -8.4340   36.1530   29.1780 C.3   115  ALA115      0.0334
    135  N         -7.0220   33.5530   28.2410 N.am  116  ASP116     -0.1971
    136  CA        -6.9210   32.6390   27.1060 C.3   116  ASP116      0.1709
    137  C         -8.2150   32.6880   26.2920 C.2   116  ASP116      0.2293
    138  O         -9.2140   33.2230   26.7640 O.2   116  ASP116     -0.2864
    139  CB        -6.5320   31.2120   27.5360 C.3   116  ASP116      0.1436
    140  CG        -7.5310   30.5790   28.4840 C.2   116  ASP116      0.3671
    141  OD1       -8.7170   30.4690   28.1270 O.co2 116  ASP116     -0.2456
    142  OD2       -7.1190   30.1560   29.5810 O.co2 116  ASP116     -0.2456
    143  N         -3.2260   32.9230   24.2720 N.3   161  ALA161     -0.1245
    144  CA        -3.3710   34.0190   25.2210 C.3   161  ALA161      0.1562
    145  C         -3.6790   35.3290   24.5080 C.2   161  ALA161      0.2260
    146  O         -3.0860   35.6430   23.4800 O.2   161  ALA161     -0.2867
    147  CB        -2.1190   34.1460   26.0620 C.3   161  ALA161      0.0290
    148  N          1.0090   29.9600   23.3180 N.3   171  LEU171     -0.1231
    149  CA         1.7060   29.3260   24.4420 C.3   171  LEU171      0.1693
    150  C          1.8530   27.8060   24.2380 C.2   171  LEU171      0.2592
    151  O          1.1560   27.2090   23.4140 O.2   171  LEU171     -0.2718
    152  CB         0.9600   29.5760   25.7630 C.3   171  LEU171      0.0284
    153  CG         0.2920   30.9140   26.1140 C.3   171  LEU171      0.0019
    154  CD1       -0.7110   30.7130   27.2450 C.3   171  LEU171      0.0001
    155  CD2        1.2980   31.9690   26.4910 C.3   171  LEU171      0.0001
    156  N          2.7710   27.2070   24.9990 N.am  172  ASP172     -0.1960
    157  CA         2.9020   25.7440   25.1470 C.3   172  ASP172      0.1840
    158  C          3.2520   24.9340   23.8940 C.2   172  ASP172      0.2622
    159  O          2.8550   23.7760   23.7730 O.2   172  ASP172     -0.2715
    160  CB         1.6610   25.1480   25.8350 C.3   172  ASP172      0.1450
    161  CG         1.6340   25.4230   27.3190 C.2   172  ASP172      0.3671
    162  OD1        2.6700   25.2050   27.9890 O.co2 172  ASP172     -0.2456
    163  OD2        0.5700   25.8560   27.8170 O.co2 172  ASP172     -0.2456
    164  N          4.0120   25.5320   22.9840 N.am  173  PHE173     -0.1974
    165  CA         4.4800   24.8370   21.7830 C.3   173  PHE173      0.1639
    166  C          5.5650   23.8120   22.1060 C.2   173  PHE173      0.2290
    167  O          6.3530   24.0040   23.0370 O.2   173  PHE173     -0.2864
    168  CB         4.9990   25.8400   20.7480 C.3   173  PHE173      0.0560
    169  CG         5.7510   26.9940   21.3500 C.ar  173  PHE173     -0.0200
    170  CD1        7.1020   26.8720   21.6770 C.ar  173  PHE173     -0.0042
    171  CD2        5.1040   28.2040   21.6050 C.ar  173  PHE173     -0.0042
    172  CE1        7.7930   27.9340   22.2470 C.ar  173  PHE173     -0.0003
    173  CE2        5.7860   29.2670   22.1750 C.ar  173  PHE173     -0.0003
    174  CZ         7.1320   29.1360   22.4940 C.ar  173  PHE173     -0.0000
    175  N          6.0900   20.9380   23.5230 N.3   175  LEU175     -0.1245
    176  CA         6.3200   20.3130   24.7560 C.3   175  LEU175      0.1561
    177  C          5.2060   19.5350   25.4510 C.2   175  LEU175      0.2260
    178  O          5.4170   18.9450   26.4520 O.2   175  LEU175     -0.2867
    179  CB         7.0150   21.2740   25.7050 C.3   175  LEU175      0.0270
    180  CG         6.2520   21.9100   26.8210 C.3   175  LEU175      0.0019
    181  CD1        7.0440   22.9440   27.5250 C.3   175  LEU175      0.0001
    182  CD2        4.9700   22.3880   26.3750 C.3   175  LEU175      0.0001
@<TRIPOS>BOND
     1   168   169    1
     2   168   165    1
     3   169   171   ar
     4   169   170   ar
     5    67    66    1
     6   171   173   ar
     7   170   172   ar
     8   165   166    1
     9   165   164    1
    10   166   167    2
    11   173   174   ar
    12   172   174   ar
    13    64    63    2
    14    77    78    1
    15    66    65    1
    16    66    68    1
    17   164   158   am
    18    80    79    2
    19    62    63    1
    20    62    65    1
    21    62    61    1
    22   148   149    1
    23    63    69   am
    24   151   150    2
    25   146   145    2
    26   175   176    1
    27    79    78    1
    28    78    81    1
    29   159   158    2
    30   158   157    1
    31    72    71    2
    32   150   149    1
    33   150   156   am
    34   143   144    1
    35   149   152    1
    36    71    70    1
    37   145   144    1
    38    69    70    1
    39   176   177    1
    40   176   179    1
    41   125   124    1
    42    81    83    1
    43    81    82    1
    44    70    73    1
    45   156   157    1
    46   157   160    1
    47   144   147    1
    48   109   107   ar
    49   109   108   ar
    50   177   178    2
    51   179   180    1
    52   107   105   ar
    53   152   153    1
    54   160   161    1
    55   124   123    1
    56   153   155    1
    57   153   154    1
    58   108   106   ar
    59    82    84    1
    60   137   138    2
    61   137   136    1
    62   182   180    1
    63    73    74    1
    64    76    74    1
    65   105   106   ar
    66   105   104    1
    67   180   181    1
    68    55    54    2
    69    74    75    1
    70   123   122    1
    71   136   139    1
    72   136   135    1
    73   133   132    2
    74   161   163   ar
    75   161   162   ar
    76   104   101    1
    77   139   140    1
    78    54    53    1
    79    52    53    1
    80    53    56    1
    81   122   119    1
    82   141   140   ar
    83   132   135   am
    84   132   131    1
    85   140   142   ar
    86   100   101    1
    87   100    95   am
    88   101   102    1
    89   119   120    1
    90   119   118    1
    91    56    57    1
    92   134   131    1
    93    99    97    1
    94   130   131    1
    95   130   128   am
    96    57    58    1
    97    97    94    1
    98    97    98    1
    99   126   120   am
   100   126   127    1
   101   113   112    2
   102   103   102    2
   103   102   110   am
   104    94    95    1
   105    94    93    1
   106   120   121    2
   107   118   112   am
   108    95    96    2
   109   127   128    1
   110   112   111    1
   111   128   129    2
   112    60    58   ar
   113    58    59   ar
   114   110   111    1
   115   111   114    1
   116    20    18   ar
   117    20    22   ar
   118    23    22    1
   119    92    90    1
   120    91    90    1
   121    51    50    1
   122    18    17   ar
   123    22    21   ar
   124   114   115    1
   125    90    89    1
   126    89    86    1
   127   115   116    1
   128   115   117    1
   129    35    32    1
   130    50    49    1
   131    17    16    1
   132    17    19   ar
   133    31    32    1
   134    21    19   ar
   135    86    87    1
   136    86    85    1
   137    87    88    2
   138    34    33    2
   139    16    13    1
   140    32    33    1
   141    49    48    1
   142    13    12    1
   143    13    14    1
   144    33    36   am
   145    15    14    2
   146    47    48    1
   147    47    44    1
   148    36    37    1
   149    30    28    1
   150    29    28    1
   151    43    44    1
   152    43    38   am
   153    37    38    1
   154    37    40    1
   155    44    45    1
   156    28    25    1
   157    46    45    2
   158    38    39    2
   159    42    40    1
   160     9     8    1
   161     9    10    1
   162     7     5    1
   163    40    41    1
   164    11    10    2
   165     5     6    1
   166     5     2    1
   167     8     3   am
   168    25    24    1
   169    25    26    1
   170     3     4    2
   171     3     2    1
   172     2     1    1
   173    26    27    2
