@<TRIPOS>MOLECULE
tmp/3iu2B01.pdb
 187 180 0 0 0
SMALL
GASTEIGER

@<TRIPOS>ATOM
      1  N        -13.5600   22.6030  -61.6590 N.3    67  VAL67      -0.1231
      2  CA       -13.9380   21.4550  -62.4960 C.3    67  VAL67       0.1692
      3  C        -14.7410   21.8370  -63.7440 C.2    67  VAL67       0.2592
      4  O        -15.7270   22.5710  -63.6650 O.2    67  VAL67      -0.2718
      5  CB       -14.7040   20.3660  -61.6880 C.3    67  VAL67       0.0266
      6  CG1      -14.9140   19.1100  -62.5310 C.3    67  VAL67       0.0020
      7  CG2      -13.9540   20.0100  -60.4110 C.3    67  VAL67       0.0020
      8  N        -14.2780   21.3430  -64.8920 N.am   68  GLU68      -0.1966
      9  CA       -14.9780   21.4830  -66.1670 C.3    68  GLU68       0.1733
     10  C        -15.4940   20.1150  -66.6110 C.2    68  GLU68       0.2616
     11  O        -14.9930   19.0820  -66.1600 O.2    68  GLU68      -0.2715
     12  CB       -14.0440   22.0770  -67.2300 C.3    68  GLU68       0.0429
     13  CG       -13.5360   23.4650  -66.8590 C.3    68  GLU68       0.1163
     14  CD       -12.5180   24.0290  -67.8290 C.2    68  GLU68       0.3649
     15  OE1      -12.1870   23.3560  -68.8300 O.co2  68  GLU68      -0.2457
     16  OE2      -12.0500   25.1640  -67.5870 O.co2  68  GLU68      -0.2457
     17  N        -16.4940   20.0990  -67.4910 N.am   69  ASP69      -0.1957
     18  CA       -17.0220   18.8320  -68.0060 C.3    69  ASP69       0.1840
     19  C        -16.0230   18.2240  -68.9930 C.2    69  ASP69       0.2622
     20  O        -15.0040   18.8470  -69.3120 O.2    69  ASP69      -0.2715
     21  CB       -18.3750   19.0470  -68.6800 C.3    69  ASP69       0.1450
     22  CG       -18.2520   19.7380  -70.0170 C.2    69  ASP69       0.3671
     23  OD1      -17.6660   20.8370  -70.0700 O.co2  69  ASP69      -0.2456
     24  OD2      -18.7440   19.1800  -71.0170 O.co2  69  ASP69      -0.2456
     25  N        -16.3170   17.0200  -69.4770 N.am   70  ASP70      -0.1957
     26  CA       -15.4050   16.3180  -70.3810 C.3    70  ASP70       0.1840
     27  C        -15.3180   16.9160  -71.7890 C.2    70  ASP70       0.2622
     28  O        -14.4300   16.5490  -72.5630 O.2    70  ASP70      -0.2715
     29  CB       -15.7260   14.8200  -70.4300 C.3    70  ASP70       0.1450
     30  CG       -15.2180   14.0800  -69.2040 C.2    70  ASP70       0.3671
     31  OD1      -14.2220   14.5360  -68.5960 O.co2  70  ASP70      -0.2456
     32  OD2      -15.8090   13.0410  -68.8470 O.co2  70  ASP70      -0.2456
     33  N        -16.2240   17.8370  -72.1100 N.am   71  ASP71      -0.1971
     34  CA       -16.1950   18.5470  -73.3940 C.3    71  ASP71       0.1709
     35  C        -15.6200   19.9640  -73.2790 C.2    71  ASP71       0.2293
     36  O        -15.5850   20.7030  -74.2650 O.2    71  ASP71      -0.2864
     37  CB       -17.5930   18.5860  -74.0210 C.3    71  ASP71       0.1436
     38  CG       -17.9870   17.2680  -74.6750 C.2    71  ASP71       0.3671
     39  OD1      -19.1410   16.8360  -74.4870 O.co2  71  ASP71      -0.2456
     40  OD2      -17.1500   16.6680  -75.3800 O.co2  71  ASP71      -0.2456
     41  N        -18.5720   23.5550  -69.8710 N.3    74  PHE74      -0.1227
     42  CA       -19.1990   24.0680  -68.6540 C.3    74  PHE74       0.1736
     43  C        -18.2510   23.9160  -67.4750 C.2    74  PHE74       0.2595
     44  O        -17.5880   22.8890  -67.3390 O.2    74  PHE74      -0.2718
     45  CB       -20.5040   23.3170  -68.3560 C.3    74  PHE74       0.0547
     46  CG       -21.4270   23.2180  -69.5370 C.ar   74  PHE74      -0.0202
     47  CD1      -22.2160   24.3040  -69.9110 C.ar   74  PHE74      -0.0042
     48  CD2      -21.4970   22.0470  -70.2850 C.ar   74  PHE74      -0.0042
     49  CE1      -23.0710   24.2250  -71.0190 C.ar   74  PHE74      -0.0003
     50  CE2      -22.3470   21.9560  -71.3900 C.ar   74  PHE74      -0.0003
     51  CZ       -23.1360   23.0540  -71.7560 C.ar   74  PHE74      -0.0000
     52  N        -18.1930   24.9420  -66.6310 N.am   75  ARG75      -0.1966
     53  CA       -17.3860   24.9020  -65.4140 C.3    75  ARG75       0.1729
     54  C        -18.2580   25.2970  -64.2300 C.2    75  ARG75       0.2616
     55  O        -19.1120   26.1680  -64.3560 O.2    75  ARG75      -0.2715
     56  CB       -16.1910   25.8520  -65.5290 C.3    75  ARG75       0.0348
     57  CG       -15.1810   25.7380  -64.3820 C.3    75  ARG75       0.0492
     58  CD       -14.1330   26.8470  -64.4100 C.3    75  ARG75       0.2205
     59  NE       -13.4720   26.9420  -65.7030 N.pl3  75  ARG75      -0.0865
     60  CZ       -13.5880   27.9620  -66.5510 C.cat  75  ARG75       0.5346
     61  NH1      -14.3370   29.0180  -66.2520 N.pl3  75  ARG75       0.1354
     62  NH2      -12.9430   27.9250  -67.7080 N.pl3  75  ARG75       0.1354
     63  N        -18.0370   24.6630  -63.0810 N.am   76  PHE76      -0.1974
     64  CA       -18.8130   24.9840  -61.8900 C.3    76  PHE76       0.1639
     65  C        -18.7080   26.4570  -61.5390 C.2    76  PHE76       0.2290
     66  O        -17.6410   27.0670  -61.6710 O.2    76  PHE76      -0.2864
     67  CB       -18.3780   24.1380  -60.6930 C.3    76  PHE76       0.0560
     68  CG       -18.7880   22.6920  -60.7800 C.ar   76  PHE76      -0.0200
     69  CD1      -17.9040   21.6860  -60.3990 C.ar   76  PHE76      -0.0042
     70  CD2      -20.0570   22.3330  -61.2300 C.ar   76  PHE76      -0.0042
     71  CE1      -18.2710   20.3390  -60.4630 C.ar   76  PHE76      -0.0003
     72  CE2      -20.4350   20.9860  -61.3000 C.ar   76  PHE76      -0.0003
     73  CZ       -19.5410   19.9910  -60.9180 C.ar   76  PHE76      -0.0000
     74  N        -12.8820   12.3730  -60.3130 N.3   170  GLY170     -0.1210
     75  CA       -13.2450   11.7990  -61.6090 C.3   170  GLY170      0.1956
     76  C        -12.1230   11.0320  -62.2890 C.2   170  GLY170      0.2611
     77  O        -12.2940   10.5060  -63.3940 O.2   170  GLY170     -0.2717
     78  N        -10.9670   10.9750  -61.6380 N.am  171  VAL171     -0.1979
     79  CA        -9.8120   10.2450  -62.1570 C.3   171  VAL171      0.1595
     80  C         -9.6180    8.9670  -61.3540 C.2   171  VAL171      0.2287
     81  O         -9.9810    8.9140  -60.1740 O.2   171  VAL171     -0.2864
     82  CB        -8.5100   11.1000  -62.1080 C.3   171  VAL171      0.0276
     83  CG1       -8.5390   12.1970  -63.1730 C.3   171  VAL171      0.0022
     84  CG2       -8.2880   11.7010  -60.7200 C.3   171  VAL171      0.0022
     85  N        -22.7470    9.6530  -63.1280 N.3   182  TYR182     -0.1241
     86  CA       -23.6050   10.8480  -63.1600 C.3   182  TYR182      0.1605
     87  C        -24.7960   10.6630  -64.1010 C.2   182  TYR182      0.2264
     88  O        -24.5940   10.2650  -65.2500 O.2   182  TYR182     -0.2867
     89  CB       -22.8060   12.0440  -63.6840 C.3   182  TYR182      0.0534
     90  CG       -21.5580   12.3890  -62.9090 C.ar  182  TYR182     -0.0201
     91  CD1      -21.6280   13.1770  -61.7630 C.ar  182  TYR182     -0.0009
     92  CD2      -20.3010   11.9510  -63.3400 C.ar  182  TYR182     -0.0009
     93  CE1      -20.4900   13.5090  -61.0550 C.ar  182  TYR182      0.0417
     94  CE2      -19.1530   12.2730  -62.6320 C.ar  182  TYR182      0.0417
     95  CZ       -19.2570   13.0560  -61.4920 C.ar  182  TYR182      0.1957
     96  OH       -18.1270   13.3910  -60.7890 O.3   182  TYR182     -0.2866
     97  N        -28.4650   12.7570  -65.6170 N.3   184  HIS184     -0.1241
     98  CA       -29.0920   14.0690  -65.7960 C.3   184  HIS184      0.1621
     99  C        -30.5520   13.9290  -66.1930 C.2   184  HIS184      0.2264
    100  O        -30.9060   13.0780  -67.0120 O.2   184  HIS184     -0.2867
    101  CB       -28.3900   14.8760  -66.8950 C.3   184  HIS184      0.0745
    102  CG       -26.8960   14.8670  -66.8070 C.ar  184  HIS184      0.0817
    103  ND1      -26.2080   15.3970  -65.7360 N.ar  184  HIS184     -0.2268
    104  CD2      -25.9580   14.4110  -67.6710 C.ar  184  HIS184      0.1154
    105  CE1      -24.9100   15.2530  -65.9360 C.ar  184  HIS184      0.1986
    106  NE2      -24.7310   14.6640  -67.1060 N.ar  184  HIS184     -0.2212
    107  N        -25.6970   21.5530  -74.0490 N.3   197  PHE197     -0.1241
    108  CA       -25.6260   20.5730  -72.9750 C.3   197  PHE197      0.1605
    109  C        -26.2390   19.2710  -73.4930 C.2   197  PHE197      0.2264
    110  O        -25.7240   18.1870  -73.2280 O.2   197  PHE197     -0.2867
    111  CB       -26.3690   21.0720  -71.7270 C.3   197  PHE197      0.0534
    112  CG       -26.4190   20.0720  -70.5990 C.ar  197  PHE197     -0.0203
    113  CD1      -25.4840   20.1170  -69.5720 C.ar  197  PHE197     -0.0042
    114  CD2      -27.4150   19.0950  -70.5550 C.ar  197  PHE197     -0.0042
    115  CE1      -25.5340   19.1940  -68.5250 C.ar  197  PHE197     -0.0003
    116  CE2      -27.4700   18.1750  -69.5180 C.ar  197  PHE197     -0.0003
    117  CZ       -26.5270   18.2230  -68.5000 C.ar  197  PHE197     -0.0000
    118  N        -23.6300   26.3400  -63.5130 N.3   291  SER291     -0.1217
    119  CA       -22.4140   26.1950  -64.3050 C.3   291  SER291      0.1889
    120  C        -22.3020   27.3060  -65.3390 C.2   291  SER291      0.2288
    121  O        -23.2790   27.6470  -66.0170 O.2   291  SER291     -0.2866
    122  CB       -22.3620   24.8370  -65.0040 C.3   291  SER291      0.2089
    123  OG       -21.9680   23.8200  -64.1010 O.3   291  SER291     -0.2183
    124  N        -26.0000   28.0190  -66.5140 N.3   299  LEU299     -0.1245
    125  CA       -26.9030   26.8850  -66.5600 C.3   299  LEU299      0.1561
    126  C        -27.2400   26.5660  -65.1050 C.2   299  LEU299      0.2260
    127  O        -26.3350   26.3270  -64.3070 O.2   299  LEU299     -0.2867
    128  CB       -26.2160   25.6940  -67.2250 C.3   299  LEU299      0.0270
    129  CG       -26.8870   25.0120  -68.4250 C.3   299  LEU299      0.0019
    130  CD1      -26.3620   23.5940  -68.5760 C.3   299  LEU299      0.0001
    131  CD2      -28.3980   25.0030  -68.3140 C.3   299  LEU299      0.0001
    132  N        -28.4260   24.2470  -62.2480 N.3   301  ALA301     -0.1245
    133  CA       -28.5260   22.8110  -61.9870 C.3   301  ALA301      0.1562
    134  C        -28.8820   22.5410  -60.5310 C.2   301  ALA301      0.2260
    135  O        -28.4040   23.2380  -59.6310 O.2   301  ALA301     -0.2867
    136  CB       -27.2230   22.1090  -62.3340 C.3   301  ALA301      0.0290
    137  N        -28.8540   19.4200  -57.6240 N.3   303  TYR303     -0.1241
    138  CA       -28.1570   18.1760  -57.3570 C.3   303  TYR303      0.1605
    139  C        -28.8410   17.4210  -56.2460 C.2   303  TYR303      0.2264
    140  O        -28.9460   17.9350  -55.1340 O.2   303  TYR303     -0.2867
    141  CB       -26.7050   18.4630  -56.9670 C.3   303  TYR303      0.0534
    142  CG       -25.8370   18.8200  -58.1480 C.ar  303  TYR303     -0.0201
    143  CD1      -25.0420   17.8570  -58.7540 C.ar  303  TYR303     -0.0009
    144  CD2      -25.8190   20.1190  -58.6670 C.ar  303  TYR303     -0.0009
    145  CE1      -24.2420   18.1650  -59.8510 C.ar  303  TYR303      0.0417
    146  CE2      -25.0170   20.4400  -59.7660 C.ar  303  TYR303      0.0417
    147  CZ       -24.2370   19.4540  -60.3490 C.ar  303  TYR303      0.1957
    148  OH       -23.4390   19.7430  -61.4360 O.3   303  TYR303     -0.2866
    149  N        -31.8130   21.6890  -65.2560 N.3   332  VAL332     -0.1245
    150  CA       -31.4790   20.2660  -65.2300 C.3   332  VAL332      0.1561
    151  C        -31.4250   19.7950  -63.7720 C.2   332  VAL332      0.2260
    152  O        -31.1010   20.5830  -62.8740 O.2   332  VAL332     -0.2867
    153  CB       -30.1450   19.9880  -65.9900 C.3   332  VAL332      0.0252
    154  CG1      -28.9490   20.7190  -65.3200 C.3   332  VAL332      0.0019
    155  CG2      -29.8810   18.4810  -66.1510 C.3   332  VAL332      0.0019
    156  N        -29.7020   16.7910  -61.4460 N.3   334  ASN334     -0.1240
    157  CA       -28.6270   15.8030  -61.4550 C.3   334  ASN334      0.1653
    158  C        -28.6930   14.8570  -60.2720 C.2   334  ASN334      0.2266
    159  O        -28.9940   15.2740  -59.1440 O.2   334  ASN334     -0.2867
    160  CB       -27.2620   16.5030  -61.4630 C.3   334  ASN334      0.1155
    161  CG       -26.9950   17.2510  -62.7520 C.2   334  ASN334      0.2627
    162  OD1      -27.3860   16.8110  -63.8360 O.2   334  ASN334     -0.2716
    163  ND2      -26.3280   18.3940  -62.6410 N.am  334  ASN334     -0.0877
    164  N        -24.7360   10.2530  -68.0010 N.3   353  GLY353     -0.1210
    165  CA       -23.7600   11.2450  -68.4610 C.3   353  GLY353      0.1956
    166  C        -22.3700   10.6520  -68.6410 C.2   353  GLY353      0.2612
    167  O        -22.1360    9.4930  -68.3110 O.2   353  GLY353     -0.2717
    168  N        -21.4450   11.4570  -69.1570 N.am  354  ASP354     -0.1959
    169  CA       -20.0550   11.0350  -69.3340 C.3   354  ASP354      0.1840
    170  C        -19.3010   11.0580  -68.0000 C.2   354  ASP354      0.2623
    171  O        -19.6580   11.8090  -67.0940 O.2   354  ASP354     -0.2715
    172  CB       -19.3360   11.9490  -70.3290 C.3   354  ASP354      0.1450
    173  CG       -19.8910   11.8490  -71.7400 C.2   354  ASP354      0.3671
    174  OD1      -20.2910   10.7480  -72.1700 O.co2 354  ASP354     -0.2456
    175  OD2      -19.8990   12.8890  -72.4310 O.co2 354  ASP354     -0.2456
    176  N        -18.2680   10.2260  -67.8900 N.am  355  GLY355     -0.1940
    177  CA       -17.3770   10.2520  -66.7300 C.3   355  GLY355      0.2014
    178  C        -17.8200    9.3930  -65.5610 C.2   355  GLY355      0.2638
    179  O        -18.9530    8.9140  -65.5200 O.2   355  GLY355     -0.2714
    180  N        -16.9080    9.1900  -64.6140 N.am  356  ASN356     -0.1972
    181  CA       -17.1870    8.4260  -63.3990 C.3   356  ASN356      0.1688
    182  C        -16.9020    9.3190  -62.1990 C.2   356  ASN356      0.2292
    183  O        -16.1560   10.2870  -62.3140 O.2   356  ASN356     -0.2864
    184  CB       -16.2890    7.1890  -63.3210 C.3   356  ASN356      0.1181
    185  CG       -16.5390    6.2050  -64.4460 C.2   356  ASN356      0.2629
    186  OD1      -17.6630    5.7530  -64.6530 O.2   356  ASN356     -0.2716
    187  ND2      -15.4820    5.8560  -65.1720 N.am  356  ASN356     -0.0877
@<TRIPOS>BOND
     1    40    38   ar
     2    38    39   ar
     3    38    37    1
     4    36    35    2
     5   107   108    1
     6    37    34    1
     7   109   110    2
     8   109   108    1
     9    34    35    1
    10    34    33    1
    11   108   111    1
    12    28    27    2
    13   175   173   ar
    14   174   173   ar
    15    33    27   am
    16    27    26    1
    17    51    50   ar
    18    51    49   ar
    19   173   172    1
    20   111   112    1
    21    50    48   ar
    22    49    47   ar
    23    24    22   ar
    24   112   114   ar
    25   112   113   ar
    26   114   116   ar
    27    29    26    1
    28    29    30    1
    29    26    25    1
    30   172   169    1
    31    48    46   ar
    32    23    22   ar
    33    22    21    1
    34    47    46   ar
    35    41    42    1
    36   113   115   ar
    37    46    45    1
    38   116   117   ar
    39    25    19   am
    40   169   168    1
    41   169   170    1
    42    20    19    2
    43    30    32   ar
    44    30    31   ar
    45   168   166   am
    46    19    18    1
    47    15    14   ar
    48    21    18    1
    49    42    45    1
    50    42    43    1
    51   166   165    1
    52   166   167    2
    53   130   129    1
    54   115   117   ar
    55   165   164    1
    56   129   131    1
    57   129   128    1
    58    18    17    1
    59   170   176   am
    60   170   171    2
    61   176   177    1
    62    14    16   ar
    63    14    13    1
    64    62    60    1
    65   104   106   ar
    66   104   102   ar
    67    17    10   am
    68    43    44    2
    69    43    52   am
    70    12    13    1
    71    12     9    1
    72   128   125    1
    73   106   105   ar
    74   100    99    2
    75   101   102    1
    76   101    98    1
    77   102   103   ar
    78   177   178    1
    79    52    53    1
    80    10     9    1
    81    10    11    2
    82   125   124    1
    83   125   126    1
    84    60    61    1
    85    60    59    2
    86    99    98    1
    87     9     8    1
    88   155   153    1
    89   121   120    2
    90   153   154    1
    91   153   150    1
    92   105   103   ar
    93    98    97    1
    94    59    58    1
    95   178   179    2
    96   178   180   am
    97    56    53    1
    98    56    57    1
    99    53    54    1
   100   120   119    1
   101   149   150    1
   102    88    87    2
   103   150   151    1
   104   187   185   am
   105   126   127    2
   106   122   119    1
   107   122   123    1
   108     8     3   am
   109   186   185    2
   110   180   181    1
   111   185   184    1
   112    58    57    1
   113    55    54    2
   114   119   118    1
   115    54    63   am
   116    87    86    1
   117   162   161    2
   118   151   152    2
   119     3     4    2
   120     3     2    1
   121    89    86    1
   122    89    90    1
   123   181   184    1
   124   181   182    1
   125    77    76    2
   126    92    90   ar
   127    92    94   ar
   128    83    82    1
   129    86    85    1
   130    63    64    1
   131    90    91   ar
   132   161   163   am
   133   161   160    1
   134    94    95   ar
   135     6     5    1
   136     2     5    1
   137     2     1    1
   138   136   133    1
   139   183   182    2
   140    76    78   am
   141    76    75    1
   142   132   133    1
   143    79    82    1
   144    79    78    1
   145    79    80    1
   146    82    84    1
   147   133   134    1
   148    64    65    1
   149    64    67    1
   150    91    93   ar
   151     5     7    1
   152    66    65    2
   153    75    74    1
   154    95    93   ar
   155    95    96    1
   156   160   157    1
   157   157   156    1
   158   157   158    1
   159   148   147    1
   160    80    81    2
   161    72    70   ar
   162    72    73   ar
   163    70    68   ar
   164    73    71   ar
   165    68    67    1
   166    68    69   ar
   167   134   135    2
   168    71    69   ar
   169   147   145   ar
   170   147   146   ar
   171   158   159    2
   172   145   143   ar
   173   146   144   ar
   174   143   142   ar
   175   144   142   ar
   176   142   141    1
   177   137   138    1
   178   138   141    1
   179   138   139    1
   180   139   140    2
