@<TRIPOS>MOLECULE
tmp/3iu7A01.pdb
 84 81 0 0 0
SMALL
GASTEIGER

@<TRIPOS>ATOM
      1  N        -26.5730  -39.8190    2.3360 N.3    60  LEU60      -0.1245
      2  CA       -25.6250  -38.7770    1.9740 C.3    60  LEU60       0.1561
      3  C        -24.2260  -39.1320    2.3690 C.2    60  LEU60       0.2260
      4  O        -23.2330  -38.9130    1.6370 O.2    60  LEU60      -0.2867
      5  CB       -26.0230  -37.4420    2.6350 C.3    60  LEU60       0.0270
      6  CG       -25.0350  -36.2820    2.4460 C.3    60  LEU60       0.0019
      7  CD1      -24.8930  -35.9260    0.9490 C.3    60  LEU60       0.0001
      8  CD2      -25.5190  -35.0280    3.2470 C.3    60  LEU60       0.0001
      9  N        -31.1510  -33.3830    2.9980 N.3   142  THR142     -0.1203
     10  CA       -29.7760  -32.9550    3.4110 C.3   142  THR142      0.1994
     11  C        -28.8530  -32.9980    2.2440 C.2   142  THR142      0.2618
     12  O        -28.9810  -33.8260    1.3110 O.2   142  THR142     -0.2717
     13  CB       -29.3260  -33.8360    4.5890 C.3   142  THR142      0.1784
     14  OG1      -28.0780  -33.3970    5.0890 O.3   142  THR142     -0.2211
     15  CG2      -29.2160  -35.3130    4.2560 C.3   142  THR142      0.0376
     16  N        -27.8460  -32.1270    2.2580 N.am  143  ASN143     -0.1960
     17  CA       -26.8430  -32.1140    1.1900 C.3   143  ASN143      0.1819
     18  C        -25.5400  -31.6140    1.7140 C.2   143  ASN143      0.2621
     19  O        -25.4730  -30.9400    2.7670 O.2   143  ASN143     -0.2715
     20  CB       -27.3670  -31.3520   -0.0480 C.3   143  ASN143      0.1195
     21  CG       -27.2380  -29.8470   -0.0620 C.2   143  ASN143      0.2630
     22  OD1      -26.1930  -29.2400    0.2320 O.2   143  ASN143     -0.2716
     23  ND2      -28.3580  -29.1750   -0.4870 N.am  143  ASN143     -0.0877
     24  N        -24.4170  -31.9180    1.0410 N.am  144  ALA144     -0.1977
     25  CA       -23.1040  -31.4690    1.4250 C.3   144  ALA144      0.1597
     26  C        -22.2090  -31.4620    0.1930 C.2   144  ALA144      0.2287
     27  O        -22.4490  -32.1850   -0.7690 O.2   144  ALA144     -0.2864
     28  CB       -22.4750  -32.3360    2.5080 C.3   144  ALA144      0.0319
     29  N        -19.9150  -24.2940    4.4740 N.3   163  ARG163     -0.1245
     30  CA       -20.2600  -25.1000    5.5540 C.3   163  ARG163      0.1563
     31  C        -20.4260  -24.3360    6.8860 C.2   163  ARG163      0.2260
     32  O        -21.3940  -24.5090    7.6560 O.2   163  ARG163     -0.2867
     33  CB       -19.1400  -26.2130    5.7440 C.3   163  ARG163      0.0307
     34  CG       -19.5260  -27.2260    6.8790 C.3   163  ARG163      0.0489
     35  CD       -18.3170  -28.2340    7.2370 C.3   163  ARG163      0.2205
     36  NE       -17.8660  -28.9980    6.0650 N.pl3 163  ARG163     -0.0865
     37  CZ       -16.7820  -28.7720    5.3460 C.cat 163  ARG163      0.5346
     38  NH1      -15.9120  -27.7480    5.5690 N.pl3 163  ARG163      0.1354
     39  NH2      -16.5210  -29.5850    4.2840 N.pl3 163  ARG163      0.1354
     40  N        -23.5490  -22.1800    6.9270 N.3   166  THR166     -0.1203
     41  CA       -24.7240  -23.0050    7.2190 C.3   166  THR166      0.1994
     42  C        -24.8060  -23.3200    8.6950 C.2   166  THR166      0.2617
     43  O        -25.8980  -23.2130    9.3390 O.2   166  THR166     -0.2717
     44  CB       -24.6420  -24.2910    6.3860 C.3   166  THR166      0.1784
     45  OG1      -24.5270  -23.9540    5.0220 O.3   166  THR166     -0.2211
     46  CG2      -25.8860  -25.1610    6.5990 C.3   166  THR166      0.0376
     47  N        -23.6870  -23.7030    9.3320 N.am  167  MET167     -0.1979
     48  CA       -23.7350  -24.0120   10.7360 C.3   167  MET167      0.1605
     49  C        -24.0150  -22.7930   11.6080 C.2   167  MET167      0.2287
     50  O        -24.7380  -22.9360   12.5820 O.2   167  MET167     -0.2864
     51  CB       -22.4210  -24.7110   11.1890 C.3   167  MET167      0.0413
     52  CG       -22.1990  -26.1070   10.4550 C.3   167  MET167      0.0598
     53  SD       -23.6190  -27.2010   10.7050 S.3   167  MET167     -0.1393
     54  CE       -24.1770  -26.7800   12.4930 C.3   167  MET167      0.0692
     55  N        -24.5170  -26.4710    1.3770 N.3   267  PHE267     -0.1227
     56  CA       -24.7500  -27.4970    2.3930 C.3   267  PHE267      0.1736
     57  C        -26.1900  -27.3900    2.8150 C.2   267  PHE267      0.2595
     58  O        -26.7830  -26.2920    2.6660 O.2   267  PHE267     -0.2718
     59  CB       -23.8440  -27.2940    3.6370 C.3   267  PHE267      0.0547
     60  CG       -22.3970  -27.7070    3.3650 C.ar  267  PHE267     -0.0202
     61  CD1      -21.5370  -26.8170    2.6750 C.ar  267  PHE267     -0.0042
     62  CD2      -21.9220  -28.9300    3.8560 C.ar  267  PHE267     -0.0042
     63  CE1      -20.2080  -27.2270    2.3910 C.ar  267  PHE267     -0.0003
     64  CE2      -20.5680  -29.3450    3.5300 C.ar  267  PHE267     -0.0003
     65  CZ       -19.7390  -28.5080    2.8180 C.ar  267  PHE267     -0.0000
     66  N        -26.7600  -28.4400    3.3830 N.am  268  GLU268     -0.1965
     67  CA       -28.1780  -28.4230    3.7780 C.3   268  GLU268      0.1733
     68  C        -28.4310  -29.3770    4.9150 C.2   268  GLU268      0.2616
     69  O        -28.0260  -30.5740    4.8970 O.2   268  GLU268     -0.2715
     70  CB       -29.0540  -28.8680    2.5720 C.3   268  GLU268      0.0429
     71  CG       -30.5550  -29.1190    2.9170 C.3   268  GLU268      0.1163
     72  CD       -31.3730  -29.4060    1.7440 C.2   268  GLU268      0.3649
     73  OE1      -32.5810  -29.0880    1.7770 O.co2 268  GLU268     -0.2457
     74  OE2      -30.8670  -30.0740    0.7900 O.co2 268  GLU268     -0.2457
     75  N        -29.2230  -28.9250    5.8970 N.am  269  HIS269     -0.1973
     76  CA       -29.8430  -29.7780    6.9080 C.3   269  HIS269      0.1656
     77  C        -31.3280  -29.4940    6.9810 C.2   269  HIS269      0.2291
     78  O        -31.7680  -28.3940    6.6120 O.2   269  HIS269     -0.2864
     79  CB       -29.2580  -29.5860    8.3120 C.3   269  HIS269      0.0771
     80  CG       -27.9510  -30.3070    8.5330 C.ar  269  HIS269      0.0820
     81  ND1      -27.9180  -31.6810    8.4140 N.ar  269  HIS269     -0.2267
     82  CD2      -26.7280  -29.8810    9.0160 C.ar  269  HIS269      0.1154
     83  CE1      -26.7100  -32.0740    8.7850 C.ar  269  HIS269      0.1986
     84  NE2      -25.9830  -31.0250    9.1580 N.ar  269  HIS269     -0.2212
@<TRIPOS>BOND
     1    27    26    2
     2    23    21   am
     3    21    20    1
     4    21    22    2
     5    20    17    1
     6    26    25    1
     7    74    72   ar
     8     7     6    1
     9    24    25    1
    10    24    18   am
    11    17    18    1
    12    17    16    1
    13    12    11    2
    14    55    56    1
    15    25    28    1
    16     4     3    2
    17    18    19    2
    18    72    73   ar
    19    72    71    1
    20     2     1    1
    21     2     3    1
    22     2     5    1
    23    11    16   am
    24    11    10    1
    25    63    61   ar
    26    63    65   ar
    27    56    57    1
    28    56    59    1
    29     6     5    1
    30     6     8    1
    31    70    71    1
    32    70    67    1
    33    58    57    2
    34    61    60   ar
    35    57    66   am
    36    65    64   ar
    37     9    10    1
    38    60    59    1
    39    60    62   ar
    40    66    67    1
    41    10    13    1
    42    64    62   ar
    43    67    68    1
    44    15    13    1
    45    39    37    1
    46    29    30    1
    47    13    14    1
    48    69    68    2
    49    68    75   am
    50    45    44    1
    51    37    38    1
    52    37    36    2
    53    30    33    1
    54    30    31    1
    55    33    34    1
    56    75    76    1
    57    36    35    1
    58    44    46    1
    59    44    41    1
    60    78    77    2
    61    34    35    1
    62    31    32    2
    63    76    77    1
    64    76    79    1
    65    40    41    1
    66    41    42    1
    67    79    80    1
    68    81    80   ar
    69    81    83   ar
    70    80    82   ar
    71    42    47   am
    72    42    43    2
    73    83    84   ar
    74    82    84   ar
    75    47    48    1
    76    52    53    1
    77    52    51    1
    78    53    54    1
    79    48    51    1
    80    48    49    1
    81    49    50    2
