@<TRIPOS>MOLECULE
tmp/3iu7A00.pdb
 148 142 0 0 0
SMALL
GASTEIGER

@<TRIPOS>ATOM
      1  N        -36.6030  -37.2670   -4.6700 N.3    93  THR93      -0.1218
      2  CA       -36.4340  -36.5970   -6.0060 C.3    93  THR93       0.1862
      3  C        -36.8670  -37.4930   -7.1750 C.2    93  THR93       0.2287
      4  O        -37.0630  -36.9250   -8.2700 O.2    93  THR93      -0.2866
      5  CB       -34.9870  -36.1620   -6.2650 C.3    93  THR93       0.1770
      6  OG1      -34.1060  -37.2940   -6.2570 O.3    93  THR93      -0.2211
      7  CG2      -34.4870  -35.2050   -5.1570 C.3    93  THR93       0.0375
      8  N        -39.9760  -36.6000   -8.9550 N.3    96  TYR96      -0.1227
      9  CA       -40.5280  -35.3060   -8.4790 C.3    96  TYR96       0.1736
     10  C        -40.4570  -34.3220   -9.6080 C.2    96  TYR96       0.2595
     11  O        -39.4030  -33.9330  -10.0900 O.2    96  TYR96      -0.2718
     12  CB       -39.6640  -34.8660   -7.3280 C.3    96  TYR96       0.0548
     13  CG       -40.0760  -33.5020   -6.7350 C.ar   96  TYR96      -0.0200
     14  CD1      -41.3280  -33.3590   -6.1000 C.ar   96  TYR96      -0.0009
     15  CD2      -39.2470  -32.4250   -6.8430 C.ar   96  TYR96      -0.0009
     16  CE1      -41.7160  -32.1510   -5.5510 C.ar   96  TYR96       0.0417
     17  CE2      -39.6070  -31.1940   -6.2870 C.ar   96  TYR96       0.0417
     18  CZ       -40.8480  -31.0920   -5.6700 C.ar   96  TYR96       0.1957
     19  OH       -41.1720  -29.8060   -5.2140 O.3    96  TYR96      -0.2866
     20  N        -41.6400  -33.9170  -10.0960 N.am   97  LYS97      -0.1980
     21  CA       -41.7500  -33.0430  -11.2640 C.3    97  LYS97       0.1596
     22  C        -40.9640  -33.6610  -12.4270 C.2    97  LYS97       0.2287
     23  O        -40.3810  -32.8860  -13.1850 O.2    97  LYS97      -0.2864
     24  CB       -41.3340  -31.6090  -10.9020 C.3    97  LYS97       0.0298
     25  CG       -42.1070  -31.0650   -9.7790 C.3    97  LYS97       0.0038
     26  CD       -41.7480  -29.5840   -9.5760 C.3    97  LYS97       0.0206
     27  CE       -42.4040  -29.0170   -8.4370 C.3    97  LYS97       0.1093
     28  NZ       -42.2720  -27.4330   -8.5280 N.3    97  LYS97      -0.1314
     29  N        -38.1140  -35.3180  -12.2890 N.3    99  PHE99      -0.1241
     30  CA       -36.6470  -35.4310  -12.1190 C.3    99  PHE99       0.1605
     31  C        -36.3110  -36.9230  -12.1750 C.2    99  PHE99       0.2264
     32  O        -37.0050  -37.7690  -11.6530 O.2    99  PHE99      -0.2867
     33  CB       -36.2790  -34.8220  -10.7730 C.3    99  PHE99       0.0534
     34  CG       -34.7880  -34.7910  -10.5820 C.ar   99  PHE99      -0.0203
     35  CD1      -34.0640  -33.7580  -11.2190 C.ar   99  PHE99      -0.0042
     36  CD2      -34.0820  -35.7970   -9.9410 C.ar   99  PHE99      -0.0042
     37  CE1      -32.6840  -33.7200  -11.1080 C.ar   99  PHE99      -0.0003
     38  CE2      -32.6610  -35.7580   -9.8360 C.ar   99  PHE99      -0.0003
     39  CZ       -31.9870  -34.7240  -10.4580 C.ar   99  PHE99      -0.0000
     40  N        -29.4430  -35.3190   -6.3480 N.3   104  CYS104     -0.1235
     41  CA       -28.8060  -34.3950   -7.2800 C.3   104  CYS104      0.1677
     42  C        -27.3420  -34.2950   -6.9990 C.2   104  CYS104      0.2270
     43  O        -26.9080  -34.2690   -5.8470 O.2   104  CYS104     -0.2867
     44  CB       -29.3610  -32.9240   -7.1740 C.3   104  CYS104      0.0956
     45  SG       -31.1400  -32.7770   -7.3620 S.3   104  CYS104     -0.0801
     46  N        -29.2290  -28.9570   -8.8250 N.3   113  HIS113     -0.1241
     47  CA       -30.0830  -29.8110   -9.6620 C.3   113  HIS113      0.1621
     48  C        -29.3220  -30.5550  -10.7760 C.2   113  HIS113      0.2264
     49  O        -29.9410  -31.0230  -11.7320 O.2   113  HIS113     -0.2867
     50  CB       -31.2330  -29.0100  -10.2750 C.3   113  HIS113      0.0745
     51  CG       -32.1280  -28.4190   -9.2380 C.ar  113  HIS113      0.0817
     52  ND1      -33.1310  -27.5270   -9.6240 N.ar  113  HIS113     -0.2268
     53  CD2      -32.1520  -28.4450   -7.8700 C.ar  113  HIS113      0.1154
     54  CE1      -33.7580  -27.1110   -8.5190 C.ar  113  HIS113      0.1986
     55  NE2      -33.2060  -27.6180   -7.4470 N.ar  113  HIS113     -0.2212
     56  N        -27.0590  -34.1610   -2.9660 N.3   130  ASP130     -0.1239
     57  CA       -28.2950  -33.7230   -2.2870 C.3   130  ASP130      0.1674
     58  C        -29.2670  -34.8660   -2.2980 C.2   130  ASP130      0.2266
     59  O        -29.6590  -35.2760   -3.3900 O.2   130  ASP130     -0.2867
     60  CB       -28.8120  -32.4510   -2.9380 C.3   130  ASP130      0.1410
     61  CG       -29.9680  -31.8570   -2.1520 C.2   130  ASP130      0.3668
     62  OD1      -30.4960  -32.5690   -1.2160 O.co2 130  ASP130     -0.2456
     63  OD2      -30.4180  -30.7420   -2.3770 O.co2 130  ASP130     -0.2456
     64  N        -32.8440  -36.7240   -0.5440 N.3   132  THR132     -0.1218
     65  CA       -34.0540  -36.5820    0.2700 C.3   132  THR132      0.1862
     66  C        -34.7160  -37.9440    0.3660 C.2   132  THR132      0.2287
     67  O        -34.8580  -38.7090   -0.5990 O.2   132  THR132     -0.2866
     68  CB       -35.0090  -35.5540   -0.3870 C.3   132  THR132      0.1770
     69  OG1      -34.2170  -34.3580   -0.5840 O.3   132  THR132     -0.2211
     70  CG2      -36.2320  -35.2320    0.4590 C.3   132  THR132      0.0375
     71  N        -34.3320  -34.0430    4.3100 N.3   141  ASP141     -0.1239
     72  CA       -33.6000  -33.4280    3.1970 C.3   141  ASP141      0.1674
     73  C        -32.2420  -32.9510    3.6220 C.2   141  ASP141      0.2266
     74  O        -32.1160  -32.1520    4.5720 O.2   141  ASP141     -0.2867
     75  CB       -34.5320  -32.2860    2.7260 C.3   141  ASP141      0.1410
     76  CG       -34.1410  -31.6420    1.4510 C.2   141  ASP141      0.3668
     77  OD1      -34.7930  -30.6460    1.0360 O.co2 141  ASP141     -0.2456
     78  OD2      -33.1130  -32.0540    0.7890 O.co2 141  ASP141     -0.2456
     79  N        -33.9470  -21.1960   -2.3970 N.3   202  THR202     -0.1218
     80  CA       -34.1250  -20.9060   -0.9680 C.3   202  THR202      0.1862
     81  C        -34.2600  -22.2000   -0.1760 C.2   202  THR202      0.2287
     82  O        -34.5000  -23.2710   -0.7340 O.2   202  THR202     -0.2866
     83  CB       -35.3940  -20.0940   -0.7480 C.3   202  THR202      0.1770
     84  OG1      -36.5690  -20.8840   -0.9800 O.3   202  THR202     -0.2211
     85  CG2      -35.4860  -18.8590   -1.6820 C.3   202  THR202      0.0375
     86  N        -36.7060  -24.1540    2.7920 N.3   204  HIS204     -0.1241
     87  CA       -38.1720  -24.3610    2.7400 C.3   204  HIS204      0.1621
     88  C        -38.6510  -25.1400    3.9500 C.2   204  HIS204      0.2264
     89  O        -37.9260  -25.9820    4.5120 O.2   204  HIS204     -0.2867
     90  CB       -38.5780  -25.0920    1.4280 C.3   204  HIS204      0.0745
     91  CG       -37.7810  -26.3730    1.2570 C.ar  204  HIS204      0.0817
     92  ND1      -38.2210  -27.6150    1.6780 N.ar  204  HIS204     -0.2268
     93  CD2      -36.5080  -26.5590    0.7880 C.ar  204  HIS204      0.1154
     94  CE1      -37.2440  -28.5080    1.4480 C.ar  204  HIS204      0.1986
     95  NE2      -36.1790  -27.9030    0.9100 N.ar  204  HIS204     -0.2212
     96  N        -42.6330  -32.0310    0.5240 N.3   210  PHE210     -0.1227
     97  CA       -41.2120  -31.7270    0.2620 C.3   210  PHE210      0.1736
     98  C        -40.9580  -30.2500    0.4410 C.2   210  PHE210      0.2595
     99  O        -40.0800  -29.8200    1.1820 O.2   210  PHE210     -0.2718
    100  CB       -40.8560  -32.3150   -1.1300 C.3   210  PHE210      0.0547
    101  CG       -39.4200  -32.3980   -1.5220 C.ar  210  PHE210     -0.0202
    102  CD1      -38.3510  -31.8450   -0.8100 C.ar  210  PHE210     -0.0042
    103  CD2      -39.1590  -32.9900   -2.7550 C.ar  210  PHE210     -0.0042
    104  CE1      -37.0250  -31.9500   -1.2370 C.ar  210  PHE210     -0.0003
    105  CE2      -37.8300  -33.1130   -3.2450 C.ar  210  PHE210     -0.0003
    106  CZ       -36.7810  -32.5640   -2.5080 C.ar  210  PHE210     -0.0000
    107  N        -41.7250  -29.4380   -0.3150 N.am  211  HIS211     -0.1975
    108  CA       -41.6030  -27.9580   -0.2710 C.3   211  HIS211      0.1656
    109  C        -42.9470  -27.3720    0.1620 C.2   211  HIS211      0.2291
    110  O        -43.8590  -27.2840   -0.6710 O.2   211  HIS211     -0.2864
    111  CB       -41.1520  -27.4580   -1.6490 C.3   211  HIS211      0.0771
    112  CG       -39.8230  -28.0160   -2.0960 C.ar  211  HIS211      0.0820
    113  ND1      -39.7200  -29.0670   -3.0140 N.ar  211  HIS211     -0.2267
    114  CD2      -38.5570  -27.7210   -1.7330 C.ar  211  HIS211      0.1154
    115  CE1      -38.4230  -29.3740   -3.1680 C.ar  211  HIS211      0.1986
    116  NE2      -37.7150  -28.5810   -2.4160 N.ar  211  HIS211     -0.2212
    117  N        -30.1230  -24.1050    3.6360 N.3   237  GLU237     -0.1245
    118  CA       -29.4180  -24.7440    2.4600 C.3   237  GLU237      0.1567
    119  C        -28.8240  -23.6920    1.5020 C.2   237  GLU237      0.2260
    120  O        -28.9970  -23.7480    0.3080 O.2   237  GLU237     -0.2867
    121  CB       -30.3490  -25.7590    1.7880 C.3   237  GLU237      0.0388
    122  CG       -31.6740  -25.1510    1.2560 C.3   237  GLU237      0.1160
    123  CD       -32.4320  -26.2310    0.5380 C.2   237  GLU237      0.3649
    124  OE1      -31.7990  -26.7860   -0.4560 O.co2 237  GLU237     -0.2457
    125  OE2      -33.5690  -26.6050    0.8260 O.co2 237  GLU237     -0.2457
    126  N        -32.9510  -29.0620  -16.3190 N.3   254  TRP254     -0.1241
    127  CA       -32.6840  -29.1500  -14.8670 C.3   254  TRP254      0.1605
    128  C        -31.4310  -28.5180  -14.3870 C.2   254  TRP254      0.2264
    129  O        -31.4140  -27.8240  -13.3710 O.2   254  TRP254     -0.2867
    130  CB       -32.4890  -30.6500  -14.4880 C.3   254  TRP254      0.0550
    131  CG       -33.8060  -31.3550  -14.6430 C.ar  254  TRP254      0.0003
    132  CD1      -34.2180  -32.3760  -15.5680 C.ar  254  TRP254      0.0946
    133  CD2      -34.9120  -31.1950  -13.7900 C.ar  254  TRP254      0.0152
    134  NE1      -35.5260  -32.8080  -15.2980 N.ar  254  TRP254     -0.2442
    135  CE2      -35.9550  -32.0920  -14.2010 C.ar  254  TRP254      0.0810
    136  CE3      -35.1420  -30.3510  -12.7020 C.ar  254  TRP254      0.0012
    137  CZ2      -37.2200  -32.0940  -13.5730 C.ar  254  TRP254      0.0191
    138  CZ3      -36.3850  -30.4250  -12.0930 C.ar  254  TRP254      0.0001
    139  CH2      -37.3320  -31.3150  -12.4500 C.ar  254  TRP254      0.0015
    140  N        -26.7600  -28.4400    3.3830 N.3   268  GLU268     -0.1245
    141  CA       -28.1780  -28.4230    3.7780 C.3   268  GLU268      0.1567
    142  C        -28.4310  -29.3770    4.9150 C.2   268  GLU268      0.2260
    143  O        -28.0260  -30.5740    4.8970 O.2   268  GLU268     -0.2867
    144  CB       -29.0540  -28.8680    2.5720 C.3   268  GLU268      0.0388
    145  CG       -30.5550  -29.1190    2.9170 C.3   268  GLU268      0.1160
    146  CD       -31.3730  -29.4060    1.7440 C.2   268  GLU268      0.3649
    147  OE1      -32.5810  -29.0880    1.7770 O.co2 268  GLU268     -0.2457
    148  OE2      -30.8670  -30.0740    0.7900 O.co2 268  GLU268     -0.2457
@<TRIPOS>BOND
     1   126   127    1
     2   132   134   ar
     3   132   131   ar
     4   134   135   ar
     5   127   130    1
     6   127   128    1
     7   131   130    1
     8   131   133   ar
     9   128   129    2
    10   135   133   ar
    11   135   137   ar
    12   133   136   ar
    13   137   139   ar
    14    23    22    2
    15   136   138   ar
    16   139   138   ar
    17    22    21    1
    18    29    30    1
    19    31    30    1
    20    31    32    2
    21    30    33    1
    22    49    48    2
    23    21    24    1
    24    21    20    1
    25    35    37   ar
    26    35    34   ar
    27    37    39   ar
    28    24    25    1
    29    48    47    1
    30    33    34    1
    31    34    36   ar
    32    39    38   ar
    33    50    47    1
    34    50    51    1
    35    20    10   am
    36    11    10    2
    37    36    38   ar
    38    25    26    1
    39    47    46    1
    40    52    51   ar
    41    52    54   ar
    42    10     9    1
    43    26    27    1
    44    51    53   ar
    45     8     9    1
    46    28    27    1
    47    54    55   ar
    48     9    12    1
    49     4     3    2
    50    53    55   ar
    51    45    44    1
    52    12    13    1
    53    41    44    1
    54    41    42    1
    55    41    40    1
    56     3     2    1
    57    42    43    2
    58    15    13   ar
    59    15    17   ar
    60    13    14   ar
    61    17    18   ar
    62     5     6    1
    63     5     2    1
    64     5     7    1
    65    14    16   ar
    66     2     1    1
    67    18    16   ar
    68    18    19    1
    69    59    58    2
    70   105   103   ar
    71   105   106   ar
    72   115   113   ar
    73   115   116   ar
    74   113   112   ar
    75    56    57    1
    76    60    57    1
    77    60    61    1
    78   103   101   ar
    79   106   104   ar
    80   116   114   ar
    81    79    80    1
    82    63    61   ar
    83    58    57    1
    84    61    62   ar
    85   112   114   ar
    86   112   111    1
    87    85    83    1
    88   111   108    1
    89   101   100    1
    90   101   102   ar
    91   104   102   ar
    92   100    97    1
    93    84    83    1
    94    80    83    1
    95    80    81    1
    96    82    81    2
    97   110   109    2
    98    67    66    2
    99    69    68    1
   100    64    65    1
   101   124   123   ar
   102    68    65    1
   103    68    70    1
   104   107   108    1
   105   107    98   am
   106   108   109    1
   107    97    98    1
   108    97    96    1
   109    65    66    1
   110   120   119    2
   111    98    99    2
   112   123   125   ar
   113   123   122    1
   114    93    95   ar
   115    93    91   ar
   116    78    76   ar
   117   148   146   ar
   118    95    94   ar
   119    77    76   ar
   120   122   121    1
   121    91    90    1
   122    91    92   ar
   123    90    87    1
   124    94    92   ar
   125    76    75    1
   126   119   118    1
   127   146   147   ar
   128   146   145    1
   129   121   118    1
   130   118   117    1
   131   144   145    1
   132   144   141    1
   133    75    72    1
   134    87    86    1
   135    87    88    1
   136    72    73    1
   137    72    71    1
   138   140   141    1
   139    73    74    2
   140   141   142    1
   141    88    89    2
   142   143   142    2
