@<TRIPOS>MOLECULE
tmp/3iu8A00.pdb
 171 163 0 0 0
SMALL
GASTEIGER

@<TRIPOS>ATOM
      1  N         13.8700   49.8220    4.7720 N.3    93  THR93      -0.1218
      2  CA        13.4040   49.3150    6.0970 C.3    93  THR93       0.1862
      3  C         13.9020   50.1790    7.2670 C.2    93  THR93       0.2287
      4  O         13.2960   50.1230    8.3350 O.2    93  THR93      -0.2866
      5  CB        13.8330   47.8800    6.3330 C.3    93  THR93       0.1770
      6  OG1       15.2700   47.8400    6.3570 O.3    93  THR93      -0.2211
      7  CG2       13.3240   47.0110    5.2300 C.3    93  THR93       0.0375
      8  N         11.5880   52.4380    9.1600 N.3    96  TYR96      -0.1227
      9  CA        10.1930   52.2520    8.6350 C.3    96  TYR96       0.1736
     10  C          9.3340   51.7240    9.7740 C.2    96  TYR96       0.2595
     11  O          9.5570   50.6090   10.2310 O.2    96  TYR96      -0.2718
     12  CB        10.1580   51.2140    7.5030 C.3    96  TYR96       0.0548
     13  CG         8.7300   50.9020    7.0640 C.ar   96  TYR96      -0.0200
     14  CD1        8.0390   51.7460    6.1660 C.ar   96  TYR96      -0.0009
     15  CD2        8.0770   49.7590    7.5420 C.ar   96  TYR96      -0.0009
     16  CE1        6.7400   51.4170    5.7420 C.ar   96  TYR96       0.0417
     17  CE2        6.7800   49.4420    7.1660 C.ar   96  TYR96       0.0417
     18  CZ         6.1100   50.3000    6.2540 C.ar   96  TYR96       0.1957
     19  OH         4.8380   49.9890    5.8740 O.3    96  TYR96      -0.2866
     20  N          8.4050   52.5540   10.2550 N.am   97  LYS97      -0.1980
     21  CA         7.6700   52.2290   11.4860 C.3    97  LYS97       0.1596
     22  C          8.6180   51.8280   12.6570 C.2    97  LYS97       0.2287
     23  O          8.2630   50.9490   13.4640 O.2    97  LYS97      -0.2864
     24  CB         6.5860   51.1630   11.2200 C.3    97  LYS97       0.0298
     25  CG         5.5880   51.5730   10.1470 C.3    97  LYS97       0.0038
     26  CD         4.5630   50.4540    9.7420 C.3    97  LYS97       0.0206
     27  CE         3.4690   51.0430    8.8710 C.3    97  LYS97       0.1093
     28  NZ         2.4960   49.9700    8.4130 N.3    97  LYS97      -0.1314
     29  N         11.4420   50.2150   12.4280 N.3    99  PHE99      -0.1241
     30  CA        12.3010   49.0320   12.2140 C.3    99  PHE99       0.1605
     31  C         13.7920   49.4740   12.3020 C.2    99  PHE99       0.2264
     32  O         14.1520   50.4850   11.7740 O.2    99  PHE99      -0.2867
     33  CB        11.9850   48.3660   10.8770 C.3    99  PHE99       0.0534
     34  CG        12.6900   47.0830   10.6770 C.ar   99  PHE99      -0.0203
     35  CD1       12.1190   45.8670   11.1200 C.ar   99  PHE99      -0.0042
     36  CD2       13.9210   47.0340   10.0240 C.ar   99  PHE99      -0.0042
     37  CE1       12.8120   44.6370   10.9530 C.ar   99  PHE99      -0.0003
     38  CE2       14.5720   45.7850    9.8420 C.ar   99  PHE99      -0.0003
     39  CZ        14.0280   44.5990   10.2840 C.ar   99  PHE99      -0.0000
     40  N         15.6930   42.7040    6.4100 N.3   104  CYS104     -0.1292
     41  CA        15.1210   41.6650    7.3290 C.3   104  CYS104      0.1363
     42  C         15.8530   40.3860    7.0410 C.3   104  CYS104      0.2019
     43  O         16.1030   39.9840    5.8390 O.3   104  CYS104     -0.2188
     44  CB        13.6100   41.4300    7.0640 C.3   104  CYS104      0.0903
     45  SG        12.7200   42.9570    7.2940 S.3   104  CYS104     -0.0805
     46  N          8.7710   36.1010    8.5370 N.3   112  CYS112     -0.1221
     47  CA         9.2810   37.3750    8.0130 C.3   112  CYS112      0.1808
     48  C          9.6490   38.3240    9.0760 C.2   112  CYS112      0.2601
     49  O          9.3290   38.1100   10.2720 O.2   112  CYS112     -0.2717
     50  CB         8.2300   38.0180    7.0680 C.3   112  CYS112      0.0970
     51  SG         6.6650   38.4390    7.9210 S.3   112  CYS112     -0.0800
     52  N         10.2930   39.4200    8.6440 N.am  113  HIS113     -0.1975
     53  CA        10.6250   40.5530    9.4880 C.3   113  HIS113      0.1656
     54  C         11.5970   40.2630   10.6470 C.2   113  HIS113      0.2291
     55  O         11.6380   40.9990   11.5950 O.2   113  HIS113     -0.2864
     56  CB         9.3740   41.2810   10.0790 C.3   113  HIS113      0.0771
     57  CG         8.4310   41.7650    9.0410 C.ar  113  HIS113      0.0820
     58  ND1        7.1360   42.1600    9.3510 N.ar  113  HIS113     -0.2267
     59  CD2        8.5640   41.8850    7.6900 C.ar  113  HIS113      0.1154
     60  CE1        6.5190   42.5210    8.2330 C.ar  113  HIS113      0.1986
     61  NE2        7.3660   42.3800    7.2260 N.ar  113  HIS113     -0.2212
     62  N         15.7660   40.1150    3.0200 N.3   130  ASP130     -0.1239
     63  CA        14.7710   40.9440    2.2960 C.3   130  ASP130      0.1674
     64  C         15.2930   42.3540    2.3450 C.2   130  ASP130      0.2266
     65  O         15.5310   42.9050    3.4220 O.2   130  ASP130     -0.2867
     66  CB        13.4100   40.8020    2.9960 C.3   130  ASP130      0.1410
     67  CG        12.2510   41.3750    2.1580 C.2   130  ASP130      0.3668
     68  OD1       12.5050   42.4460    1.5730 O.co2 130  ASP130     -0.2456
     69  OD2       11.1540   40.7900    2.1570 O.co2 130  ASP130     -0.2456
     70  N         15.2730   46.4300    0.6100 N.3   132  THR132     -0.1218
     71  CA        14.5490   47.4180   -0.2620 C.3   132  THR132      0.1862
     72  C         15.4010   48.7080   -0.3440 C.2   132  THR132      0.2287
     73  O         16.0010   49.1610    0.6120 O.2   132  THR132     -0.2866
     74  CB        13.0750   47.7030    0.2890 C.3   132  THR132      0.1770
     75  OG1       12.3110   46.4740    0.3190 O.3   132  THR132     -0.2211
     76  CG2       12.3080   48.7820   -0.5740 C.3   132  THR132      0.0375
     77  N         12.2090   46.4200   -4.1480 N.3   141  ASP141     -0.1239
     78  CA        12.0460   45.4940   -3.0170 C.3   141  ASP141      0.1674
     79  C         12.2970   44.0160   -3.4860 C.2   141  ASP141      0.2266
     80  O         11.6730   43.5470   -4.4580 O.2   141  ASP141     -0.2867
     81  CB        10.6010   45.6830   -2.5140 C.3   141  ASP141      0.1410
     82  CG        10.2240   44.7760   -1.3040 C.2   141  ASP141      0.3668
     83  OD1        9.0490   44.7830   -0.9430 O.co2 141  ASP141     -0.2456
     84  OD2       11.0890   44.0590   -0.7420 O.co2 141  ASP141     -0.2456
     85  N          1.1980   39.6680    2.4100 N.3   202  THR202     -0.1218
     86  CA         0.8960   39.6240    0.9530 C.3   202  THR202      0.1862
     87  C          1.9740   40.3580    0.1330 C.2   202  THR202      0.2287
     88  O          2.8650   41.0600    0.7150 O.2   202  THR202     -0.2866
     89  CB        -0.4350   40.3570    0.7070 C.3   202  THR202      0.1770
     90  OG1       -0.2750   41.7280    1.0740 O.3   202  THR202     -0.2211
     91  CG2       -1.5140   39.8110    1.5600 C.3   202  THR202      0.0375
     92  N          2.5670   43.5120   -2.7650 N.3   204  HIS204     -0.1241
     93  CA         2.0720   44.9020   -2.6370 C.3   204  HIS204      0.1621
     94  C          2.4930   45.7160   -3.8740 C.2   204  HIS204      0.2264
     95  O          3.5700   45.5110   -4.4350 O.2   204  HIS204     -0.2867
     96  CB         2.6040   45.6010   -1.3500 C.3   204  HIS204      0.0745
     97  CG         4.0940   45.3950   -1.1540 C.ar  204  HIS204      0.0817
     98  ND1        5.0130   46.3730   -1.4430 N.ar  204  HIS204     -0.2268
     99  CD2        4.8020   44.3200   -0.7010 C.ar  204  HIS204      0.1154
    100  CE1        6.2370   45.9130   -1.1900 C.ar  204  HIS204      0.1986
    101  NE2        6.1410   44.6690   -0.7310 N.ar  204  HIS204     -0.2212
    102  N          6.3180   52.5510   -0.5390 N.3   210  PHE210     -0.1227
    103  CA         6.8060   51.1670   -0.4050 C.3   210  PHE210      0.1736
    104  C          5.6200   50.1900   -0.5650 C.2   210  PHE210      0.2595
    105  O          5.7410   49.1590   -1.2660 O.2   210  PHE210     -0.2718
    106  CB         7.4580   51.1850    0.9900 C.3   210  PHE210      0.0547
    107  CG         8.2960   50.0010    1.3720 C.ar  210  PHE210     -0.0202
    108  CD1        8.2840   48.8040    0.6670 C.ar  210  PHE210     -0.0042
    109  CD2        9.0500   50.0830    2.6300 C.ar  210  PHE210     -0.0042
    110  CE1        9.0560   47.6930    1.1180 C.ar  210  PHE210     -0.0003
    111  CE2        9.8450   48.9720    3.1070 C.ar  210  PHE210     -0.0003
    112  CZ         9.8310   47.7760    2.3380 C.ar  210  PHE210     -0.0000
    113  N          4.4610   50.5390    0.0370 N.am  211  HIS211     -0.1975
    114  CA         3.1990   49.7070   -0.0500 C.3   211  HIS211      0.1656
    115  C          2.1300   50.6720   -0.4950 C.2   211  HIS211      0.2291
    116  O          1.6030   51.3810    0.3770 O.2   211  HIS211     -0.2864
    117  CB         2.7290   49.1210    1.3230 C.3   211  HIS211      0.0771
    118  CG         3.7620   48.3190    2.0090 C.ar  211  HIS211      0.0820
    119  ND1        4.8480   48.9100    2.6290 N.ar  211  HIS211     -0.2267
    120  CD2        3.9160   46.9770    2.1410 C.ar  211  HIS211      0.1154
    121  CE1        5.6480   47.9500    3.0700 C.ar  211  HIS211      0.1986
    122  NE2        5.1030   46.7770    2.7930 N.ar  211  HIS211     -0.2212
    123  N          5.7030   37.7310   -3.7520 N.3   237  GLU237     -0.1245
    124  CA         6.5860   37.4130   -2.5650 C.3   237  GLU237      0.1567
    125  C          6.0050   36.3290   -1.6400 C.2   237  GLU237      0.2260
    126  O          5.8690   36.5440   -0.4300 O.2   237  GLU237     -0.2867
    127  CB         6.9530   38.6630   -1.7640 C.3   237  GLU237      0.0388
    128  CG         5.7420   39.5320   -1.2520 C.3   237  GLU237      0.1160
    129  CD         6.2840   40.7160   -0.4110 C.2   237  GLU237      0.3649
    130  OE1        6.7760   40.5060    0.7200 O.co2 237  GLU237     -0.2457
    131  OE2        6.3880   41.8260   -0.9470 O.co2 237  GLU237     -0.2457
    132  N          5.1670   33.4230    0.9020 N.3   239  MET239     -0.1245
    133  CA         5.7790   32.6820    2.0600 C.3   239  MET239      0.1570
    134  C          5.0730   31.3470    2.1470 C.2   239  MET239      0.2261
    135  O          3.8470   31.2870    2.1680 O.2   239  MET239     -0.2867
    136  CB         5.5730   33.4690    3.3260 C.3   239  MET239      0.0387
    137  CG         6.2970   34.8240    3.2970 C.3   239  MET239      0.0595
    138  SD         5.3470   35.9530    4.3480 S.3   239  MET239     -0.1393
    139  CE         5.9530   37.5170    4.2510 C.3   239  MET239      0.0692
    140  N          8.3110   42.5850   16.0410 N.3   254  TRP254     -0.1241
    141  CA         8.5810   42.4900   14.5750 C.3   254  TRP254      0.1605
    142  C          8.7010   41.0630   14.1190 C.2   254  TRP254      0.2264
    143  O          8.1500   40.6990   13.0990 O.2   254  TRP254     -0.2867
    144  CB         9.9260   43.1340   14.2960 C.3   254  TRP254      0.0550
    145  CG         9.8680   44.6170   14.3420 C.ar  254  TRP254      0.0003
    146  CD1       10.4270   45.4320   15.2750 C.ar  254  TRP254      0.0946
    147  CD2        9.2420   45.4500   13.3900 C.ar  254  TRP254      0.0152
    148  NE1       10.1500   46.7610   14.9560 N.ar  254  TRP254     -0.2442
    149  CE2        9.4410   46.7830   13.7950 C.ar  254  TRP254      0.0810
    150  CE3        8.5490   45.2010   12.2000 C.ar  254  TRP254      0.0012
    151  CZ2        8.9440   47.8660   13.0700 C.ar  254  TRP254      0.0191
    152  CZ3        8.0310   46.2860   11.4820 C.ar  254  TRP254      0.0001
    153  CH2        8.2610   47.6050   11.9130 C.ar  254  TRP254      0.0015
    154  N         10.6570   32.0030    1.4750 N.3   266  GLN266     -0.1245
    155  CA        10.0550   33.1220    0.7240 C.3   266  GLN266      0.1566
    156  C         11.0420   33.5540   -0.3500 C.2   266  GLN266      0.2260
    157  O         12.2790   33.4810   -0.1770 O.2   266  GLN266     -0.2867
    158  CB         9.7280   34.2510    1.6910 C.3   266  GLN266      0.0367
    159  CG         9.0990   35.5260    0.9460 C.3   266  GLN266      0.0905
    160  CD         8.7750   36.6430    1.8980 C.2   266  GLN266      0.2608
    161  OE1        9.4230   36.7940    2.9640 O.2   266  GLN266     -0.2717
    162  NE2        7.8050   37.4890    1.5240 N.am  266  GLN266     -0.0878
    163  N         11.1080   36.9820   -3.4400 N.3   268  GLU268     -0.1245
    164  CA        10.3370   38.2260   -3.8090 C.3   268  GLU268      0.1567
    165  C         11.0500   38.9810   -4.9200 C.2   268  GLU268      0.2260
    166  O         12.3100   39.1220   -4.9030 O.2   268  GLU268     -0.2867
    167  CB        10.2450   39.1330   -2.5750 C.3   268  GLU268      0.0388
    168  CG         9.7500   40.5770   -2.9410 C.3   268  GLU268      0.1160
    169  CD         9.5610   41.4400   -1.7220 C.2   268  GLU268      0.3649
    170  OE1        8.6560   42.3370   -1.7510 O.co2 268  GLU268     -0.2457
    171  OE2       10.3550   41.3270   -0.7340 O.co2 268  GLU268     -0.2457
@<TRIPOS>BOND
     1   165   166    2
     2   165   164    1
     3    80    79    2
     4    95    94    2
     5    77    78    1
     6    94    93    1
     7   164   163    1
     8   164   167    1
     9   123   124    1
    10    79    78    1
    11    78    81    1
    12   168   167    1
    13   168   169    1
    14    92    93    1
    15    93    96    1
    16   124   127    1
    17   124   125    1
    18    81    82    1
    19   127   128    1
    20   170   169   ar
    21   169   171   ar
    22   125   126    2
    23    98   100   ar
    24    98    97   ar
    25    96    97    1
    26    82    83   ar
    27    82    84   ar
    28   105   104    2
    29   128   129    1
    30   100   101   ar
    31    97    99   ar
    32   131   129   ar
    33   101    99   ar
    34    76    74    1
    35   104   103    1
    36   104   113   am
    37   102   103    1
    38   115   114    1
    39   115   116    2
    40   129   130   ar
    41   103   106    1
    42   156   157    2
    43   156   155    1
    44    72    71    1
    45    72    73    2
    46    71    74    1
    47    71    70    1
    48   114   113    1
    49   114   117    1
    50    87    88    2
    51    87    86    1
    52    74    75    1
    53   108   110   ar
    54   108   107   ar
    55    89    86    1
    56    89    90    1
    57    89    91    1
    58   155   154    1
    59   155   158    1
    60   132   133    1
    61   159   158    1
    62   159   160    1
    63    86    85    1
    64   106   107    1
    65   110   112   ar
    66   117   118    1
    67   107   109   ar
    68   162   160   am
    69    68    67   ar
    70   160   161    2
    71   118   120   ar
    72   118   119   ar
    73   133   134    1
    74   133   136    1
    75   120   122   ar
    76   134   135    2
    77    69    67   ar
    78    67    66    1
    79    63    64    1
    80    63    66    1
    81    63    62    1
    82   112   111   ar
    83    64    65    2
    84   119   121   ar
    85   109   111   ar
    86   122   121   ar
    87   137   136    1
    88   137   138    1
    89   139   138    1
    90     1     2    1
    91     7     5    1
    92    16    14   ar
    93    16    18   ar
    94    43    42    1
    95    19    18    1
    96     2     5    1
    97     2     3    1
    98    14    13   ar
    99    18    17   ar
   100     5     6    1
   101    40    41    1
   102    42    41    1
   103    44    45    1
   104    44    41    1
   105    13    12    1
   106    13    15   ar
   107    50    51    1
   108    50    47    1
   109    17    15   ar
   110    61    59   ar
   111    61    60   ar
   112     3     4    2
   113    12     9    1
   114    59    57   ar
   115    47    46    1
   116    47    48    1
   117    60    58   ar
   118    28    27    1
   119     9     8    1
   120     9    10    1
   121    52    48   am
   122    52    53    1
   123    27    26    1
   124    57    58   ar
   125    57    56    1
   126    48    49    2
   127    53    56    1
   128    53    54    1
   129    26    25    1
   130    10    11    2
   131    10    20   am
   132    38    36   ar
   133    38    39   ar
   134    36    34   ar
   135    25    24    1
   136    20    21    1
   137    39    37   ar
   138    54    55    2
   139    34    33    1
   140    34    35   ar
   141    33    30    1
   142    37    35   ar
   143    24    21    1
   144   152   153   ar
   145   152   150   ar
   146    21    22    1
   147    32    31    2
   148   153   151   ar
   149   150   147   ar
   150    30    31    1
   151    30    29    1
   152    22    23    2
   153   151   149   ar
   154   143   142    2
   155   147   149   ar
   156   147   145   ar
   157   149   148   ar
   158   142   141    1
   159   144   145    1
   160   144   141    1
   161   145   146   ar
   162   141   140    1
   163   148   146   ar
