@<TRIPOS>MOLECULE
tmp/3iu9A00.pdb
 165 158 0 0 0
SMALL
GASTEIGER

@<TRIPOS>ATOM
      1  N         -9.0380   58.9910   -5.7010 N.3    26  TYR26      -0.1241
      2  CA        -8.5920   58.4120   -6.9960 C.3    26  TYR26       0.1605
      3  C         -9.7340   58.3420   -7.9990 C.2    26  TYR26       0.2264
      4  O         -9.4840   57.9710   -9.1540 O.2    26  TYR26      -0.2867
      5  CB        -7.9770   57.0030   -6.8050 C.3    26  TYR26       0.0534
      6  CG        -8.8490   56.0540   -5.9410 C.ar   26  TYR26      -0.0201
      7  CD1      -10.0710   55.5170   -6.4120 C.ar   26  TYR26      -0.0009
      8  CD2       -8.4460   55.7270   -4.6250 C.ar   26  TYR26      -0.0009
      9  CE1      -10.9090   54.7200   -5.6040 C.ar   26  TYR26       0.0417
     10  CE2       -9.3050   54.8920   -3.8200 C.ar   26  TYR26       0.0417
     11  CZ       -10.4660   54.3990   -4.2980 C.ar   26  TYR26       0.1957
     12  OH       -11.2920   53.6420   -3.4970 O.3    26  TYR26      -0.2866
     13  N        -15.4740   51.4330   -2.5330 N.3    92  SER92      -0.1202
     14  CA       -14.0750   51.9180   -2.8550 C.3    92  SER92       0.2020
     15  C        -13.6470   51.3820   -4.2590 C.2    92  SER92       0.2619
     16  O        -12.8330   52.0260   -4.8900 O.2    92  SER92      -0.2717
     17  CB       -13.1070   51.2860   -1.8870 C.3    92  SER92       0.2103
     18  OG       -13.5030   51.7390   -0.5400 O.3    92  SER92      -0.2182
     19  N        -14.1260   50.2130   -4.6670 N.am   93  THR93      -0.1952
     20  CA       -13.6300   49.7120   -5.9880 C.3    93  THR93       0.1897
     21  C        -14.0870   50.6060   -7.1330 C.2    93  THR93       0.2313
     22  O        -13.4660   50.5850   -8.2060 O.2    93  THR93      -0.2863
     23  CB       -14.1520   48.2810   -6.3160 C.3    93  THR93       0.1794
     24  OG1      -15.5940   48.3090   -6.3770 O.3    93  THR93      -0.2208
     25  CG2      -13.9060   47.3610   -5.3180 C.3    93  THR93       0.0378
     26  N        -11.7120   52.9090   -9.0760 N.3    96  TYR96      -0.1241
     27  CA       -10.2750   52.7400   -8.7480 C.3    96  TYR96       0.1605
     28  C         -9.5800   52.2550   -9.9930 C.2    96  TYR96       0.2264
     29  O         -9.8540   51.1070  -10.4600 O.2    96  TYR96      -0.2867
     30  CB       -10.1570   51.6880   -7.6200 C.3    96  TYR96       0.0534
     31  CG        -8.7230   51.3600   -7.2330 C.ar   96  TYR96      -0.0201
     32  CD1       -8.0890   52.1210   -6.2580 C.ar   96  TYR96      -0.0009
     33  CD2       -8.0930   50.2970   -7.8010 C.ar   96  TYR96      -0.0009
     34  CE1       -6.7610   51.7750   -5.8730 C.ar   96  TYR96       0.0417
     35  CE2       -6.8070   49.9450   -7.4790 C.ar   96  TYR96       0.0417
     36  CZ        -6.1370   50.7140   -6.4920 C.ar   96  TYR96       0.1957
     37  OH        -4.8460   50.3330   -6.1760 O.3    96  TYR96      -0.2866
     38  N        -11.9030   50.7900  -12.4630 N.3    99  PHE99      -0.1241
     39  CA       -12.6720   49.5860  -12.2340 C.3    99  PHE99       0.1605
     40  C        -14.1530   50.0190  -12.3130 C.2    99  PHE99       0.2264
     41  O        -14.5770   51.0470  -11.7650 O.2    99  PHE99      -0.2867
     42  CB       -12.3140   48.9980  -10.8740 C.3    99  PHE99       0.0534
     43  CG       -13.0250   47.6820  -10.6280 C.ar   99  PHE99      -0.0203
     44  CD1      -12.4600   46.4400  -11.1090 C.ar   99  PHE99      -0.0042
     45  CD2      -14.3050   47.6980  -10.0160 C.ar   99  PHE99      -0.0042
     46  CE1      -13.1280   45.1960  -10.8950 C.ar   99  PHE99      -0.0003
     47  CE2      -14.9590   46.4160   -9.7810 C.ar   99  PHE99      -0.0003
     48  CZ       -14.3820   45.1830  -10.2780 C.ar   99  PHE99      -0.0000
     49  N        -15.9840   43.0740   -6.3230 N.3   104  CYS104     -0.1235
     50  CA       -15.3680   42.0740   -7.2640 C.3   104  CYS104      0.1677
     51  C        -16.0040   40.7270   -6.9970 C.2   104  CYS104      0.2270
     52  O        -16.2440   40.3350   -5.8260 O.2   104  CYS104     -0.2867
     53  CB       -13.8590   41.9280   -7.0060 C.3   104  CYS104      0.0956
     54  SG       -12.9520   43.3930   -7.3100 S.3   104  CYS104     -0.0801
     55  N        -10.4480   39.7000   -8.4330 N.3   113  HIS113     -0.1241
     56  CA       -10.6990   40.9130   -9.2540 C.3   113  HIS113      0.1621
     57  C        -11.6930   40.6830  -10.4250 C.2   113  HIS113      0.2264
     58  O        -11.7350   41.4350  -11.3980 O.2   113  HIS113     -0.2867
     59  CB        -9.4150   41.6480   -9.7020 C.3   113  HIS113      0.0745
     60  CG        -8.6190   42.1440   -8.5160 C.ar  113  HIS113      0.0817
     61  ND1       -7.3180   42.6150   -8.6350 N.ar  113  HIS113     -0.2268
     62  CD2       -8.9670   42.2760   -7.2070 C.ar  113  HIS113      0.1154
     63  CE1       -6.8910   42.9910   -7.4070 C.ar  113  HIS113      0.1986
     64  NE2       -7.8590   42.7740   -6.5290 N.ar  113  HIS113     -0.2212
     65  N        -15.9290   40.3730   -2.9960 N.3   130  ASP130     -0.1239
     66  CA       -15.0140   41.2800   -2.2400 C.3   130  ASP130      0.1674
     67  C        -15.6190   42.6680   -2.2100 C.2   130  ASP130      0.2266
     68  O        -15.8850   43.2370   -3.2760 O.2   130  ASP130     -0.2867
     69  CB       -13.6350   41.2490   -2.9350 C.3   130  ASP130      0.1410
     70  CG       -12.5430   41.9490   -2.1270 C.2   130  ASP130      0.3668
     71  OD1      -12.8500   43.0200   -1.6040 O.co2 130  ASP130     -0.2456
     72  OD2      -11.4130   41.4150   -2.1100 O.co2 130  ASP130     -0.2456
     73  N        -15.6180   46.6280   -0.5120 N.3   132  THR132     -0.1218
     74  CA       -14.8020   47.6160    0.1830 C.3   132  THR132      0.1862
     75  C        -15.6390   48.8820    0.3070 C.2   132  THR132      0.2287
     76  O        -16.4520   49.2530   -0.5740 O.2   132  THR132     -0.2866
     77  CB       -13.5300   47.8870   -0.6580 C.3   132  THR132      0.1770
     78  OG1      -14.0390   48.1390   -2.0090 O.3   132  THR132     -0.2211
     79  CG2      -12.6560   46.6550   -0.6230 C.3   132  THR132      0.0375
     80  N        -12.2080   46.5580    4.1340 N.3   141  ASP141     -0.1239
     81  CA       -12.0540   45.6820    2.9460 C.3   141  ASP141      0.1674
     82  C        -12.3560   44.2050    3.4720 C.2   141  ASP141      0.2266
     83  O        -11.7330   43.7620    4.4600 O.2   141  ASP141     -0.2867
     84  CB       -10.5650   45.8070    2.5500 C.3   141  ASP141      0.1410
     85  CG       -10.1390   44.8130    1.4770 C.2   141  ASP141      0.3668
     86  OD1       -8.9380   44.4630    1.4530 O.co2 141  ASP141     -0.2456
     87  OD2      -11.0140   44.3990    0.6410 O.co2 141  ASP141     -0.2456
     88  N         -1.3280   39.9000   -2.3190 N.3   202  THR202     -0.1218
     89  CA        -0.9810   39.8650   -0.8510 C.3   202  THR202      0.1862
     90  C         -2.0050   40.6240   -0.0570 C.2   202  THR202      0.2287
     91  O         -2.8450   41.3950   -0.5930 O.2   202  THR202     -0.2866
     92  CB         0.3910   40.5970   -0.6000 C.3   202  THR202      0.1770
     93  OG1        0.2660   41.9700   -0.9250 O.3   202  THR202     -0.2211
     94  CG2        1.4370   40.0550   -1.5700 C.3   202  THR202      0.0375
     95  N         -2.5660   43.7230    2.7980 N.3   204  HIS204     -0.1241
     96  CA        -2.0630   45.0800    2.6890 C.3   204  HIS204      0.1621
     97  C         -2.4810   45.8640    3.8990 C.2   204  HIS204      0.2264
     98  O         -3.5860   45.6610    4.4730 O.2   204  HIS204     -0.2867
     99  CB        -2.6660   45.7570    1.4350 C.3   204  HIS204      0.0745
    100  CG        -4.1330   45.4590    1.2010 C.ar  204  HIS204      0.0817
    101  ND1       -5.1350   46.3700    1.4780 N.ar  204  HIS204     -0.2268
    102  CD2       -4.7570   44.3480    0.7110 C.ar  204  HIS204      0.1154
    103  CE1       -6.3170   45.8300    1.1890 C.ar  204  HIS204      0.1986
    104  NE2       -6.1200   44.6020    0.7060 N.ar  204  HIS204     -0.2212
    105  N         -6.1460   52.6230    0.5240 N.3   210  PHE210     -0.1227
    106  CA        -6.5200   51.2150    0.4700 C.3   210  PHE210      0.1736
    107  C         -5.3870   50.2460    0.5270 C.2   210  PHE210      0.2595
    108  O         -5.4770   49.2910    1.2940 O.2   210  PHE210     -0.2718
    109  CB        -7.3070   50.9810   -0.8400 C.3   210  PHE210      0.0547
    110  CG        -8.0100   49.6540   -0.8120 C.ar  210  PHE210     -0.0202
    111  CD1       -9.1790   49.4700   -0.0770 C.ar  210  PHE210     -0.0042
    112  CD2       -7.4380   48.6020   -1.4300 C.ar  210  PHE210     -0.0042
    113  CE1       -9.8210   48.1750   -0.0760 C.ar  210  PHE210     -0.0003
    114  CE2       -8.0120   47.3050   -1.4710 C.ar  210  PHE210     -0.0003
    115  CZ        -9.2160   47.0900   -0.7770 C.ar  210  PHE210     -0.0000
    116  N         -4.3190   50.4730   -0.2880 N.am  211  HIS211     -0.1975
    117  CA        -3.0650   49.7250   -0.1640 C.3   211  HIS211      0.1656
    118  C         -1.9750   50.6680    0.3510 C.2   211  HIS211      0.2291
    119  O         -1.3630   51.4110   -0.4630 O.2   211  HIS211     -0.2864
    120  CB        -2.5740   49.1390   -1.4940 C.3   211  HIS211      0.0771
    121  CG        -3.6020   48.3460   -2.2670 C.ar  211  HIS211      0.0820
    122  ND1       -4.0390   47.0650   -1.9280 N.ar  211  HIS211     -0.2267
    123  CD2       -4.2750   48.6820   -3.4010 C.ar  211  HIS211      0.1154
    124  CE1       -4.8740   46.6190   -2.8580 C.ar  211  HIS211      0.1986
    125  NE2       -5.0490   47.5850   -3.7580 N.ar  211  HIS211     -0.2212
    126  N         -5.6960   37.9180    3.6910 N.3   237  GLU237     -0.1245
    127  CA        -6.5930   37.6200    2.5170 C.3   237  GLU237      0.1567
    128  C         -6.0000   36.5710    1.5640 C.2   237  GLU237      0.2260
    129  O         -5.9580   36.7770    0.3300 O.2   237  GLU237     -0.2867
    130  CB        -7.0380   38.8820    1.7740 C.3   237  GLU237      0.0388
    131  CG        -5.8710   39.7700    1.2220 C.3   237  GLU237      0.1160
    132  CD        -6.4320   41.1960    0.8700 C.2   237  GLU237      0.3649
    133  OE1       -6.4560   41.5530   -0.3060 O.co2 237  GLU237     -0.2457
    134  OE2       -6.9440   41.8710    1.7820 O.co2 237  GLU237     -0.2457
    135  N         -5.2240   33.7430   -1.0540 N.3   239  MET239     -0.1245
    136  CA        -5.8450   33.0920   -2.2380 C.3   239  MET239      0.1570
    137  C         -5.1210   31.7530   -2.3170 C.2   239  MET239      0.2261
    138  O         -3.8750   31.7070   -2.3200 O.2   239  MET239     -0.2867
    139  CB        -5.5860   33.9180   -3.5010 C.3   239  MET239      0.0387
    140  CG        -6.3460   35.2170   -3.4120 C.3   239  MET239      0.0595
    141  SD        -5.5970   36.4880   -4.4680 S.3   239  MET239     -0.1393
    142  CE        -6.1960   38.0340   -4.1140 C.3   239  MET239      0.0692
    143  N         -8.3190   43.2300  -15.4510 N.3   254  TRP254     -0.1241
    144  CA        -8.6320   43.0030  -14.0360 C.3   254  TRP254      0.1605
    145  C         -8.7370   41.5540  -13.6720 C.2   254  TRP254      0.2264
    146  O         -8.1440   41.1260  -12.6690 O.2   254  TRP254     -0.2867
    147  CB        -9.9810   43.6190  -13.7010 C.3   254  TRP254      0.0550
    148  CG        -9.8690   45.1570  -13.5730 C.ar  254  TRP254      0.0003
    149  CD1      -10.3410   46.1360  -14.4430 C.ar  254  TRP254      0.0946
    150  CD2       -9.2140   45.8770  -12.4820 C.ar  254  TRP254      0.0152
    151  NE1      -10.0410   47.4050  -13.9460 N.ar  254  TRP254     -0.2442
    152  CE2       -9.3270   47.2810  -12.7700 C.ar  254  TRP254      0.0810
    153  CE3       -8.5620   45.4620  -11.3250 C.ar  254  TRP254      0.0012
    154  CZ2       -8.7690   48.2770  -11.9370 C.ar  254  TRP254      0.0191
    155  CZ3       -8.0220   46.4510  -10.4690 C.ar  254  TRP254      0.0001
    156  CH2       -8.1370   47.8380  -10.8060 C.ar  254  TRP254      0.0015
    157  N        -11.1150   37.2270    3.4150 N.3   268  GLU268     -0.1245
    158  CA       -10.3680   38.4910    3.6760 C.3   268  GLU268      0.1567
    159  C        -11.0520   39.2190    4.8170 C.2   268  GLU268      0.2260
    160  O        -12.2780   39.3760    4.8360 O.2   268  GLU268     -0.2867
    161  CB       -10.4580   39.3430    2.3940 C.3   268  GLU268      0.0388
    162  CG        -9.9910   40.8440    2.5380 C.3   268  GLU268      0.1160
    163  CD       -10.3570   41.5450    1.2090 C.2   268  GLU268      0.3649
    164  OE1       -9.4840   41.8080    0.4100 O.co2 268  GLU268     -0.2457
    165  OE2      -11.5110   41.7120    0.9620 O.co2 268  GLU268     -0.2457
@<TRIPOS>BOND
     1   143   144    1
     2   149   151   ar
     3   149   148   ar
     4   144   147    1
     5   144   145    1
     6   151   152   ar
     7   147   148    1
     8   145   146    2
     9   148   150   ar
    10   152   150   ar
    11   152   154   ar
    12   150   153   ar
    13    38    39    1
    14    40    39    1
    15    40    41    2
    16    39    42    1
    17   154   156   ar
    18    58    57    2
    19   153   155   ar
    20    44    46   ar
    21    44    43   ar
    22    46    48   ar
    23    42    43    1
    24   156   155   ar
    25    43    45   ar
    26    29    28    2
    27    57    56    1
    28    48    47   ar
    29    45    47   ar
    30    28    27    1
    31    59    56    1
    32    59    60    1
    33    56    55    1
    34     4     3    2
    35    26    27    1
    36    27    30    1
    37    61    60   ar
    38    61    63   ar
    39    60    62   ar
    40    22    21    2
    41     3     2    1
    42    33    35   ar
    43    33    31   ar
    44    30    31    1
    45    35    36   ar
    46    63    64   ar
    47    54    53    1
    48    50    53    1
    49    50    51    1
    50    50    49    1
    51    31    32   ar
    52    62    64   ar
    53    21    20    1
    54    51    52    2
    55     2     5    1
    56     2     1    1
    57     5     6    1
    58    36    37    1
    59    36    34   ar
    60     7     6   ar
    61     7     9   ar
    62    24    23    1
    63    23    20    1
    64    23    25    1
    65    32    34   ar
    66    20    19    1
    67     6     8   ar
    68     9    11   ar
    69    16    15    2
    70    19    15   am
    71     8    10   ar
    72   141   142    1
    73   141   140    1
    74    11    10   ar
    75    11    12    1
    76    15    14    1
    77   125   123   ar
    78   125   124   ar
    79   139   140    1
    80   139   136    1
    81   123   121   ar
    82    68    67    2
    83    65    66    1
    84    69    66    1
    85    69    70    1
    86   124   122   ar
    87    14    13    1
    88    14    17    1
    89   138   137    2
    90    88    89    1
    91   137   136    1
    92   121   122   ar
    93   121   120    1
    94    66    67    1
    95   136   135    1
    96    70    72   ar
    97    70    71   ar
    98    78    77    1
    99    17    18    1
   100    94    92    1
   101   120   117    1
   102   114   112   ar
   103   114   115   ar
   104   112   110   ar
   105    93    92    1
   106    89    92    1
   107    89    90    1
   108   109   110    1
   109   109   106    1
   110   110   111   ar
   111   115   113   ar
   112    77    79    1
   113    77    74    1
   114    91    90    2
   115    76    75    2
   116    73    74    1
   117   119   118    2
   118   133   132   ar
   119   116   117    1
   120   116   107   am
   121   117   118    1
   122   111   113   ar
   123    74    75    1
   124   129   128    2
   125   164   163   ar
   126   106   105    1
   127   106   107    1
   128   107   108    2
   129    87    85   ar
   130   104   102   ar
   131   104   103   ar
   132   102   100   ar
   133   132   131    1
   134   132   134   ar
   135   165   163   ar
   136   103   101   ar
   137   100    99    1
   138   100   101   ar
   139   163   162    1
   140   131   130    1
   141    99    96    1
   142    86    85   ar
   143    85    84    1
   144   128   127    1
   145   130   127    1
   146   161   162    1
   147   161   158    1
   148   127   126    1
   149    84    81    1
   150    96    95    1
   151    96    97    1
   152    81    82    1
   153    81    80    1
   154   157   158    1
   155    82    83    2
   156   158   159    1
   157    97    98    2
   158   159   160    2
