@<TRIPOS>MOLECULE
tmp/3iubA00.pdb
 191 185 0 0 0
SMALL
GASTEIGER

@<TRIPOS>ATOM
      1  N          8.3800   11.4400    5.9910 N.3    35  PRO35      -0.2102
      2  CA         9.5090   11.6990    6.8950 C.3    35  PRO35       0.1504
      3  C         10.7800   11.9310    6.1230 C.2    35  PRO35       0.2576
      4  O         11.1490   11.1390    5.2620 O.2    35  PRO35      -0.2718
      5  CB         9.6290   10.4110    7.7180 C.3    35  PRO35       0.0282
      6  CG         8.5880    9.4740    7.1980 C.3    35  PRO35       0.0208
      7  CD         8.1030    9.9990    5.8820 C.3    35  PRO35       0.0893
      8  N         11.4570   13.0320    6.4330 N.am   36  THR36      -0.1939
      9  CA        12.6730   13.3920    5.7200 C.3    36  THR36       0.2028
     10  C         13.7410   13.8720    6.6870 C.2    36  THR36       0.2642
     11  O         13.4500   14.2700    7.8080 O.2    36  THR36      -0.2714
     12  CB        12.4570   14.5620    4.7140 C.3    36  THR36       0.1808
     13  OG1       12.4260   15.8220    5.4050 O.3    36  THR36      -0.2208
     14  CG2       11.1720   14.4230    3.9020 C.3    36  THR36       0.0379
     15  N         14.9780   13.8850    6.2060 N.am   37  MET37      -0.1962
     16  CA        16.0530   14.5370    6.9480 C.3    37  MET37       0.1736
     17  C         16.3760   15.9310    6.3850 C.2    37  MET37       0.2617
     18  O         17.5030   16.4140    6.5210 O.2    37  MET37      -0.2715
     19  CB        17.2800   13.6380    6.9760 C.3    37  MET37       0.0427
     20  CG        16.9820   12.2980    7.6010 C.3    37  MET37       0.0599
     21  SD        18.2160   11.7900    8.8180 S.3    37  MET37      -0.1393
     22  CE        19.6440   11.5050    7.7640 C.3    37  MET37       0.0692
     23  N         15.3840   16.5720    5.7640 N.am   38  GLY38      -0.1955
     24  CA        15.5810   17.9140    5.1760 C.3    38  GLY38       0.1869
     25  C         16.4840   17.8720    3.9580 C.2    38  GLY38       0.2309
     26  O         16.6570   16.8170    3.3180 O.2    38  GLY38      -0.2863
     27  N         14.9370   17.8000   -2.0320 N.3    41  HIS41      -0.1241
     28  CA        15.1230   17.8420   -3.4710 C.3    41  HIS41       0.1621
     29  C         13.9030   17.2200   -4.1530 C.2    41  HIS41       0.2264
     30  O         12.9440   16.8100   -3.4920 O.2    41  HIS41      -0.2867
     31  CB        16.4090   17.1140   -3.8570 C.3    41  HIS41       0.0745
     32  CG        16.5230   15.7410   -3.2760 C.ar   41  HIS41       0.0817
     33  ND1       15.7070   14.6990   -3.6560 N.ar   41  HIS41      -0.2268
     34  CD2       17.3590   15.2410   -2.3360 C.ar   41  HIS41       0.1154
     35  CE1       16.0270   13.6170   -2.9690 C.ar   41  HIS41       0.1986
     36  NE2       17.0370   13.9160   -2.1710 N.ar   41  HIS41      -0.2212
     37  N         13.2050   14.4610   -5.3900 N.3    43  GLY43      -0.1210
     38  CA        12.8500   13.1270   -4.8910 C.3    43  GLY43       0.1956
     39  C         11.8900   13.2320   -3.7120 C.2    43  GLY43       0.2611
     40  O         10.8470   12.5570   -3.6710 O.2    43  GLY43      -0.2717
     41  N         12.2440   14.0770   -2.7450 N.am   44  HIS44      -0.1975
     42  CA        11.3370   14.3450   -1.6240 C.3    44  HIS44       0.1656
     43  C         10.0150   14.9230   -2.1170 C.2    44  HIS44       0.2291
     44  O          8.9510   14.5610   -1.6240 O.2    44  HIS44      -0.2864
     45  CB        11.9400   15.3110   -0.6070 C.3    44  HIS44       0.0771
     46  CG        13.2010   14.8360    0.0340 C.ar   44  HIS44       0.0820
     47  ND1       14.4290   15.3510   -0.3040 N.ar   44  HIS44      -0.2267
     48  CD2       13.4300   13.9200    1.0060 C.ar   44  HIS44       0.1154
     49  CE1       15.3640   14.7800    0.4300 C.ar   44  HIS44       0.1986
     50  NE2       14.7830   13.9150    1.2430 N.ar   44  HIS44      -0.2212
     51  N          8.5160   14.4510   -4.9850 N.3    46  ALA46      -0.1231
     52  CA         7.7330   13.3430   -5.5490 C.3    46  ALA46       0.1694
     53  C          6.9660   12.6120   -4.4450 C.2    46  ALA46       0.2591
     54  O          5.8330   12.1890   -4.6610 O.2    46  ALA46      -0.2718
     55  CB         8.6330   12.3750   -6.3020 C.3    46  ALA46       0.0304
     56  N          7.5660   12.4740   -3.2560 N.am   47  LEU47      -0.1980
     57  CA         6.8410   11.8630   -2.1430 C.3    47  LEU47       0.1596
     58  C          5.6580   12.7310   -1.7200 C.2    47  LEU47       0.2287
     59  O          4.5460   12.2290   -1.5040 O.2    47  LEU47      -0.2864
     60  CB         7.7550   11.6460   -0.9360 C.3    47  LEU47       0.0297
     61  CG         9.0550   10.8740   -1.1530 C.3    47  LEU47       0.0022
     62  CD1        9.7620   10.6710    0.1740 C.3    47  LEU47       0.0001
     63  CD2        8.8400    9.5270   -1.8360 C.3    47  LEU47       0.0001
     64  N         21.0400    7.7860   13.9220 N.3    69  GLN69      -0.1245
     65  CA        21.3950    6.9500   12.7850 C.3    69  GLN69       0.1566
     66  C         22.7710    7.3200   12.2260 C.2    69  GLN69       0.2260
     67  O         23.1540    6.8660   11.1460 O.2    69  GLN69      -0.2867
     68  CB        20.3200    7.0000   11.6970 C.3    69  GLN69       0.0367
     69  CG        20.1230    8.3470   11.0020 C.3    69  GLN69       0.0905
     70  CD        18.9230    8.3190   10.0570 C.2    69  GLN69       0.2608
     71  OE1       19.0690    8.2780    8.8150 O.2    69  GLN69      -0.2717
     72  NE2       17.7270    8.2950   10.6350 N.am   69  GLN69      -0.0878
     73  N         26.0540   16.6670    7.6380 N.3    79  TYR79      -0.1241
     74  CA        24.8260   16.4970    6.8720 C.3    79  TYR79       0.1605
     75  C         24.2860   17.8450    6.4050 C.2    79  TYR79       0.2264
     76  O         24.2260   18.7840    7.2040 O.2    79  TYR79      -0.2867
     77  CB        23.7520   15.7540    7.6700 C.3    79  TYR79       0.0534
     78  CG        22.7550   15.1030    6.7460 C.ar   79  TYR79      -0.0201
     79  CD1       23.0620   13.8940    6.1190 C.ar   79  TYR79      -0.0009
     80  CD2       21.5400   15.7190    6.4490 C.ar   79  TYR79      -0.0009
     81  CE1       22.1740   13.2920    5.2250 C.ar   79  TYR79       0.0417
     82  CE2       20.6310   15.1230    5.5650 C.ar   79  TYR79       0.0417
     83  CZ        20.9630   13.9130    4.9580 C.ar   79  TYR79       0.1957
     84  OH        20.0730   13.3190    4.0830 O.3    79  TYR79      -0.2866
     85  N         23.1210    1.7050   12.4450 N.3   132  HIS132     -0.1241
     86  CA        22.5060    2.6880   11.5480 C.3   132  HIS132      0.1621
     87  C         20.9970    2.4670   11.4260 C.2   132  HIS132      0.2264
     88  O         20.2110    3.3920   11.6470 O.2   132  HIS132     -0.2867
     89  CB        23.1180    2.6640   10.1330 C.3   132  HIS132      0.0745
     90  CG        22.3340    3.4840    9.1460 C.ar  132  HIS132      0.0817
     91  ND1       22.3340    4.8640    9.1560 N.ar  132  HIS132     -0.2268
     92  CD2       21.4810    3.1160    8.1570 C.ar  132  HIS132      0.1154
     93  CE1       21.5330    5.3100    8.2020 C.ar  132  HIS132      0.1986
     94  NE2       20.9950    4.2700    7.5910 N.ar  132  HIS132     -0.2212
     95  N          7.9050    6.6890    1.4460 N.3   154  PHE154     -0.1227
     96  CA         9.3670    6.5900    1.3450 C.3   154  PHE154      0.1736
     97  C          9.8020    6.4220   -0.1110 C.2   154  PHE154      0.2596
     98  O          9.0680    5.8590   -0.9310 O.2   154  PHE154     -0.2718
     99  CB         9.8850    5.4080    2.1710 C.3   154  PHE154      0.0547
    100  CG         9.7970    5.6310    3.6470 C.ar  154  PHE154     -0.0202
    101  CD1       10.7970    6.3510    4.3120 C.ar  154  PHE154     -0.0042
    102  CD2        8.7040    5.1480    4.3770 C.ar  154  PHE154     -0.0042
    103  CE1       10.7120    6.5770    5.6960 C.ar  154  PHE154     -0.0003
    104  CE2        8.6100    5.3710    5.7300 C.ar  154  PHE154     -0.0003
    105  CZ         9.6000    6.0850    6.3990 C.ar  154  PHE154     -0.0000
    106  N         11.0060    6.8950   -0.4240 N.am  155  GLY155     -0.1957
    107  CA        11.5720    6.6740   -1.7440 C.3   155  GLY155      0.1869
    108  C         12.1120    5.2610   -1.8820 C.2   155  GLY155      0.2309
    109  O         12.5540    4.6500   -0.9080 O.2   155  GLY155     -0.2863
    110  N         14.7390    4.8230   -3.5020 N.3   157  LYS157     -0.1231
    111  CA        16.1820    5.0510   -3.6350 C.3   157  LYS157      0.1693
    112  C         16.9190    4.3710   -2.4900 C.2   157  LYS157      0.2592
    113  O         17.9050    3.6360   -2.7000 O.2   157  LYS157     -0.2718
    114  CB        16.4650    6.5640   -3.6640 C.3   157  LYS157      0.0285
    115  CG        17.9050    6.9640   -3.9800 C.3   157  LYS157      0.0035
    116  CD        18.8010    6.8300   -2.7430 C.3   157  LYS157      0.0206
    117  CE        20.0150    7.7010   -2.8480 C.3   157  LYS157      0.1093
    118  NZ        20.1290    8.2250   -4.2260 N.3   157  LYS157     -0.1314
    119  N         16.4330    4.5980   -1.2740 N.am  158  ASP158     -0.1974
    120  CA        16.9990    3.9180   -0.1060 C.3   158  ASP158      0.1709
    121  C         16.1800    2.6500    0.1110 C.2   158  ASP158      0.2293
    122  O         15.3620    2.5290    1.0210 O.2   158  ASP158     -0.2864
    123  CB        16.9980    4.8420    1.1060 C.3   158  ASP158      0.1436
    124  CG        17.9420    6.0150    0.9230 C.2   158  ASP158      0.3671
    125  OD1       19.1470    5.8410    1.1830 O.co2 158  ASP158     -0.2456
    126  OD2       17.4730    7.0890    0.5120 O.co2 158  ASP158     -0.2456
    127  N         16.4370    0.5830    3.3590 N.3   161  GLN161     -0.1245
    128  CA        15.6700    1.2840    4.3880 C.3   161  GLN161      0.1566
    129  C         14.1500    1.0160    4.2520 C.2   161  GLN161      0.2260
    130  O         13.4640    0.7340    5.2460 O.2   161  GLN161     -0.2867
    131  CB        15.9540    2.7770    4.2750 C.3   161  GLN161      0.0367
    132  CG        15.1450    3.6360    5.2230 C.3   161  GLN161      0.0905
    133  CD        15.5360    5.0770    5.0930 C.2   161  GLN161      0.2608
    134  OE1       16.4710    5.5180    5.7330 O.2   161  GLN161     -0.2717
    135  NE2       14.8620    5.8010    4.2080 N.am  161  GLN161     -0.0878
    136  N          7.7960    5.0000   -3.2970 N.3   181  VAL181     -0.1231
    137  CA         7.6770    5.8270   -4.4990 C.3   181  VAL181      0.1678
    138  C          8.9210    5.6600   -5.3910 C.2   181  VAL181      0.2434
    139  O         10.0440    5.8060   -4.9160 O.2   181  VAL181     -0.2733
    140  CB         7.5010    7.3080   -4.1130 C.3   181  VAL181      0.0265
    141  CG1        7.3990    8.1840   -5.3600 C.3   181  VAL181      0.0020
    142  CG2        6.2540    7.4970   -3.2410 C.3   181  VAL181      0.0020
    143  N          8.7280    5.3170   -6.6800 N.am  182  PRO182     -0.2718
    144  CA         9.8920    5.1050   -7.5530 C.3   182  PRO182      0.1535
    145  C         10.8410    6.3010   -7.6000 C.2   182  PRO182      0.2599
    146  O         10.4020    7.4640   -7.5620 O.2   182  PRO182     -0.2715
    147  CB         9.2670    4.8230   -8.9300 C.3   182  PRO182      0.0310
    148  CG         7.8900    4.2900   -8.5950 C.3   182  PRO182      0.0237
    149  CD         7.4600    5.0930   -7.4000 C.3   182  PRO182      0.0939
    150  N         12.1290    5.9770   -7.6720 N.am  183  THR183     -0.1937
    151  CA        13.2320    6.9330   -7.6230 C.3   183  THR183      0.2028
    152  C         13.1460    7.9820   -8.7270 C.2   183  THR183      0.2642
    153  O         13.0470    7.6260   -9.9030 O.2   183  THR183     -0.2714
    154  CB        14.5780    6.1760   -7.7340 C.3   183  THR183      0.1808
    155  OG1       14.6780    5.2260   -6.6510 O.3   183  THR183     -0.2208
    156  CG2       15.7550    7.1150   -7.6690 C.3   183  THR183      0.0379
    157  N         13.1570    9.2600   -8.3280 N.am  184  VAL184     -0.1977
    158  CA        13.2790   10.3770   -9.2630 C.3   184  VAL184      0.1596
    159  C         14.7360   10.4900   -9.6900 C.2   184  VAL184      0.2287
    160  O         15.6390   10.3650   -8.8680 O.2   184  VAL184     -0.2864
    161  CB        12.8490   11.6970   -8.6180 C.3   184  VAL184      0.0276
    162  CG1       12.9300   12.8340   -9.6380 C.3   184  VAL184      0.0022
    163  CG2       11.4380   11.5920   -8.1110 C.3   184  VAL184      0.0022
    164  N         18.2700   11.1130   -7.6240 N.3   192  MET192     -0.1230
    165  CA        18.2390   12.2730   -6.7230 C.3   192  MET192      0.1702
    166  C         18.7920   11.9240   -5.3440 C.2   192  MET192      0.2593
    167  O         18.5090   10.8510   -4.7980 O.2   192  MET192     -0.2718
    168  CB        16.8120   12.8200   -6.5630 C.3   192  MET192      0.0401
    169  CG        16.2210   13.3990   -7.8230 C.3   192  MET192      0.0596
    170  SD        17.2170   14.7270   -8.5310 S.3   192  MET192     -0.1393
    171  CE        16.1240   15.3350   -9.8350 C.3   192  MET192      0.0692
    172  N         19.6030   12.8190   -4.7880 N.am  193  SER193     -0.1938
    173  CA        20.1530   12.6240   -3.4480 C.3   193  SER193      0.2055
    174  C         20.6220   13.9560   -2.9260 C.2   193  SER193      0.2643
    175  O         21.1360   14.7680   -3.6950 O.2   193  SER193     -0.2714
    176  CB        21.3540   11.6640   -3.4630 C.3   193  SER193      0.2130
    177  OG        22.0080   11.6800   -2.2000 O.3   193  SER193     -0.2179
    178  N         20.4720   14.1550   -1.6170 N.am  194  SER194     -0.1949
    179  CA        21.0300   15.3260   -0.9400 C.3   194  SER194      0.1924
    180  C         22.5740   15.3070   -0.9450 C.2   194  SER194      0.2314
    181  O         23.2040   16.3240   -0.5990 O.2   194  SER194     -0.2863
    182  CB        20.5180   15.3980    0.5040 C.3   194  SER194      0.2116
    183  OG        19.0950   15.5620    0.5270 O.3   194  SER194     -0.2180
    184  N         24.3340    5.7120   -3.6970 N.3   277  LEU277     -0.1245
    185  CA        23.5460    4.4720   -3.7710 C.3   277  LEU277      0.1561
    186  C         22.6290    4.5180   -4.9790 C.2   277  LEU277      0.2260
    187  O         22.1520    5.5780   -5.3710 O.2   277  LEU277     -0.2867
    188  CB        22.6230    4.3160   -2.5570 C.3   277  LEU277      0.0270
    189  CG        23.1870    4.3070   -1.1400 C.3   277  LEU277      0.0019
    190  CD1       22.1450    3.7810   -0.1690 C.3   277  LEU277      0.0001
    191  CD2       24.4180    3.4550   -1.0880 C.3   277  LEU277      0.0001
@<TRIPOS>BOND
     1   153   152    2
     2   171   170    1
     3   159   158    1
     4   159   160    2
     5   162   161    1
     6   158   161    1
     7   158   157    1
     8   147   148    1
     9   147   144    1
    10   152   157   am
    11   152   151    1
    12   161   163    1
    13   148   149    1
    14   170   169    1
    15   169   168    1
    16   154   156    1
    17   154   151    1
    18   154   155    1
    19   150   151    1
    20   150   145   am
    21   164   165    1
    22   145   146    2
    23   145   144    1
    24   144   143    1
    25   149   143    1
    26   165   168    1
    27   165   166    1
    28   143   138   am
    29    55    52    1
    30    52    51    1
    31    52    53    1
    32   138   139    2
    33   138   137    1
    34    37    38    1
    35   187   186    2
    36   141   140    1
    37   166   167    2
    38   166   172   am
    39   186   185    1
    40    38    39    1
    41   172   173    1
    42    54    53    2
    43   137   140    1
    44   137   136    1
    45    53    56   am
    46   118   117    1
    47    29    30    2
    48    29    28    1
    49   140   142    1
    50   115   114    1
    51   115   116    1
    52    31    28    1
    53    31    32    1
    54   185   184    1
    55   185   188    1
    56    39    40    2
    57    39    41   am
    58   175   174    2
    59   114   111    1
    60    33    32   ar
    61    33    35   ar
    62   111   110    1
    63   111   112    1
    64    28    27    1
    65   176   173    1
    66   176   177    1
    67   173   174    1
    68    32    34   ar
    69    56    57    1
    70    35    36   ar
    71   174   178   am
    72   117   116    1
    73    41    42    1
    74   113   112    2
    75   188   189    1
    76   112   119   am
    77    34    36   ar
    78    57    58    1
    79    57    60    1
    80    43    42    1
    81    43    44    2
    82   108   107    1
    83   108   109    2
    84    63    61    1
    85   107   106    1
    86    58    59    2
    87    42    45    1
    88   178   179    1
    89   119   120    1
    90    61    60    1
    91    61    62    1
    92   189   191    1
    93   189   190    1
    94   180   179    1
    95   180   181    2
    96   179   182    1
    97    98    97    2
    98    45    46    1
    99   106    97   am
   100    47    46   ar
   101    47    49   ar
   102    97    96    1
   103   120   121    1
   104   120   123    1
   105    46    48   ar
   106   121   122    2
   107    49    50   ar
   108   182   183    1
   109   126   124   ar
   110   124   123    1
   111   124   125   ar
   112    48    50   ar
   113    96    95    1
   114    96    99    1
   115    99   100    1
   116    26    25    2
   117   127   128    1
   118   100   101   ar
   119   100   102   ar
   120    14    12    1
   121    25    24    1
   122    84    83    1
   123   135   133   am
   124   129   128    1
   125   129   130    2
   126   131   128    1
   127   131   132    1
   128   101   103   ar
   129   102   104   ar
   130    12    13    1
   131    12     9    1
   132    83    81   ar
   133    83    82   ar
   134   133   132    1
   135   133   134    2
   136    24    23    1
   137    81    79   ar
   138     4     3    2
   139    82    80   ar
   140   103   105   ar
   141     9     8    1
   142     9    10    1
   143   104   105   ar
   144    23    17   am
   145     7     1    1
   146     7     6    1
   147     1     2    1
   148    79    78   ar
   149     3     8   am
   150     3     2    1
   151    15    10   am
   152    15    16    1
   153    17    18    2
   154    17    16    1
   155    75    74    1
   156    75    76    2
   157    80    78   ar
   158    10    11    2
   159    78    77    1
   160    74    73    1
   161    74    77    1
   162     2     5    1
   163    16    19    1
   164    19    20    1
   165     6     5    1
   166    94    92   ar
   167    94    93   ar
   168    20    21    1
   169    22    21    1
   170    92    90   ar
   171    93    91   ar
   172    71    70    2
   173    90    91   ar
   174    90    89    1
   175    70    72   am
   176    70    69    1
   177    89    86    1
   178    69    68    1
   179    67    66    2
   180    87    86    1
   181    87    88    2
   182    86    85    1
   183    68    65    1
   184    66    65    1
   185    65    64    1
