@<TRIPOS>MOLECULE
tmp/3iueB00.pdb
 173 167 0 0 0
SMALL
GASTEIGER

@<TRIPOS>ATOM
      1  N         -3.2270   -7.1310   29.7450 N.3    38  PRO38      -0.2102
      2  CA        -2.4670   -8.2570   29.1940 C.3    38  PRO38       0.1504
      3  C         -2.1190   -9.3160   30.2340 C.2    38  PRO38       0.2576
      4  O         -1.6450   -8.9760   31.3280 O.2    38  PRO38      -0.2718
      5  CB        -1.1720   -7.6250   28.6720 C.3    38  PRO38       0.0282
      6  CG        -1.2610   -6.1190   28.9200 C.3    38  PRO38       0.0208
      7  CD        -2.3960   -5.9220   29.9290 C.3    38  PRO38       0.0893
      8  N         -2.3020  -10.5810   29.8590 N.am   39  THR39      -0.1939
      9  CA        -2.0650  -11.7130   30.7590 C.3    39  THR39       0.2028
     10  C         -1.4620  -12.9020   30.0240 C.2    39  THR39       0.2642
     11  O         -1.4700  -12.9730   28.7990 O.2    39  THR39      -0.2714
     12  CB        -3.3680  -12.2350   31.4710 C.3    39  THR39       0.1808
     13  OG1       -4.0540  -13.1630   30.6280 O.3    39  THR39      -0.2208
     14  CG2       -4.3500  -11.1010   31.8920 C.3    39  THR39       0.0379
     15  N         -0.9980  -13.8730   30.7920 N.am   40  MET40      -0.1962
     16  CA        -0.5850  -15.1260   30.1870 C.3    40  MET40       0.1736
     17  C         -1.4820  -16.2870   30.5590 C.2    40  MET40       0.2617
     18  O         -1.0510  -17.4510   30.5180 O.2    40  MET40      -0.2715
     19  CB         0.8510  -15.4100   30.5530 C.3    40  MET40       0.0427
     20  CG         1.7400  -14.4080   29.9330 C.3    40  MET40       0.0599
     21  SD         3.4550  -14.7800   30.2170 S.3    40  MET40      -0.1393
     22  CE         3.5620  -16.5630   29.9840 C.3    40  MET40       0.0692
     23  N         -2.7430  -15.9800   30.8660 N.am   41  GLY41      -0.1940
     24  CA        -3.7050  -17.0090   31.2620 C.3    41  GLY41       0.2014
     25  C         -3.4390  -17.5190   32.6700 C.2    41  GLY41       0.2638
     26  O         -2.6230  -16.9390   33.4100 O.2    41  GLY41      -0.2714
     27  N         -4.1290  -18.5970   33.0380 N.am   42  ALA42      -0.1977
     28  CA        -4.1050  -19.1100   34.4050 C.3    42  ALA42       0.1597
     29  C         -4.3820  -17.9470   35.3500 C.2    42  ALA42       0.2287
     30  O         -3.5540  -17.5770   36.1850 O.2    42  ALA42      -0.2864
     31  CB        -2.7740  -19.7930   34.7160 C.3    42  ALA42       0.0319
     32  N         -5.6550  -15.3590   38.1320 N.3    44  HIS44      -0.1241
     33  CA        -5.8110  -15.3600   39.5810 C.3    44  HIS44       0.1621
     34  C         -6.3600  -14.0290   40.0710 C.2    44  HIS44       0.2264
     35  O         -6.6410  -13.1330   39.2570 O.2    44  HIS44      -0.2867
     36  CB        -4.5000  -15.7360   40.2850 C.3    44  HIS44       0.0745
     37  CG        -3.3380  -14.8350   39.9730 C.ar   44  HIS44       0.0817
     38  ND1       -3.3620  -13.4730   40.1970 N.ar   44  HIS44      -0.2268
     39  CD2       -2.1020  -15.1100   39.4930 C.ar   44  HIS44       0.1154
     40  CE1       -2.2010  -12.9460   39.8540 C.ar   44  HIS44       0.1986
     41  NE2       -1.4160  -13.9180   39.4270 N.ar   44  HIS44      -0.2212
     42  N         -5.1310  -11.4960   41.3220 N.3    46  GLY46      -0.1210
     43  CA        -4.3640  -10.3400   40.8520 C.3    46  GLY46       0.1956
     44  C         -4.8640   -9.8590   39.4960 C.2    46  GLY46       0.2611
     45  O         -5.1340   -8.6690   39.3040 O.2    46  GLY46      -0.2717
     46  N         -5.0250  -10.7970   38.5770 N.am   47  HIS47      -0.1975
     47  CA        -5.5620  -10.4990   37.2360 C.3    47  HIS47       0.1656
     48  C         -6.9740   -9.9400   37.3680 C.2    47  HIS47       0.2291
     49  O         -7.3130   -8.9530   36.7240 O.2    47  HIS47      -0.2864
     50  CB        -5.5710  -11.7400   36.3530 C.3    47  HIS47       0.0771
     51  CG        -4.2170  -12.3320   36.1260 C.ar   47  HIS47       0.0820
     52  ND1       -3.8040  -13.4900   36.7540 N.ar   47  HIS47      -0.2267
     53  CD2       -3.1760  -11.9220   35.3650 C.ar   47  HIS47       0.1154
     54  CE1       -2.5730  -13.7800   36.3710 C.ar   47  HIS47       0.1986
     55  NE2       -2.1670  -12.8420   35.5300 N.ar   47  HIS47      -0.2212
     56  N         -8.1750   -8.2100   39.9000 N.3    49  ALA49      -0.1231
     57  CA        -8.0050   -6.8250   40.3220 C.3    49  ALA49       0.1694
     58  C         -7.6850   -5.9000   39.1540 C.2    49  ALA49       0.2591
     59  O         -8.1650   -4.7520   39.1550 O.2    49  ALA49      -0.2718
     60  CB        -6.9320   -6.6940   41.4000 C.3    49  ALA49       0.0304
     61  N         -6.9010   -6.3700   38.1750 N.am   50  LEU50      -0.1980
     62  CA        -6.6060   -5.5430   36.9790 C.3    50  LEU50       0.1596
     63  C         -7.8900   -5.3210   36.1750 C.2    50  LEU50       0.2287
     64  O         -8.1860   -4.1980   35.7680 O.2    50  LEU50      -0.2864
     65  CB        -5.5290   -6.1570   36.0810 C.3    50  LEU50       0.0297
     66  CG        -4.2310   -6.6170   36.7570 C.3    50  LEU50       0.0022
     67  CD1       -3.2820   -7.2090   35.7270 C.3    50  LEU50       0.0001
     68  CD2       -3.6010   -5.4700   37.5230 C.3    50  LEU50       0.0001
     69  N          9.6440  -14.4150   26.3820 N.3    72  GLN72      -0.1245
     70  CA         9.9060  -13.9800   27.7590 C.3    72  GLN72       0.1566
     71  C         10.1470  -15.1770   28.6840 C.2    72  GLN72       0.2260
     72  O         11.1940  -15.2770   29.3360 O.2    72  GLN72      -0.2867
     73  CB         8.7390  -13.1390   28.2850 C.3    72  GLN72       0.0367
     74  CG         7.4970  -13.9380   28.6960 C.3    72  GLN72       0.0905
     75  CD         6.5000  -13.0820   29.5030 C.2    72  GLN72       0.2608
     76  OE1        5.6270  -12.4500   28.8990 O.2    72  GLN72      -0.2717
     77  NE2        6.6480  -13.0310   30.8670 N.am   72  GLN72      -0.0878
     78  N          1.8220  -23.4690   32.1180 N.3    73  PRO73      -0.2116
     79  CA         0.4980  -23.5480   32.7290 C.3    73  PRO73       0.1372
     80  C         -0.5820  -22.7740   31.9550 C.2    73  PRO73       0.2244
     81  O         -0.3760  -21.6060   31.5830 O.2    73  PRO73      -0.2868
     82  CB         0.7220  -22.9300   34.1150 C.3    73  PRO73       0.0268
     83  CG         2.1380  -23.3050   34.4540 C.3    73  PRO73       0.0207
     84  CD         2.8950  -23.4190   33.1320 C.3    73  PRO73       0.0892
     85  N          0.0210   -5.1260   37.0970 N.3   148  GLY148     -0.1225
     86  CA         0.2250   -5.1890   38.5430 C.3   148  GLY148      0.1811
     87  C          1.5350   -4.5060   38.9120 C.2   148  GLY148      0.2280
     88  O          2.4740   -4.4410   38.1000 O.2   148  GLY148     -0.2866
     89  N          3.3580   -5.8780   41.1490 N.3   150  LYS150     -0.1231
     90  CA         4.2700   -6.9690   41.6070 C.3   150  LYS150      0.1693
     91  C          5.5460   -7.0130   40.8030 C.2   150  LYS150      0.2592
     92  O          6.6370   -7.0920   41.3640 O.2   150  LYS150     -0.2718
     93  CB         3.6520   -8.3790   41.6430 C.3   150  LYS150      0.0285
     94  CG         4.3270   -9.2410   42.8090 C.3   150  LYS150      0.0035
     95  CD         4.4160  -10.7760   42.6510 C.3   150  LYS150      0.0206
     96  CE         5.7970  -11.2300   42.1940 C.3   150  LYS150      0.1093
     97  NZ         5.8350  -11.5410   40.7020 N.3   150  LYS150     -0.1314
     98  N          5.4100   -6.9640   39.4780 N.am  151  ASP151     -0.1974
     99  CA         6.6030   -6.9480   38.6440 C.3   151  ASP151      0.1709
    100  C          6.9230   -5.4860   38.3780 C.2   151  ASP151      0.2293
    101  O          6.6650   -4.9120   37.3060 O.2   151  ASP151     -0.2864
    102  CB         6.4050   -7.7900   37.3940 C.3   151  ASP151      0.1436
    103  CG         6.1450   -9.2500   37.7380 C.2   151  ASP151      0.3671
    104  OD1        7.0770   -9.9250   38.2200 O.co2 151  ASP151     -0.2456
    105  OD2        5.0000   -9.7010   37.5470 O.co2 151  ASP151     -0.2456
    106  N          9.4250   -4.5180   35.5980 N.3   154  GLN154     -0.1245
    107  CA         8.7110   -4.6490   34.3460 C.3   154  GLN154      0.1566
    108  C          7.8550   -3.4130   34.1120 C.2   154  GLN154      0.2260
    109  O          7.8530   -2.8740   33.0160 O.2   154  GLN154     -0.2867
    110  CB         7.7900   -5.8480   34.3990 C.3   154  GLN154      0.0367
    111  CG         7.0210   -6.0610   33.1140 C.3   154  GLN154      0.0905
    112  CD         6.1220   -7.2480   33.2440 C.2   154  GLN154      0.2608
    113  OE1        6.5800   -8.3730   33.1090 O.2   154  GLN154     -0.2717
    114  NE2        4.8470   -7.0090   33.5620 N.am  154  GLN154     -0.0878
    115  N         -1.4910   -1.1870   39.1700 N.3   174  VAL174     -0.1231
    116  CA        -2.5100   -1.5820   40.1260 C.3   174  VAL174      0.1678
    117  C         -1.7980   -2.2450   41.3210 C.2   174  VAL174      0.2434
    118  O         -0.9420   -3.1340   41.1130 O.2   174  VAL174     -0.2733
    119  CB        -3.5280   -2.5930   39.5130 C.3   174  VAL174      0.0265
    120  CG1       -4.5620   -3.0340   40.5600 C.3   174  VAL174      0.0020
    121  CG2       -4.2590   -1.9950   38.3200 C.3   174  VAL174      0.0020
    122  N         -2.1190   -1.8060   42.5550 N.am  175  PRO175     -0.2718
    123  CA        -1.4280   -2.3870   43.7220 C.3   175  PRO175      0.1535
    124  C         -1.5150   -3.9100   43.7630 C.2   175  PRO175      0.2599
    125  O         -2.5360   -4.4990   43.3920 O.2   175  PRO175     -0.2715
    126  CB        -2.1540   -1.7590   44.9150 C.3   175  PRO175      0.0310
    127  CG        -2.6160   -0.4410   44.3970 C.3   175  PRO175      0.0237
    128  CD        -3.0860   -0.7700   42.9710 C.3   175  PRO175      0.0939
    129  N         -0.4180   -4.5280   44.1900 N.am  176  THR176     -0.1937
    130  CA        -0.2780   -5.9680   44.2370 C.3   176  THR176      0.2028
    131  C         -1.3300   -6.6100   45.1770 C.2   176  THR176      0.2642
    132  O         -1.4390   -6.2430   46.3450 O.2   176  THR176     -0.2714
    133  CB         1.1550   -6.3170   44.6850 C.3   176  THR176      0.1808
    134  OG1        2.0880   -5.7110   43.7740 O.3   176  THR176     -0.2208
    135  CG2        1.3600   -7.8490   44.6950 C.3   176  THR176      0.0379
    136  N         -2.1120   -7.5400   44.6480 N.am  177  VAL177     -0.1977
    137  CA        -3.0140   -8.3370   45.4680 C.3   177  VAL177      0.1596
    138  C         -2.1410   -9.3080   46.2970 C.2   177  VAL177      0.2287
    139  O         -1.1730   -9.8770   45.7910 O.2   177  VAL177     -0.2864
    140  CB        -3.9840   -9.1460   44.6000 C.3   177  VAL177      0.0276
    141  CG1       -4.6730  -10.2130   45.4300 C.3   177  VAL177      0.0022
    142  CG2       -5.0270   -8.2150   43.9150 C.3   177  VAL177      0.0022
    143  N          0.6770  -12.2180   45.5300 N.3   185  MET185     -0.1230
    144  CA         0.0880  -13.2470   44.6830 C.3   185  MET185      0.1702
    145  C          0.9690  -13.5470   43.4700 C.2   185  MET185      0.2593
    146  O          1.5570  -12.6420   42.8760 O.2   185  MET185     -0.2718
    147  CB        -1.3190  -12.8550   44.2510 C.3   185  MET185      0.0401
    148  CG        -2.3710  -13.3010   45.2190 C.3   185  MET185      0.0596
    149  SD        -3.8460  -13.6540   44.2840 S.3   185  MET185     -0.1393
    150  CE        -3.4520  -15.2700   43.6370 C.3   185  MET185      0.0692
    151  N          1.0710  -14.8330   43.1440 N.am  186  SER186     -0.1938
    152  CA         1.9460  -15.3250   42.0730 C.3   186  SER186      0.2055
    153  C          1.5860  -16.7640   41.7200 C.2   186  SER186      0.2644
    154  O          1.2530  -17.5590   42.5950 O.2   186  SER186     -0.2714
    155  CB         3.4200  -15.2640   42.5040 C.3   186  SER186      0.2130
    156  OG         4.2460  -16.0070   41.6290 O.3   186  SER186     -0.2179
    157  N          1.6520  -17.0820   40.4270 N.am  187  SER187     -0.1935
    158  CA         1.4590  -18.4500   39.9520 C.3   187  SER187      0.2055
    159  C          2.4220  -19.4190   40.6400 C.2   187  SER187      0.2642
    160  O          2.1000  -20.5950   40.8080 O.2   187  SER187     -0.2714
    161  CB         1.6420  -18.5320   38.4250 C.3   187  SER187      0.2130
    162  OG         2.9620  -18.1690   38.0220 O.3   187  SER187     -0.2179
    163  N          3.5930  -18.9260   41.0410 N.am  188  ARG188     -0.1977
    164  CA         4.6050  -19.7820   41.6800 C.3   188  ARG188      0.1597
    165  C          4.3070  -20.1900   43.1320 C.2   188  ARG188      0.2287
    166  O          4.9200  -21.1240   43.6450 O.2   188  ARG188     -0.2864
    167  CB         5.9950  -19.1450   41.5850 C.3   188  ARG188      0.0334
    168  CG         6.3130  -18.5840   40.2000 C.3   188  ARG188      0.0492
    169  CD         7.7980  -18.4260   39.9850 C.3   188  ARG188      0.2205
    170  NE         8.1110  -17.8100   38.6930 N.pl3 188  ARG188     -0.0865
    171  CZ         9.3210  -17.3950   38.3200 C.cat 188  ARG188      0.5346
    172  NH1       10.3550  -17.5090   39.1400 N.pl3 188  ARG188      0.1354
    173  NH2        9.5010  -16.8520   37.1220 N.pl3 188  ARG188      0.1354
@<TRIPOS>BOND
     1    69    70    1
     2    70    73    1
     3    70    71    1
     4    73    74    1
     5     5     6    1
     6     5     2    1
     7    71    72    2
     8    74    75    1
     9    11    10    2
    10    76    75    2
    11     6     7    1
    12     2     1    1
    13     2     3    1
    14    75    77   am
    15     1     7    1
    16     8     3   am
    17     8     9    1
    18    20    21    1
    19    20    19    1
    20    22    21    1
    21    10     9    1
    22    10    15   am
    23    16    19    1
    24    16    17    1
    25    16    15    1
    26     3     4    2
    27    18    17    2
    28    17    23   am
    29    13    12    1
    30     9    12    1
    31    23    24    1
    32    24    25    1
    33    12    14    1
    34    81    80    2
    35    80    79    1
    36    78    79    1
    37    78    84    1
    38    25    27   am
    39    25    26    2
    40    79    82    1
    41   109   108    2
    42    27    28    1
    43   113   112    2
    44   111   112    1
    45   111   110    1
    46    84    83    1
    47   112   114   am
    48   108   107    1
    49    82    83    1
    50   107   110    1
    51   107   106    1
    52    28    31    1
    53    28    29    1
    54    29    30    2
    55    53    55   ar
    56    53    51   ar
    57    55    54   ar
    58    67    66    1
    59    64    63    2
    60    65    66    1
    61    65    62    1
    62    51    50    1
    63    51    52   ar
    64    63    62    1
    65    50    47    1
    66    54    52   ar
    67    49    48    2
    68    66    68    1
    69    62    61    1
    70    85    86    1
    71   173   171    1
    72    47    48    1
    73    47    46    1
    74   101   100    2
    75   102   103    1
    76   102    99    1
    77   105   103   ar
    78   103   104   ar
    79   162   161    1
    80    88    87    2
    81    32    33    1
    82    61    58   am
    83   171   170    2
    84   171   172    1
    85   121   119    1
    86   100    99    1
    87   161   158    1
    88    86    87    1
    89    46    44   am
    90    99    98    1
    91   170   169    1
    92    58    59    2
    93    58    57    1
    94   115   116    1
    95    35    34    2
    96    45    44    2
    97    41    39   ar
    98    41    40   ar
    99    98    91   am
   100    39    37   ar
   101    44    43    1
   102   119   116    1
   103   119   120    1
   104    33    34    1
   105    33    36    1
   106    40    38   ar
   107    56    57    1
   108   158   157    1
   109   158   159    1
   110    37    38   ar
   111    37    36    1
   112   169   168    1
   113   116   117    1
   114   168   167    1
   115    57    60    1
   116   157   153   am
   117   159   160    2
   118   159   163   am
   119    97    96    1
   120    91    92    2
   121    91    90    1
   122    43    42    1
   123   163   164    1
   124   118   117    2
   125    89    90    1
   126   117   122   am
   127   167   164    1
   128    90    93    1
   129   156   155    1
   130    93    94    1
   131   164   165    1
   132   153   152    1
   133   153   154    2
   134   152   155    1
   135   152   151    1
   136    96    95    1
   137   122   128    1
   138   122   123    1
   139    95    94    1
   140   146   145    2
   141   128   127    1
   142   165   166    2
   143   151   145   am
   144   125   124    2
   145   145   144    1
   146   150   149    1
   147   123   124    1
   148   123   126    1
   149   124   129   am
   150   134   133    1
   151   142   140    1
   152   129   130    1
   153   130   133    1
   154   130   131    1
   155   147   144    1
   156   147   148    1
   157   149   148    1
   158   127   126    1
   159   140   141    1
   160   140   137    1
   161   136   131   am
   162   136   137    1
   163   144   143    1
   164   133   135    1
   165   131   132    2
   166   137   138    1
   167   139   138    2
