@<TRIPOS>MOLECULE
tmp/3iuqA00.pdb
 130 125 0 0 0
SMALL
GASTEIGER

@<TRIPOS>ATOM
      1  N         47.1030   -9.5300   66.3820 N.3   168  PHE168     -0.1241
      2  CA        47.9980  -10.2840   65.4900 C.3   168  PHE168      0.1605
      3  C         47.8530  -11.7470   65.8420 C.2   168  PHE168      0.2264
      4  O         48.8360  -12.4710   66.0280 O.2   168  PHE168     -0.2867
      5  CB        49.4540   -9.8510   65.6890 C.3   168  PHE168      0.0534
      6  CG        49.6830   -8.3750   65.5110 C.ar  168  PHE168     -0.0203
      7  CD1       49.1380   -7.6940   64.4190 C.ar  168  PHE168     -0.0042
      8  CD2       50.4730   -7.6720   66.4100 C.ar  168  PHE168     -0.0042
      9  CE1       49.3820   -6.3420   64.2240 C.ar  168  PHE168     -0.0003
     10  CE2       50.7280   -6.3100   66.2260 C.ar  168  PHE168     -0.0003
     11  CZ        50.1800   -5.6450   65.1280 C.ar  168  PHE168     -0.0000
     12  N         56.1200  -11.3600   68.2350 N.3   219  TYR219     -0.1241
     13  CA        54.9990  -11.9960   67.5300 C.3   219  TYR219      0.1605
     14  C         55.0090  -13.5220   67.6790 C.2   219  TYR219      0.2264
     15  O         56.0130  -14.1580   67.3810 O.2   219  TYR219     -0.2867
     16  CB        55.0610  -11.6940   66.0210 C.3   219  TYR219      0.0534
     17  CG        55.1190  -10.2190   65.6500 C.ar  219  TYR219     -0.0201
     18  CD1       54.0610   -9.3610   65.9390 C.ar  219  TYR219     -0.0009
     19  CD2       56.2380   -9.6880   65.0110 C.ar  219  TYR219     -0.0009
     20  CE1       54.1150   -8.0060   65.6010 C.ar  219  TYR219      0.0417
     21  CE2       56.3050   -8.3290   64.6660 C.ar  219  TYR219      0.0417
     22  CZ        55.2430   -7.4980   64.9670 C.ar  219  TYR219      0.1957
     23  OH        55.3130   -6.1600   64.6570 O.3   219  TYR219     -0.2866
     24  N         59.4960   -8.9520   60.8150 N.3   239  THR239     -0.1218
     25  CA        58.6780   -9.4310   59.7130 C.3   239  THR239      0.1862
     26  C         59.2490  -10.5960   58.9030 C.2   239  THR239      0.2287
     27  O         58.5520  -11.1690   58.0800 O.2   239  THR239     -0.2866
     28  CB        58.3300   -8.2700   58.7720 C.3   239  THR239      0.1770
     29  OG1       59.5150   -7.5340   58.4690 O.3   239  THR239     -0.2211
     30  CG2       57.3210   -7.3510   59.4360 C.3   239  THR239      0.0375
     31  N         55.8630   -1.2920   45.2950 N.3   444  TYR444     -0.1241
     32  CA        55.8860   -1.5180   46.7420 C.3   444  TYR444      0.1605
     33  C         57.3720   -1.6880   47.0580 C.2   444  TYR444      0.2264
     34  O         58.0110   -0.7740   47.5630 O.2   444  TYR444     -0.2867
     35  CB        55.0920   -2.7930   47.0910 C.3   444  TYR444      0.0534
     36  CG        54.8860   -3.0150   48.5770 C.ar  444  TYR444     -0.0201
     37  CD1       53.9920   -2.2270   49.3100 C.ar  444  TYR444     -0.0009
     38  CD2       55.6070   -3.9950   49.2580 C.ar  444  TYR444     -0.0009
     39  CE1       53.8210   -2.4170   50.7010 C.ar  444  TYR444      0.0417
     40  CE2       55.4480   -4.1900   50.6400 C.ar  444  TYR444      0.0417
     41  CZ        54.5560   -3.4010   51.3510 C.ar  444  TYR444      0.1957
     42  OH        54.4090   -3.6060   52.7030 O.3   444  TYR444     -0.2866
     43  N         59.6760   -6.1890   52.1730 N.3   447  PHE447     -0.1241
     44  CA        59.0780   -7.2180   53.0060 C.3   447  PHE447      0.1605
     45  C         58.7330   -8.5410   52.3260 C.2   447  PHE447      0.2264
     46  O         57.8030   -9.2150   52.7350 O.2   447  PHE447     -0.2867
     47  CB        57.8430   -6.6040   53.6780 C.3   447  PHE447      0.0534
     48  CG        58.1720   -5.3970   54.5180 C.ar  447  PHE447     -0.0203
     49  CD1       58.4760   -5.5340   55.8700 C.ar  447  PHE447     -0.0042
     50  CD2       58.2620   -4.1310   53.9350 C.ar  447  PHE447     -0.0042
     51  CE1       58.8720   -4.4250   56.6320 C.ar  447  PHE447     -0.0003
     52  CE2       58.6580   -3.0130   54.6840 C.ar  447  PHE447     -0.0003
     53  CZ        58.9640   -3.1600   56.0350 C.ar  447  PHE447     -0.0000
     54  N         57.2080   -9.0950   49.8130 N.3   449  VAL449     -0.1245
     55  CA        55.8620   -9.0660   49.2420 C.3   449  VAL449      0.1561
     56  C         55.9280   -9.1270   47.7160 C.2   449  VAL449      0.2260
     57  O         56.6810   -8.3880   47.0970 O.2   449  VAL449     -0.2867
     58  CB        55.1050   -7.7850   49.6640 C.3   449  VAL449      0.0252
     59  CG1       53.8370   -7.6080   48.8110 C.3   449  VAL449      0.0019
     60  CG2       54.7270   -7.8820   51.1460 C.3   449  VAL449      0.0019
     61  N         51.9380    2.6100   51.9280 N.3   524  SER524     -0.1202
     62  CA        52.7150    2.1450   53.0910 C.3   524  SER524      0.2020
     63  C         54.2300    2.0920   52.8530 C.2   524  SER524      0.2618
     64  O         54.9280    3.1050   52.9940 O.2   524  SER524     -0.2717
     65  CB        52.2120    0.7730   53.5260 C.3   524  SER524      0.2103
     66  OG        50.9100    0.8570   54.0780 O.3   524  SER524     -0.2182
     67  N         54.7560    0.9090   52.5490 N.am  525  ASN525     -0.1974
     68  CA        56.1710    0.8230   52.2340 C.3   525  ASN525      0.1688
     69  C         56.2360    1.4230   50.8330 C.2   525  ASN525      0.2292
     70  O         57.2680    1.9430   50.4090 O.2   525  ASN525     -0.2864
     71  CB        56.6810   -0.6240   52.2110 C.3   525  ASN525      0.1181
     72  CG        58.0580   -0.7360   51.5680 C.2   525  ASN525      0.2629
     73  OD1       58.1970   -1.2590   50.4560 O.2   525  ASN525     -0.2716
     74  ND2       59.0760   -0.2150   52.2460 N.am  525  ASN525     -0.0877
     75  N         55.4170    5.4460   55.2050 N.3   550  VAL550     -0.1245
     76  CA        56.3820    5.5700   56.2860 C.3   550  VAL550      0.1561
     77  C         57.2880    6.6270   55.6770 C.2   550  VAL550      0.2260
     78  O         57.9880    6.3590   54.7020 O.2   550  VAL550     -0.2867
     79  CB        57.1810    4.2600   56.4840 C.3   550  VAL550      0.0252
     80  CG1       58.0830    4.3830   57.7000 C.3   550  VAL550      0.0019
     81  CG2       56.2230    3.0830   56.6360 C.3   550  VAL550      0.0019
     82  N         53.6440   -0.3950   65.3080 N.3   561  ALA561     -0.1245
     83  CA        54.1030   -1.6860   64.8100 C.3   561  ALA561      0.1562
     84  C         55.4400   -1.4780   64.1550 C.2   561  ALA561      0.2260
     85  O         56.0110   -2.4270   63.6400 O.2   561  ALA561     -0.2867
     86  CB        53.1340   -2.2460   63.8050 C.3   561  ALA561      0.0290
     87  N         59.6730   -3.7720   62.0560 N.3   565  TRP565     -0.1241
     88  CA        60.1670   -3.7190   60.6750 C.3   565  TRP565      0.1605
     89  C         61.6800   -3.5480   60.5060 C.2   565  TRP565      0.2264
     90  O         62.1570   -3.2700   59.4020 O.2   565  TRP565     -0.2867
     91  CB        59.4700   -2.6030   59.8860 C.3   565  TRP565      0.0550
     92  CG        57.9700   -2.5230   60.0490 C.ar  565  TRP565      0.0003
     93  CD1       57.0910   -3.5620   60.1500 C.ar  565  TRP565      0.0946
     94  CD2       57.1820   -1.3230   60.1130 C.ar  565  TRP565      0.0152
     95  NE1       55.8090   -3.0870   60.2750 N.ar  565  TRP565     -0.2442
     96  CE2       55.8370   -1.7150   60.2550 C.ar  565  TRP565      0.0810
     97  CE3       57.4890    0.0450   60.0590 C.ar  565  TRP565      0.0012
     98  CZ2       54.7910   -0.7840   60.3570 C.ar  565  TRP565      0.0191
     99  CZ3       56.4510    0.9710   60.1580 C.ar  565  TRP565      0.0001
    100  CH2       55.1190    0.5500   60.3040 C.ar  565  TRP565      0.0015
    101  N         64.2500   -2.4270   57.3060 N.3   569  TYR569     -0.1241
    102  CA        64.7690   -1.0550   57.3100 C.3   569  TYR569      0.1605
    103  C         65.9900   -0.7650   58.1640 C.2   569  TYR569      0.2264
    104  O         66.7480    0.1690   57.8650 O.2   569  TYR569     -0.2867
    105  CB        63.6980   -0.0580   57.7870 C.3   569  TYR569      0.0534
    106  CG        62.4160    0.0200   56.9910 C.ar  569  TYR569     -0.0201
    107  CD1       62.4170   -0.1050   55.6080 C.ar  569  TYR569     -0.0009
    108  CD2       61.1980    0.2810   57.6300 C.ar  569  TYR569     -0.0009
    109  CE1       61.2330    0.0290   54.8680 C.ar  569  TYR569      0.0417
    110  CE2       60.0070    0.4140   56.8990 C.ar  569  TYR569      0.0417
    111  CZ        60.0380    0.2850   55.5200 C.ar  569  TYR569      0.1957
    112  OH        58.8740    0.3890   54.7970 O.3   569  TYR569     -0.2866
    113  N         48.5990    0.6680   62.1380 N.3   610  ARG610     -0.1231
    114  CA        49.8040    0.1340   61.5020 C.3   610  ARG610      0.1694
    115  C         50.8610    1.2000   61.1910 C.2   610  ARG610      0.2591
    116  O         52.0000    1.1160   61.6560 O.2   610  ARG610     -0.2718
    117  CB        49.4260   -0.6260   60.2220 C.3   610  ARG610      0.0321
    118  CG        50.5530   -1.4660   59.6350 C.3   610  ARG610      0.0489
    119  CD        51.0670   -2.4680   60.6600 C.3   610  ARG610      0.2205
    120  NE        50.0180   -3.3970   61.0660 N.pl3 610  ARG610     -0.0865
    121  CZ        49.5430   -4.3680   60.2930 C.cat 610  ARG610      0.5346
    122  NH1       50.0280   -4.5430   59.0710 N.pl3 610  ARG610      0.1354
    123  NH2       48.5750   -5.1590   60.7370 N.pl3 610  ARG610      0.1354
    124  N         50.4790    2.1950   60.4010 N.am  611  VAL611     -0.1980
    125  CA        51.3800    3.2850   60.0220 C.3   611  VAL611      0.1595
    126  C         50.7580    4.5770   60.5480 C.2   611  VAL611      0.2287
    127  O         49.7390    5.0300   60.0350 O.2   611  VAL611     -0.2864
    128  CB        51.5220    3.3730   58.4770 C.3   611  VAL611      0.0276
    129  CG1       52.4240    4.5410   58.0970 C.3   611  VAL611      0.0022
    130  CG2       52.0690    2.0470   57.9220 C.3   611  VAL611      0.0022
@<TRIPOS>BOND
     1    31    32    1
     2    32    33    1
     3    32    35    1
     4    33    34    2
     5    35    36    1
     6    57    56    2
     7    56    55    1
     8    36    38   ar
     9    36    37   ar
    10    59    58    1
    11    55    58    1
    12    55    54    1
    13    38    40   ar
    14    37    39   ar
    15    58    60    1
    16    70    69    2
    17    73    72    2
    18    40    41   ar
    19    39    41   ar
    20    69    68    1
    21    41    42    1
    22    72    71    1
    23    72    74   am
    24    61    62    1
    25    43    44    1
    26    71    68    1
    27    68    67    1
    28    45    46    2
    29    45    44    1
    30    67    63   am
    31    63    64    2
    32    63    62    1
    33    44    47    1
    34    62    65    1
    35    65    66    1
    36    47    48    1
    37    50    48   ar
    38    50    52   ar
    39    48    49   ar
    40    52    53   ar
    41    78    77    2
    42   112   111    1
    43   109   111   ar
    44   109   107   ar
    45    75    76    1
    46   111   110   ar
    47   107   106   ar
    48    77    76    1
    49    49    51   ar
    50    53    51   ar
    51    76    79    1
    52    79    81    1
    53    79    80    1
    54   110   108   ar
    55   106   108   ar
    56   106   105    1
    57   101   102    1
    58   102   105    1
    59   102   103    1
    60   104   103    2
    61   130   128    1
    62    27    26    2
    63   129   128    1
    64    29    28    1
    65   128   125    1
    66    28    30    1
    67    28    25    1
    68    26    25    1
    69   122   121    1
    70    90    89    2
    71   118   117    1
    72   118   119    1
    73    25    24    1
    74    91    92    1
    75    91    88    1
    76   125   124    1
    77   125   126    1
    78   127   126    2
    79    92    94   ar
    80    92    93   ar
    81    97    94   ar
    82    97    99   ar
    83    94    96   ar
    84    93    95   ar
    85    99   100   ar
    86   117   114    1
    87    96    95   ar
    88    96    98   ar
    89   121   123    1
    90   121   120    2
    91   100    98   ar
    92   124   115   am
    93    89    88    1
    94   119   120    1
    95    88    87    1
    96   115   114    1
    97   115   116    2
    98   114   113    1
    99    85    84    2
   100    86    83    1
   101    84    83    1
   102     9     7   ar
   103     9    11   ar
   104     7     6   ar
   105    23    22    1
   106    21    22   ar
   107    21    19   ar
   108    83    82    1
   109    22    20   ar
   110    19    17   ar
   111    11    10   ar
   112     2     5    1
   113     2     3    1
   114     2     1    1
   115     6     5    1
   116     6     8   ar
   117    20    18   ar
   118    17    18   ar
   119    17    16    1
   120     3     4    2
   121    16    13    1
   122    10     8   ar
   123    15    14    2
   124    13    14    1
   125    13    12    1
