@<TRIPOS>MOLECULE
tmp/3iurA00.pdb
 148 143 0 0 0
SMALL
GASTEIGER

@<TRIPOS>ATOM
      1  N         28.6100   54.7980   12.8420 N.3   240  SER240     -0.1217
      2  CA        29.5840   55.5560   13.6020 C.3   240  SER240      0.1889
      3  C         30.0240   56.8440   12.9150 C.2   240  SER240      0.2288
      4  O         30.6620   56.8240   11.8620 O.2   240  SER240     -0.2866
      5  CB        30.8040   54.6920   13.9030 C.3   240  SER240      0.2089
      6  OG        31.4810   54.3500   12.7130 O.3   240  SER240     -0.2183
      7  N         34.3410   61.3700   12.2450 N.3   264  ASP264     -0.1225
      8  CA        35.0350   60.8240   13.4130 C.3   264  ASP264      0.1805
      9  C         34.2600   60.8370   14.7250 C.2   264  ASP264      0.2598
     10  O         34.7330   60.3300   15.7350 O.2   264  ASP264     -0.2718
     11  CB        36.3710   61.5480   13.6140 C.3   264  ASP264      0.1424
     12  CG        37.2790   61.4530   12.3920 C.2   264  ASP264      0.3668
     13  OD1       37.2980   60.3810   11.7470 O.co2 264  ASP264     -0.2456
     14  OD2       37.9780   62.4460   12.0830 O.co2 264  ASP264     -0.2456
     15  N         33.0740   61.4220   14.7250 N.am  265  ALA265     -0.1966
     16  CA        32.3050   61.4710   15.9540 C.3   265  ALA265      0.1728
     17  C         30.8500   61.7150   15.6390 C.2   265  ALA265      0.2616
     18  O         30.5060   62.1640   14.5460 O.2   265  ALA265     -0.2715
     19  CB        32.8310   62.5860   16.8440 C.3   265  ALA265      0.0334
     20  N         29.9990   61.4140   16.6090 N.am  266  ASP266     -0.1971
     21  CA        28.5730   61.6410   16.4740 C.3   266  ASP266      0.1709
     22  C         28.2710   63.0320   17.0140 C.2   266  ASP266      0.2293
     23  O         28.8370   63.4460   18.0230 O.2   266  ASP266     -0.2864
     24  CB        27.8030   60.5990   17.2910 C.3   266  ASP266      0.1436
     25  CG        28.1350   59.1860   16.8660 C.2   266  ASP266      0.3671
     26  OD1       27.9080   58.8490   15.6820 O.co2 266  ASP266     -0.2456
     27  OD2       28.6350   58.4160   17.7060 O.co2 266  ASP266     -0.2456
     28  N         29.8920   63.2210   20.9360 N.3   282  ASN282     -0.1225
     29  CA        30.8640   62.3980   21.6410 C.3   282  ASN282      0.1785
     30  C         32.2650   62.7110   21.0820 C.2   282  ASN282      0.2597
     31  O         33.2180   61.9680   21.3110 O.2   282  ASN282     -0.2718
     32  CB        30.5370   60.8910   21.5420 C.3   282  ASN282      0.1169
     33  CG        30.6270   60.3480   20.1350 C.2   282  ASN282      0.2627
     34  OD1       31.0260   61.0380   19.2000 O.2   282  ASN282     -0.2716
     35  ND2       30.2560   59.0860   19.9810 N.am  282  ASN282     -0.0877
     36  N         32.3860   63.8260   20.3530 N.am  283  ARG283     -0.1966
     37  CA        33.6860   64.2340   19.8020 C.3   283  ARG283      0.1729
     38  C         34.6310   64.5130   20.9740 C.2   283  ARG283      0.2616
     39  O         34.3640   65.3890   21.8110 O.2   283  ARG283     -0.2715
     40  CB        33.5470   65.4980   18.9390 C.3   283  ARG283      0.0348
     41  CG        34.7750   65.7480   18.0310 C.3   283  ARG283      0.0492
     42  CD        34.6960   67.0870   17.2860 C.3   283  ARG283      0.2205
     43  NE        35.8500   67.2670   16.4050 N.pl3 283  ARG283     -0.0865
     44  CZ        36.0050   66.6480   15.2340 C.cat 283  ARG283      0.5346
     45  NH1       35.0790   65.8120   14.7790 N.pl3 283  ARG283      0.1354
     46  NH2       37.1110   66.8300   14.5350 N.pl3 283  ARG283      0.1354
     47  N         35.7270   63.7580   21.0320 N.am  284  ASP284     -0.1957
     48  CA        36.7100   63.8640   22.1160 C.3   284  ASP284      0.1840
     49  C         36.0260   63.6450   23.4660 C.2   284  ASP284      0.2622
     50  O         36.5160   64.1100   24.4900 O.2   284  ASP284     -0.2715
     51  CB        37.3810   65.2470   22.1340 C.3   284  ASP284      0.1450
     52  CG        38.0400   65.5970   20.8120 C.2   284  ASP284      0.3671
     53  OD1       38.7630   64.7410   20.2560 O.co2 284  ASP284     -0.2456
     54  OD2       37.8340   66.7350   20.3330 O.co2 284  ASP284     -0.2456
     55  N         34.8950   62.9440   23.4740 N.am  285  ALA285     -0.1964
     56  CA        34.1680   62.7290   24.7270 C.3   285  ALA285      0.1713
     57  C         33.2730   61.5040   24.5980 C.2   285  ALA285      0.2458
     58  O         32.0810   61.6120   24.2790 O.2   285  ALA285     -0.2730
     59  CB        33.3300   63.9690   25.0480 C.3   285  ALA285      0.0333
     60  N         33.8370   60.3150   24.8480 N.am  286  PRO286     -0.2716
     61  CA        33.0450   59.0930   24.7310 C.3   286  PRO286      0.1536
     62  C         31.7480   59.0630   25.5420 C.2   286  PRO286      0.2598
     63  O         30.7900   58.4190   25.1350 O.2   286  PRO286     -0.2715
     64  CB        34.0340   57.9950   25.1480 C.3   286  PRO286      0.0310
     65  CG        35.3780   58.5690   24.6750 C.3   286  PRO286      0.0237
     66  CD        35.2530   60.0130   25.1500 C.3   286  PRO286      0.0939
     67  N         31.7100   59.7530   26.6780 N.am  287  ASN287     -0.1973
     68  CA        30.5050   59.7510   27.5020 C.3   287  ASN287      0.1688
     69  C         29.5540   60.8700   27.1060 C.2   287  ASN287      0.2292
     70  O         28.5040   61.0360   27.7240 O.2   287  ASN287     -0.2864
     71  CB        30.8790   59.8740   28.9850 C.3   287  ASN287      0.1181
     72  CG        31.7700   58.7380   29.4490 C.2   287  ASN287      0.2629
     73  OD1       32.6390   58.9210   30.3040 O.2   287  ASN287     -0.2716
     74  ND2       31.5580   57.5600   28.8860 N.am  287  ASN287     -0.0877
     75  N         31.9190   61.0220   33.9520 N.3   311  GLN311     -0.1231
     76  CA        32.1660   59.5930   33.8970 C.3   311  GLN311      0.1698
     77  C         30.9300   58.8560   33.3580 C.2   311  GLN311      0.2592
     78  O         31.0430   57.8240   32.6870 O.2   311  GLN311     -0.2718
     79  CB        32.5120   59.0870   35.2950 C.3   311  GLN311      0.0381
     80  CG        32.8720   57.6060   35.3450 C.3   311  GLN311      0.0905
     81  CD        33.0170   57.1380   36.7810 C.2   311  GLN311      0.2608
     82  OE1       32.0780   57.2100   37.5610 O.2   311  GLN311     -0.2717
     83  NE2       34.1960   56.6830   37.1360 N.am  311  GLN311     -0.0878
     84  N         29.7480   59.3910   33.6510 N.am  312  GLN312     -0.1966
     85  CA        28.5050   58.7740   33.1950 C.3   312  GLN312      0.1733
     86  C         28.0730   59.3140   31.8340 C.2   312  GLN312      0.2616
     87  O         28.2910   60.4900   31.5310 O.2   312  GLN312     -0.2715
     88  CB        27.3840   59.0210   34.2070 C.3   312  GLN312      0.0408
     89  CG        27.6860   58.5410   35.6260 C.3   312  GLN312      0.0908
     90  CD        28.4960   59.5600   36.4030 C.2   312  GLN312      0.2608
     91  OE1       28.5770   60.7460   36.0270 O.2   312  GLN312     -0.2717
     92  NE2       29.0810   59.1220   37.5000 N.am  312  GLN312     -0.0878
     93  N         27.4420   58.4570   31.0330 N.am  313  VAL313     -0.1977
     94  CA        26.9770   58.8510   29.7100 C.3   313  VAL313      0.1596
     95  C         25.8170   59.8510   29.8130 C.2   313  VAL313      0.2287
     96  O         24.8150   59.6140   30.4980 O.2   313  VAL313     -0.2864
     97  CB        26.5390   57.6120   28.8950 C.3   313  VAL313      0.0276
     98  CG1       25.9130   58.0400   27.5600 C.3   313  VAL313      0.0022
     99  CG2       27.7490   56.7120   28.6420 C.3   313  VAL313      0.0022
    100  N         30.6700   46.3300   29.3240 N.3   448  ASP448     -0.1239
    101  CA        30.2760   47.7170   29.5670 C.3   448  ASP448      0.1674
    102  C         28.7500   47.8500   29.6370 C.2   448  ASP448      0.2266
    103  O         28.1930   48.9190   29.4020 O.2   448  ASP448     -0.2867
    104  CB        30.8490   48.6230   28.4600 C.3   448  ASP448      0.1410
    105  CG        31.0280   50.0700   28.9190 C.2   448  ASP448      0.3668
    106  OD1       31.4370   50.2840   30.0790 O.co2 448  ASP448     -0.2456
    107  OD2       30.7740   50.9960   28.1180 O.co2 448  ASP448     -0.2456
    108  N         28.9480   48.7090   32.7940 N.3   478  GLY478     -0.1225
    109  CA        29.0700   50.1100   32.4040 C.3   478  GLY478      0.1811
    110  C         28.5560   51.1100   33.4230 C.2   478  GLY478      0.2280
    111  O         28.1910   52.2330   33.0580 O.2   478  GLY478     -0.2866
    112  N         30.2180   52.7350   35.7120 N.3   480  TYR480     -0.1227
    113  CA        31.1450   53.8360   35.9940 C.3   480  TYR480      0.1736
    114  C         31.9000   54.2050   34.7100 C.2   480  TYR480      0.2596
    115  O         31.2790   54.5870   33.7230 O.2   480  TYR480     -0.2718
    116  CB        32.0910   53.4470   37.1430 C.3   480  TYR480      0.0548
    117  CG        31.3300   53.2160   38.4380 C.ar  480  TYR480     -0.0200
    118  CD1       30.9190   54.2930   39.2310 C.ar  480  TYR480     -0.0009
    119  CD2       30.9000   51.9300   38.7980 C.ar  480  TYR480     -0.0009
    120  CE1       30.0870   54.1000   40.3390 C.ar  480  TYR480      0.0417
    121  CE2       30.0670   51.7280   39.9000 C.ar  480  TYR480      0.0417
    122  CZ        29.6640   52.8150   40.6610 C.ar  480  TYR480      0.1957
    123  OH        28.8120   52.6280   41.7230 O.3   480  TYR480     -0.2866
    124  N         33.2180   54.0810   34.7060 N.am  481  GLY481     -0.1942
    125  CA        33.9750   54.4190   33.5110 C.3   481  GLY481      0.2014
    126  C         34.6640   53.2190   32.8890 C.2   481  GLY481      0.2638
    127  O         34.3110   52.0660   33.1740 O.2   481  GLY481     -0.2714
    128  N         35.6720   53.4760   32.0590 N.am  482  GLN482     -0.1977
    129  CA        36.3840   52.3900   31.3870 C.3   482  GLN482      0.1601
    130  C         37.1480   51.4800   32.3480 C.2   482  GLN482      0.2287
    131  O         37.2160   50.2720   32.1320 O.2   482  GLN482     -0.2864
    132  CB        37.3580   52.9430   30.3350 C.3   482  GLN482      0.0394
    133  CG        37.7280   51.9120   29.2720 C.3   482  GLN482      0.0908
    134  CD        38.8930   52.3380   28.3860 C.2   482  GLN482      0.2608
    135  OE1       39.1150   51.7620   27.3140 O.2   482  GLN482     -0.2717
    136  NE2       39.6520   53.3370   28.8360 N.am  482  GLN482     -0.0878
    137  N         37.2030   40.7700   22.8500 N.3   567  TYR567     -0.1241
    138  CA        37.7440   41.8940   23.6010 C.3   567  TYR567      0.1605
    139  C         37.5620   41.7340   25.0980 C.2   567  TYR567      0.2264
    140  O         38.4550   42.0660   25.8820 O.2   567  TYR567     -0.2867
    141  CB        37.1010   43.2120   23.1900 C.3   567  TYR567      0.0534
    142  CG        37.6890   44.3800   23.9560 C.ar  567  TYR567     -0.0201
    143  CD1       38.9340   44.9120   23.6060 C.ar  567  TYR567     -0.0009
    144  CD2       37.0200   44.9310   25.0530 C.ar  567  TYR567     -0.0009
    145  CE1       39.4980   45.9670   24.3270 C.ar  567  TYR567      0.0417
    146  CE2       37.5750   45.9840   25.7850 C.ar  567  TYR567      0.0417
    147  CZ        38.8120   46.4990   25.4140 C.ar  567  TYR567      0.1957
    148  OH        39.3550   47.5550   26.1130 O.3   567  TYR567     -0.2866
@<TRIPOS>BOND
     1    13    12   ar
     2     4     3    2
     3    14    12   ar
     4     7     8    1
     5    12    11    1
     6     6     5    1
     7     1     2    1
     8     3     2    1
     9     8    11    1
    10     8     9    1
    11     2     5    1
    12    46    44    1
    13    18    17    2
    14    15     9   am
    15    15    16    1
    16     9    10    2
    17    45    44    1
    18    44    43    2
    19    17    16    1
    20    17    20   am
    21    26    25   ar
    22    16    19    1
    23    43    42    1
    24    21    20    1
    25    21    22    1
    26    21    24    1
    27    25    24    1
    28    25    27   ar
    29    22    23    2
    30    42    41    1
    31    41    40    1
    32    40    37    1
    33    34    33    2
    34    37    36    1
    35    37    38    1
    36    35    33   am
    37    33    32    1
    38    53    52   ar
    39    54    52   ar
    40    36    30   am
    41    52    51    1
    42    28    29    1
    43    38    47   am
    44    38    39    2
    45    47    48    1
    46    30    31    2
    47    30    29    1
    48    32    29    1
    49    48    51    1
    50    48    49    1
    51   137   138    1
    52   141   138    1
    53   141   142    1
    54    49    55   am
    55    49    50    2
    56    55    56    1
    57   138   139    1
    58   143   142   ar
    59   143   145   ar
    60   142   144   ar
    61    58    57    2
    62   145   147   ar
    63    57    56    1
    64    57    60   am
    65    65    64    1
    66    65    66    1
    67    56    59    1
    68    61    60    1
    69    61    64    1
    70    61    62    1
    71    60    66    1
    72   144   146   ar
    73   139   140    2
    74    63    62    2
    75   147   146   ar
    76   147   148    1
    77    62    67   am
    78    67    68    1
    79    69    68    1
    80    69    70    2
    81   135   134    2
    82    68    71    1
    83    98    97    1
    84   107   105   ar
    85   134   136   am
    86   134   133    1
    87   104   105    1
    88   104   101    1
    89    99    97    1
    90    74    72   am
    91    97    94    1
    92   105   106   ar
    93    71    72    1
    94   133   132    1
    95   100   101    1
    96   103   102    2
    97    72    73    2
    98   101   102    1
    99    94    95    1
   100    94    93    1
   101    95    96    2
   102   132   129    1
   103    93    86   am
   104   129   128    1
   105   129   130    1
   106    87    86    2
   107    86    85    1
   108   128   126   am
   109   131   130    2
   110   109   108    1
   111   109   110    1
   112    78    77    2
   113   126   127    2
   114   126   125    1
   115   111   110    2
   116    85    84    1
   117    85    88    1
   118    77    84   am
   119    77    76    1
   120   125   124    1
   121   115   114    2
   122    76    75    1
   123    76    79    1
   124    88    89    1
   125   124   114   am
   126   114   113    1
   127    79    80    1
   128    80    81    1
   129    89    90    1
   130   112   113    1
   131   113   116    1
   132    91    90    2
   133    90    92   am
   134    81    83   am
   135    81    82    2
   136   116   117    1
   137   117   119   ar
   138   117   118   ar
   139   119   121   ar
   140   118   120   ar
   141   121   122   ar
   142   120   122   ar
   143   122   123    1
