@<TRIPOS>MOLECULE
tmp/3iutA00.pdb
 133 128 0 0 0
SMALL
GASTEIGER

@<TRIPOS>ATOM
      1  N         13.9340    9.4970   11.8140 N.3    19  GLN19      -0.1245
      2  CA        13.5150   10.3160   10.7150 C.3    19  GLN19       0.1566
      3  C         13.9950   11.7760   10.8820 C.2    19  GLN19       0.2260
      4  O         13.9690   12.5410    9.9150 O.2    19  GLN19      -0.2867
      5  CB        11.9830   10.2860   10.5400 C.3    19  GLN19       0.0367
      6  CG        11.1850   10.9290   11.6650 C.3    19  GLN19       0.0905
      7  CD         9.7030   10.7560   11.4440 C.2    19  GLN19       0.2608
      8  OE1        9.1440    9.7300   11.7860 O.2    19  GLN19      -0.2717
      9  NE2        9.0700   11.7520   10.8020 N.am   19  GLN19      -0.0878
     10  N          9.3330   15.3120    7.6220 N.3    23  GLY23      -0.1225
     11  CA         8.0350   14.6210    7.6590 C.3    23  GLY23       0.1811
     12  C          7.9980   13.3740    6.7570 C.2    23  GLY23       0.2280
     13  O          7.1950   13.2780    5.8370 O.2    23  GLY23      -0.2866
     14  N          7.7220   10.0770    7.9450 N.3    25  CYS25      -0.1221
     15  CA         7.2630    8.8500    8.6150 C.3    25  CYS25       0.1808
     16  C          6.7100    7.8290    7.6140 C.2    25  CYS25       0.2601
     17  O          6.8630    6.6250    7.7940 O.2    25  CYS25      -0.2717
     18  CB         6.2250    9.1540    9.6820 C.3    25  CYS25       0.0970
     19  SG         4.6850    9.9040    9.0310 S.3    25  CYS25      -0.0800
     20  N          5.9880    8.2900    6.5870 N.am   26  TRP26      -0.1976
     21  CA         5.3950    7.4500    5.5470 C.3    26  TRP26       0.1640
     22  C          6.4600    6.5400    4.9000 C.2    26  TRP26       0.2290
     23  O          6.1790    5.4010    4.5610 O.2    26  TRP26      -0.2864
     24  CB         4.6960    8.3540    4.5080 C.3    26  TRP26       0.0576
     25  CG         5.6080    9.3180    3.8210 C.ar   26  TRP26       0.0006
     26  CD1        6.0000   10.5510    4.2790 C.ar   26  TRP26       0.0946
     27  CD2        6.2990    9.1280    2.5760 C.ar   26  TRP26       0.0152
     28  NE1        6.8980   11.1200    3.4070 N.ar   26  TRP26      -0.2442
     29  CE2        7.0670   10.2760    2.3440 C.ar   26  TRP26       0.0810
     30  CE3        6.3280    8.1050    1.6290 C.ar   26  TRP26       0.0012
     31  CZ2        7.8960   10.4190    1.2280 C.ar   26  TRP26       0.0191
     32  CZ3        7.1230    8.2550    0.4990 C.ar   26  TRP26       0.0001
     33  CH2        7.8980    9.4130    0.3070 C.ar   26  TRP26       0.0015
     34  N          5.5180   10.8290   -6.4700 N.3    59  THR59      -0.1203
     35  CA         4.1070   10.6750   -6.1650 C.3    59  THR59       0.1994
     36  C          3.8030   10.9110   -4.7060 C.2    59  THR59       0.2618
     37  O          2.6270   10.9330   -4.3090 O.2    59  THR59      -0.2717
     38  CB         3.5590    9.3020   -6.5890 C.3    59  THR59       0.1784
     39  OG1        3.9040    8.2930   -5.6500 O.3    59  THR59      -0.2211
     40  CG2        4.0890    8.9420   -8.0040 C.3    59  THR59       0.0376
     41  N          4.8520   11.1040   -3.9070 N.am   60  ASP60      -0.1959
     42  CA         4.7530   11.5220   -2.5090 C.3    60  ASP60       0.1840
     43  C          5.4070   12.9030   -2.3950 C.2    60  ASP60       0.2622
     44  O          5.8820   13.4580   -3.3870 O.2    60  ASP60      -0.2715
     45  CB         5.2700   10.4390   -1.5850 C.3    60  ASP60       0.1450
     46  CG         4.2750    9.2740   -1.5220 C.2    60  ASP60       0.3671
     47  OD1        3.1550    9.5440   -1.0280 O.co2  60  ASP60      -0.2456
     48  OD2        4.5610    8.1060   -1.9840 O.co2  60  ASP60      -0.2456
     49  N          5.4790   13.4450   -1.1820 N.am   61  SER61      -0.1950
     50  CA         5.8030   14.8470   -0.9850 C.3    61  SER61       0.1924
     51  C          7.0220   15.0420   -0.0880 C.2    61  SER61       0.2314
     52  O          7.1300   16.0520    0.6180 O.2    61  SER61      -0.2863
     53  CB         4.5970   15.6800   -0.4920 C.3    61  SER61       0.2116
     54  OG         3.4760   15.5070   -1.3560 O.3    61  SER61      -0.2180
     55  N          9.7280   15.5840    2.5490 N.3    63  CYS63      -0.1221
     56  CA         9.6000   15.9520    3.9490 C.3    63  CYS63       0.1808
     57  C          8.2980   16.6140    4.3310 C.2    63  CYS63       0.2602
     58  O          8.0960   16.9080    5.5240 O.2    63  CYS63      -0.2717
     59  CB        10.7440   16.8610    4.3540 C.3    63  CYS63       0.0970
     60  SG        12.3820   15.9570    4.4090 S.3    63  CYS63      -0.0800
     61  N          7.3850   16.7710    3.3630 N.am   64  SER64      -0.1938
     62  CA         6.0340   17.2340    3.6060 C.3    64  SER64       0.2055
     63  C          4.9740   16.1320    3.6410 C.2    64  SER64       0.2644
     64  O          3.7660   16.4370    3.6200 O.2    64  SER64      -0.2714
     65  CB         5.6620   18.3460    2.6370 C.3    64  SER64       0.2130
     66  OG         6.5830   19.4290    2.8060 O.3    64  SER64      -0.2179
     67  N          5.3670   14.8570    3.6160 N.am   65  GLY65      -0.1939
     68  CA         4.4630   13.7820    3.8700 C.3    65  GLY65       0.2014
     69  C          4.1880   12.9280    2.6470 C.2    65  GLY65       0.2639
     70  O          4.6850   13.1700    1.5390 O.2    65  GLY65      -0.2714
     71  N          3.4070   11.8770    2.8660 N.am   66  GLY66      -0.1939
     72  CA         3.0590   10.9550    1.7700 C.3    66  GLY66       0.2014
     73  C          2.1280    9.8710    2.2690 C.2    66  GLY66       0.2639
     74  O          1.5450    9.9690    3.3610 O.2    66  GLY66      -0.2714
     75  N          2.0030    8.8150    1.4910 N.am   67  LEU67      -0.1963
     76  CA         1.1510    7.6530    1.7780 C.3    67  LEU67       0.1728
     77  C          1.9800    6.3960    1.5660 C.2    67  LEU67       0.2616
     78  O          2.6450    6.2550    0.5360 O.2    67  LEU67      -0.2715
     79  CB        -0.0500    7.6140    0.8490 C.3    67  LEU67       0.0311
     80  CG        -1.0990    8.6750    0.9580 C.3    67  LEU67       0.0022
     81  CD1       -2.0990    8.5980   -0.2010 C.3    67  LEU67       0.0001
     82  CD2       -1.7670    8.6480    2.3560 C.3    67  LEU67       0.0001
     83  N          1.9440    5.4540    2.5120 N.am   68  MET68      -0.1977
     84  CA         2.6330    4.2120    2.3200 C.3    68  MET68       0.1605
     85  C          2.1500    3.5200    1.0620 C.2    68  MET68       0.2287
     86  O          2.9790    2.9370    0.3350 O.2    68  MET68      -0.2864
     87  CB         2.4820    3.3030    3.5530 C.3    68  MET68       0.0413
     88  CG         3.1570    3.8240    4.8160 C.3    68  MET68       0.0598
     89  SD         2.2740    5.1460    5.7290 S.3    68  MET68      -0.1393
     90  CE         1.1510    4.1500    6.7060 C.3    68  MET68       0.0692
     91  N          1.0460    4.8740   -1.7350 N.3    70  ASN70      -0.1240
     92  CA         1.6770    5.5070   -2.8960 C.3    70  ASN70       0.1653
     93  C          3.1320    5.0520   -3.0300 C.2    70  ASN70       0.2266
     94  O          3.5900    4.7860   -4.1370 O.2    70  ASN70      -0.2867
     95  CB         1.6930    7.0440   -2.7980 C.3    70  ASN70       0.1155
     96  CG         0.3920    7.7290   -3.1800 C.2    70  ASN70       0.2627
     97  OD1       -0.6370    7.1270   -3.3470 O.2    70  ASN70      -0.2716
     98  ND2        0.4840    9.0450   -3.3440 N.am   70  ASN70      -0.0877
     99  N         -1.1020    3.5190    9.5230 N.3   138  ALA138     -0.1245
    100  CA        -1.2800    4.8890    9.9440 C.3   138  ALA138      0.1562
    101  C         -1.9420    4.9040   11.3390 C.2   138  ALA138      0.2260
    102  O         -2.8290    4.1230   11.6530 O.2   138  ALA138     -0.2867
    103  CB        -2.1270    5.6830    8.9160 C.3   138  ALA138      0.0290
    104  N         -5.6120   10.5900   11.7060 N.3   160  LEU160     -0.1231
    105  CA        -4.3980    9.8990   11.2860 C.3   160  LEU160      0.1693
    106  C         -3.3570   10.9510   10.9590 C.2   160  LEU160      0.2592
    107  O         -3.6290   11.9020   10.1600 O.2   160  LEU160     -0.2718
    108  CB        -4.7140    9.0310   10.0830 C.3   160  LEU160      0.0284
    109  CG        -5.6340    7.8450   10.3170 C.3   160  LEU160      0.0019
    110  CD1       -5.9010    7.1960    8.9330 C.3   160  LEU160      0.0001
    111  CD2       -5.0650    6.8140   11.3090 C.3   160  LEU160      0.0001
    112  N         -2.1620   10.8450   11.5330 N.am  161  ASP161     -0.1960
    113  CA        -1.1170   11.8320   11.3420 C.3   161  ASP161      0.1840
    114  C          0.3030   11.2220   11.3350 C.2   161  ASP161      0.2622
    115  O          1.3030   11.9680   11.2380 O.2   161  ASP161     -0.2715
    116  CB        -1.2170   12.9520   12.3840 C.3   161  ASP161      0.1450
    117  CG        -0.9270   12.4840   13.7960 C.2   161  ASP161      0.3671
    118  OD1       -1.1140   13.2920   14.7400 O.co2 161  ASP161     -0.2456
    119  OD2       -0.5030   11.3650   13.9980 O.co2 161  ASP161     -0.2456
    120  N          0.4480    9.8970   11.3550 N.am  162  HIS162     -0.1959
    121  CA         1.7500    9.2780   11.5130 C.3   162  HIS162      0.1787
    122  C          1.6870    7.8550   10.9240 C.2   162  HIS162      0.2620
    123  O          0.6110    7.2270   10.8680 O.2   162  HIS162     -0.2715
    124  CB         2.1380    9.2730   12.9880 C.3   162  HIS162      0.0785
    125  CG         3.5160    8.8060   13.2800 C.ar  162  HIS162      0.0821
    126  ND1        4.6000    9.1770   12.5020 N.ar  162  HIS162     -0.2267
    127  CD2        4.0320    8.1080   14.3060 C.ar  162  HIS162      0.1154
    128  CE1        5.7020    8.6250   12.9910 C.ar  162  HIS162      0.1986
    129  NE2        5.3840    7.9850   14.1110 N.ar  162  HIS162     -0.2212
    130  N          2.8150    7.3660   10.4290 N.am  163  GLY163     -0.1954
    131  CA         2.9940    6.0310    9.8790 C.3   163  GLY163      0.1869
    132  C          4.0490    5.2600   10.6270 C.2   163  GLY163      0.2309
    133  O          5.1380    5.8010   10.8430 O.2   163  GLY163     -0.2863
@<TRIPOS>BOND
     1    40    38    1
     2    38    35    1
     3    38    39    1
     4    34    35    1
     5    35    36    1
     6    36    37    2
     7    36    41   am
     8    94    93    2
     9    41    42    1
    10    44    43    2
    11    97    96    2
    12    98    96   am
    13    96    95    1
    14    93    92    1
    15    92    95    1
    16    92    91    1
    17    42    43    1
    18    42    45    1
    19    43    49   am
    20    48    46   ar
    21    45    46    1
    22    46    47   ar
    23    54    53    1
    24    49    50    1
    25    50    53    1
    26    50    51    1
    27    81    80    1
    28    51    52    2
    29    33    32   ar
    30    33    31   ar
    31    86    85    2
    32    32    30   ar
    33    78    77    2
    34    79    80    1
    35    79    76    1
    36    80    82    1
    37    85    84    1
    38    31    29   ar
    39    75    76    1
    40    75    73   am
    41    70    69    2
    42    77    76    1
    43    77    83   am
    44    30    27   ar
    45    72    73    1
    46    72    71    1
    47    73    74    2
    48    84    83    1
    49    84    87    1
    50    29    27   ar
    51    29    28   ar
    52    55    56    1
    53    27    25   ar
    54    65    66    1
    55    65    62    1
    56    69    71   am
    57    69    68    1
    58    61    62    1
    59    61    57   am
    60    28    26   ar
    61    87    88    1
    62    62    63    1
    63    67    63   am
    64    67    68    1
    65    64    63    2
    66    25    26   ar
    67    25    24    1
    68    56    57    1
    69    56    59    1
    70    57    58    2
    71    59    60    1
    72    24    21    1
    73    23    22    2
    74    88    89    1
    75    22    21    1
    76    21    20    1
    77    89    90    1
    78    13    12    2
    79    20    16   am
    80    12    11    1
    81    16    17    2
    82    16    15    1
    83    10    11    1
    84    14    15    1
    85    15    18    1
    86   103   100    1
    87   110   109    1
    88    19    18    1
    89    99   100    1
    90   131   130    1
    91   131   132    1
    92     4     3    2
    93   100   101    1
    94   108   109    1
    95   108   105    1
    96   107   106    2
    97   109   111    1
    98   130   122   am
    99     5     2    1
   100     5     6    1
   101   132   133    2
   102     2     3    1
   103     2     1    1
   104     9     7   am
   105   123   122    2
   106   122   121    1
   107   106   105    1
   108   106   112   am
   109   115   114    2
   110   105   104    1
   111   114   113    1
   112   114   120   am
   113   101   102    2
   114   113   112    1
   115   113   116    1
   116   120   121    1
   117     7     6    1
   118     7     8    2
   119   121   124    1
   120   116   117    1
   121   126   128   ar
   122   126   125   ar
   123   124   125    1
   124   128   129   ar
   125   125   127   ar
   126   117   119   ar
   127   117   118   ar
   128   129   127   ar
