@<TRIPOS>MOLECULE
tmp/3iuuA02.pdb
 102 99 0 0 0
SMALL
GASTEIGER

@<TRIPOS>ATOM
      1  N          2.8180    8.1330  189.4970 N.3    26  LYS26      -0.1231
      2  CA         4.2900    8.0600  189.5420 C.3    26  LYS26       0.1693
      3  C          5.0000    9.2290  188.9150 C.2    26  LYS26       0.2592
      4  O          6.1170    9.5180  189.2810 O.2    26  LYS26      -0.2718
      5  CB         4.7970    6.8780  188.7240 C.3    26  LYS26       0.0285
      6  CG         4.8610    5.5670  189.4380 C.3    26  LYS26       0.0035
      7  CD         5.2990    4.4560  188.4400 C.3    26  LYS26       0.0206
      8  CE         6.7910    4.4870  188.1360 C.3    26  LYS26       0.1093
      9  NZ         7.4910    3.2530  188.6680 N.3    26  LYS26      -0.1314
     10  N          4.4140    9.8170  187.8880 N.am   27  ASP27      -0.1960
     11  CA         5.0670   10.9100  187.1750 C.3    27  ASP27       0.1840
     12  C          5.0350   12.2420  187.9520 C.2    27  ASP27       0.2622
     13  O          5.7870   13.1650  187.6330 O.2    27  ASP27      -0.2715
     14  CB         4.4250   11.0480  185.7750 C.3    27  ASP27       0.1450
     15  CG         4.6140    9.7990  184.9380 C.2    27  ASP27       0.3671
     16  OD1        5.7830    9.3990  184.8260 O.co2  27  ASP27      -0.2456
     17  OD2        3.5950    9.2110  184.4480 O.co2  27  ASP27      -0.2456
     18  N          4.1990   12.3110  188.9830 N.am   28  PHE28      -0.1960
     19  CA         4.0270   13.4970  189.7920 C.3    28  PHE28       0.1771
     20  C          4.9250   13.5680  191.0090 C.2    28  PHE28       0.2619
     21  O          5.1660   12.5880  191.6710 O.2    28  PHE28      -0.2715
     22  CB         2.5850   13.5940  190.3140 C.3    28  PHE28       0.0574
     23  CG         1.6300   14.1780  189.3240 C.ar   28  PHE28      -0.0200
     24  CD1        1.4170   15.5410  189.2760 C.ar   28  PHE28      -0.0042
     25  CD2        0.9830   13.3710  188.4130 C.ar   28  PHE28      -0.0042
     26  CE1        0.5420   16.0860  188.3610 C.ar   28  PHE28      -0.0003
     27  CE2        0.1110   13.9060  187.4930 C.ar   28  PHE28      -0.0003
     28  CZ        -0.0900   15.2730  187.4570 C.ar   28  PHE28      -0.0000
     29  N          5.3540   14.7770  191.3150 N.am   29  LEU29      -0.1977
     30  CA         5.8120   15.1210  192.6370 C.3    29  LEU29       0.1596
     31  C          4.6850   15.8660  193.3650 C.2    29  LEU29       0.2287
     32  O          4.2340   16.9150  192.8820 O.2    29  LEU29      -0.2864
     33  CB         7.0430   16.0140  192.4820 C.3    29  LEU29       0.0297
     34  CG         7.9380   16.1370  193.7130 C.3    29  LEU29       0.0022
     35  CD1        9.3090   16.7120  193.3330 C.3    29  LEU29       0.0001
     36  CD2        7.2320   17.0110  194.7130 C.3    29  LEU29       0.0001
     37  N          6.0150   16.2760  184.5400 N.3    70  ARG70      -0.1245
     38  CA         6.5000   16.7020  183.2270 C.3    70  ARG70       0.1563
     39  C          5.3710   16.6650  182.2100 C.2    70  ARG70       0.2260
     40  O          4.4300   15.9130  182.3770 O.2    70  ARG70      -0.2867
     41  CB         7.6820   15.8190  182.7290 C.3    70  ARG70       0.0307
     42  CG         7.3090   14.4540  182.1100 C.3    70  ARG70       0.0489
     43  CD         6.5580   13.5790  183.1060 C.3    70  ARG70       0.2205
     44  NE         6.0580   12.3320  182.5630 N.pl3  70  ARG70      -0.0865
     45  CZ         4.8830   12.1750  181.9440 C.cat  70  ARG70       0.5346
     46  NH1        4.0590   13.2010  181.7410 N.pl3  70  ARG70       0.1354
     47  NH2        4.5290   10.9670  181.5220 N.pl3  70  ARG70       0.1354
     48  N         20.3410    4.7300  187.3400 N.3   367  ARG367     -0.1245
     49  CA        19.1090    5.4860  187.4710 C.3   367  ARG367      0.1563
     50  C         19.2640    6.8610  186.8220 C.2   367  ARG367      0.2260
     51  O         20.2390    7.5440  187.0960 O.2   367  ARG367     -0.2867
     52  CB        18.7810    5.6470  188.9500 C.3   367  ARG367      0.0307
     53  CG        17.4210    6.2940  189.1970 C.3   367  ARG367      0.0489
     54  CD        16.3250    5.2700  189.1260 C.3   367  ARG367      0.2205
     55  NE        15.0290    5.9040  189.2670 N.pl3 367  ARG367     -0.0865
     56  CZ        13.8940    5.2550  189.5230 C.cat 367  ARG367      0.5346
     57  NH1       13.8810    3.9310  189.6430 N.pl3 367  ARG367      0.1354
     58  NH2       12.7600    5.9310  189.6340 N.pl3 367  ARG367      0.1354
     59  N         18.5440    9.8880  187.4130 N.3   369  ARG369     -0.1245
     60  CA        18.2190   10.8350  188.4510 C.3   369  ARG369      0.1563
     61  C         19.3450   11.8770  188.5600 C.2   369  ARG369      0.2260
     62  O         20.5080   11.5170  188.5410 O.2   369  ARG369     -0.2867
     63  CB        18.0950   10.0350  189.7520 C.3   369  ARG369      0.0307
     64  CG        17.9690   10.8520  191.0280 C.3   369  ARG369      0.0489
     65  CD        16.5660   10.9160  191.5860 C.3   369  ARG369      0.2205
     66  NE        16.6100   10.8180  193.0430 N.pl3 369  ARG369     -0.0865
     67  CZ        15.6500   11.2360  193.8750 C.cat 369  ARG369      0.5346
     68  NH1       14.5330   11.8200  193.4050 N.pl3 369  ARG369      0.1354
     69  NH2       15.8180   11.0640  195.1960 N.pl3 369  ARG369      0.1354
     70  N         15.3110   18.7720  190.9520 N.3   380  GLU380     -0.1231
     71  CA        15.7000   17.3850  190.7830 C.3   380  GLU380      0.1699
     72  C         14.8180   16.7010  189.7320 C.2   380  GLU380      0.2592
     73  O         13.6830   17.0710  189.5570 O.2   380  GLU380     -0.2718
     74  CB        15.6170   16.6790  192.1250 C.3   380  GLU380      0.0402
     75  CG        16.2150   15.2630  192.0920 C.3   380  GLU380      0.1161
     76  CD        16.6220   14.7870  193.4660 C.2   380  GLU380      0.3649
     77  OE1       16.0000   15.2920  194.4550 O.co2 380  GLU380     -0.2457
     78  OE2       17.5630   13.9360  193.5470 O.co2 380  GLU380     -0.2457
     79  N         15.3640   15.7430  188.9930 N.am  381  ALA381     -0.1966
     80  CA        14.6170   15.0660  187.9740 C.3   381  ALA381      0.1728
     81  C         14.8900   13.5940  188.1140 C.2   381  ALA381      0.2616
     82  O         15.9370   13.1820  188.6260 O.2   381  ALA381     -0.2715
     83  CB        15.0170   15.5630  186.6040 C.3   381  ALA381      0.0334
     84  N         13.9300   12.7850  187.6780 N.am  382  ASP382     -0.1957
     85  CA        14.1010   11.3470  187.7240 C.3   382  ASP382      0.1840
     86  C         13.3550   10.7180  186.5600 C.2   382  ASP382      0.2622
     87  O         12.1150   10.6370  186.5860 O.2   382  ASP382     -0.2715
     88  CB        13.6000   10.7890  189.0740 C.3   382  ASP382      0.1450
     89  CG        13.6960    9.2600  189.1670 C.2   382  ASP382      0.3671
     90  OD1       14.4230    8.6270  188.3740 O.co2 382  ASP382     -0.2456
     91  OD2       13.0330    8.6700  190.0410 O.co2 382  ASP382     -0.2456
     92  N         14.0890   10.2750  185.5460 N.am  383  PHE383     -0.1974
     93  CA        13.4640    9.6250  184.4110 C.3   383  PHE383      0.1639
     94  C         13.4860    8.0770  184.5040 C.2   383  PHE383      0.2290
     95  O         13.3560    7.4000  183.4890 O.2   383  PHE383     -0.2864
     96  CB        14.0940   10.1230  183.0990 C.3   383  PHE383      0.0560
     97  CG        14.2110   11.6230  183.0030 C.ar  383  PHE383     -0.0200
     98  CD1       13.2380   12.4660  183.5570 C.ar  383  PHE383     -0.0042
     99  CD2       15.3180   12.2000  182.3710 C.ar  383  PHE383     -0.0042
    100  CE1       13.3340   13.8640  183.4390 C.ar  383  PHE383     -0.0003
    101  CE2       15.4420   13.6020  182.2630 C.ar  383  PHE383     -0.0003
    102  CZ        14.4340   14.4310  182.8020 C.ar  383  PHE383     -0.0000
@<TRIPOS>BOND
     1    47    45    1
     2    46    45    1
     3    45    44    2
     4    42    41    1
     5    42    43    1
     6    39    40    2
     7    39    38    1
     8   101    99   ar
     9   101   102   ar
    10    99    97   ar
    11    44    43    1
    12    41    38    1
    13   102   100   ar
    14    97    96    1
    15    97    98   ar
    16    96    93    1
    17    38    37    1
    18   100    98   ar
    19    95    94    2
    20    93    94    1
    21    93    92    1
    22    17    15   ar
    23    16    15   ar
    24    15    14    1
    25    92    86   am
    26    14    11    1
    27    86    87    2
    28    86    85    1
    29    83    80    1
    30    50    51    2
    31    50    49    1
    32    11    10    1
    33    11    12    1
    34    48    49    1
    35    59    60    1
    36    28    27   ar
    37    28    26   ar
    38    49    52    1
    39    27    25   ar
    40    13    12    2
    41    84    85    1
    42    84    81   am
    43    85    88    1
    44    10     3   am
    45    12    18   am
    46    80    81    1
    47    80    79    1
    48    81    82    2
    49     8     7    1
    50     8     9    1
    51    26    24   ar
    52    90    89   ar
    53    25    23   ar
    54     7     6    1
    55    60    61    1
    56    60    63    1
    57    62    61    2
    58     5     6    1
    59     5     2    1
    60     3     4    2
    61     3     2    1
    62    52    53    1
    63    18    19    1
    64    79    72   am
    65    88    89    1
    66    54    53    1
    67    54    55    1
    68    89    91   ar
    69    55    56    2
    70    24    23   ar
    71    23    22    1
    72     1     2    1
    73    56    58    1
    74    56    57    1
    75    73    72    2
    76    72    71    1
    77    63    64    1
    78    19    22    1
    79    19    20    1
    80    71    70    1
    81    71    74    1
    82    20    29   am
    83    20    21    2
    84    64    65    1
    85    29    30    1
    86    65    66    1
    87    75    74    1
    88    75    76    1
    89    33    30    1
    90    33    34    1
    91    30    31    1
    92    32    31    2
    93    66    67    2
    94    35    34    1
    95    68    67    1
    96    76    78   ar
    97    76    77   ar
    98    34    36    1
    99    67    69    1
