@<TRIPOS>MOLECULE
tmp/3iuuA00.pdb
 77 74 0 0 0
SMALL
GASTEIGER

@<TRIPOS>ATOM
      1  N         -4.1410   44.4810  195.0150 N.3   174  SER174     -0.1202
      2  CA        -4.6320   45.7410  194.4890 C.3   174  SER174      0.2020
      3  C         -6.1610   45.8250  194.3990 C.2   174  SER174      0.2618
      4  O         -6.7120   46.9350  194.3720 O.2   174  SER174     -0.2717
      5  CB        -4.0490   45.9870  193.1090 C.3   174  SER174      0.2103
      6  OG        -4.7100   45.1780  192.1530 O.3   174  SER174     -0.2182
      7  N         -6.8250   44.6780  194.2890 N.am  175  LEU175     -0.1979
      8  CA        -8.2840   44.6120  194.1680 C.3   175  LEU175      0.1596
      9  C         -9.0300   44.5610  195.5410 C.2   175  LEU175      0.2287
     10  O        -10.2620   44.6330  195.5940 O.2   175  LEU175     -0.2864
     11  CB        -8.6880   43.3900  193.3120 C.3   175  LEU175      0.0297
     12  CG        -8.3160   43.4480  191.8300 C.3   175  LEU175      0.0022
     13  CD1       -8.5960   42.0980  191.1710 C.3   175  LEU175      0.0001
     14  CD2       -9.0330   44.6250  191.1300 C.3   175  LEU175      0.0001
     15  N        -12.1910   46.8260  196.2510 N.3   178  GLU178     -0.1231
     16  CA       -13.0730   47.0220  195.1210 C.3   178  GLU178      0.1699
     17  C        -14.4050   46.4410  195.4520 C.2   178  GLU178      0.2593
     18  O        -14.4920   45.3160  195.9420 O.2   178  GLU178     -0.2718
     19  CB       -12.4980   46.3660  193.8600 C.3   178  GLU178      0.0402
     20  CG       -11.3120   47.1170  193.3410 C.3   178  GLU178      0.1161
     21  CD       -11.6450   48.5680  193.0390 C.2   178  GLU178      0.3649
     22  OE1      -12.7760   48.7960  192.5680 O.co2 178  GLU178     -0.2457
     23  OE2      -10.7970   49.4730  193.2310 O.co2 178  GLU178     -0.2457
     24  N        -15.4520   47.2110  195.1540 N.am  179  THR179     -0.1939
     25  CA       -16.8190   46.7950  195.4410 C.3   179  THR179      0.2028
     26  C        -17.3540   45.7730  194.4250 C.2   179  THR179      0.2642
     27  O        -18.4520   45.2480  194.6220 O.2   179  THR179     -0.2714
     28  CB       -17.7830   48.0400  195.5970 C.3   179  THR179      0.1808
     29  OG1      -17.7740   48.8550  194.4160 O.3   179  THR179     -0.2208
     30  CG2      -17.3760   48.9120  196.8100 C.3   179  THR179      0.0379
     31  N        -16.5610   45.4870  193.3720 N.am  180  ARG180     -0.1963
     32  CA       -16.9000   44.5310  192.2910 C.3   180  ARG180      0.1714
     33  C        -15.6490   43.8930  191.6630 C.2   180  ARG180      0.2458
     34  O        -14.5880   44.4790  191.7000 O.2   180  ARG180     -0.2730
     35  CB       -17.6350   45.2640  191.1620 C.3   180  ARG180      0.0347
     36  CG       -19.1410   45.0740  191.1900 C.3   180  ARG180      0.0492
     37  CD       -19.8780   46.0480  190.2310 C.3   180  ARG180      0.2205
     38  NE       -19.6660   47.4510  190.6150 N.pl3 180  ARG180     -0.0865
     39  CZ       -20.5120   48.4560  190.3850 C.cat 180  ARG180      0.5346
     40  NH1      -21.6850   48.2650  189.7730 N.pl3 180  ARG180      0.1354
     41  NH2      -20.1740   49.6740  190.7900 N.pl3 180  ARG180      0.1354
     42  N        -15.7870   42.7110  191.0470 N.am  181  PRO181     -0.2716
     43  CA       -14.6520   42.1350  190.3470 C.3   181  PRO181      0.1521
     44  C        -14.3970   42.9120  189.0750 C.2   181  PRO181      0.2440
     45  O        -15.2900   43.5930  188.5710 O.2   181  PRO181     -0.2731
     46  CB       -15.1050   40.7210  190.0260 C.3   181  PRO181      0.0310
     47  CG       -16.5370   40.8020  189.9580 C.3   181  PRO181      0.0237
     48  CD       -16.9970   41.9070  190.8630 C.3   181  PRO181      0.0939
     49  N        -13.1660   42.8470  188.5720 N.am  182  PRO182     -0.2727
     50  CA       -12.8310   43.6310  187.3860 C.3   182  PRO182      0.1402
     51  C        -13.5260   43.0600  186.1450 C.2   182  PRO182      0.2269
     52  O        -13.8230   41.8760  186.0820 O.2   182  PRO182     -0.2865
     53  CB       -11.3180   43.4950  187.2940 C.3   182  PRO182      0.0296
     54  CG       -11.0260   42.1660  187.9890 C.3   182  PRO182      0.0237
     55  CD       -12.0960   41.9330  188.9900 C.3   182  PRO182      0.0939
     56  N         -6.1620   47.2810  183.9880 N.3   221  VAL221     -0.1245
     57  CA        -5.7130   46.6100  185.1910 C.3   221  VAL221      0.1561
     58  C         -4.6290   45.5890  184.8400 C.2   221  VAL221      0.2260
     59  O         -3.6140   45.5190  185.5280 O.2   221  VAL221     -0.2867
     60  CB        -6.8580   45.9440  185.9350 C.3   221  VAL221      0.0252
     61  CG1       -6.3300   44.9400  186.9620 C.3   221  VAL221      0.0019
     62  CG2       -7.7920   47.0080  186.6090 C.3   221  VAL221      0.0019
     63  N        -11.6330   48.3860  184.9270 N.3   246  ASN246     -0.1240
     64  CA       -12.6830   48.6470  185.9480 C.3   246  ASN246      0.1653
     65  C        -14.1380   48.6910  185.4080 C.2   246  ASN246      0.2266
     66  O        -15.0510   49.1140  186.1200 O.2   246  ASN246     -0.2867
     67  CB       -12.3670   49.9600  186.7030 C.3   246  ASN246      0.1155
     68  CG       -12.6710   51.1990  185.8910 C.2   246  ASN246      0.2627
     69  OD1      -12.8670   51.1500  184.6620 O.2   246  ASN246     -0.2716
     70  ND2      -12.7330   52.3290  186.5770 N.am  246  ASN246     -0.0877
     71  N        -20.1490   46.4090  183.7900 N.3   483  VAL483     -0.1245
     72  CA       -20.5180   47.3520  184.8260 C.3   483  VAL483      0.1561
     73  C        -21.4000   48.4260  184.1860 C.2   483  VAL483      0.2260
     74  O        -22.5980   48.5230  184.4900 O.2   483  VAL483     -0.2867
     75  CB       -19.2450   48.0160  185.4100 C.3   483  VAL483      0.0252
     76  CG1      -19.5790   49.3200  186.1240 C.3   483  VAL483      0.0019
     77  CG2      -18.4380   47.0180  186.3230 C.3   483  VAL483      0.0019
@<TRIPOS>BOND
     1    71    72    1
     2    56    57    1
     3    73    74    2
     4    73    72    1
     5    69    68    2
     6    72    75    1
     7    58    57    1
     8    58    59    2
     9    63    64    1
    10    57    60    1
    11    65    64    1
    12    65    66    2
    13    75    76    1
    14    75    77    1
    15    68    70   am
    16    68    67    1
    17    60    62    1
    18    60    61    1
    19    64    67    1
    20    52    51    2
    21    51    50    1
    22    53    50    1
    23    53    54    1
    24    50    49    1
    25    54    55    1
    26    45    44    2
    27    49    55    1
    28    49    44   am
    29    44    43    1
    30    40    39    1
    31    47    46    1
    32    47    48    1
    33    46    43    1
    34    37    38    1
    35    37    36    1
    36    43    42    1
    37    39    38    2
    38    39    41    1
    39    48    42    1
    40    42    33   am
    41    14    12    1
    42    35    36    1
    43    35    32    1
    44    13    12    1
    45    33    34    2
    46    33    32    1
    47    12    11    1
    48     6     5    1
    49    32    31    1
    50    22    21   ar
    51    21    23   ar
    52    21    20    1
    53     5     2    1
    54    11     8    1
    55    20    19    1
    56    31    26   am
    57    19    16    1
    58     8     7    1
    59     8     9    1
    60     7     3   am
    61     4     3    2
    62     3     2    1
    63    29    28    1
    64    26    27    2
    65    26    25    1
    66     2     1    1
    67    16    17    1
    68    16    15    1
    69    24    25    1
    70    24    17   am
    71    25    28    1
    72    17    18    2
    73     9    10    2
    74    28    30    1
