@<TRIPOS>MOLECULE
tmp/3iuxA00.pdb
 135 131 0 0 0
SMALL
GASTEIGER

@<TRIPOS>ATOM
      1  N         -7.1150   16.1840   10.2260 N.3    25  LYS25      -0.1245
      2  CA        -6.5190   17.2890   10.9990 C.3    25  LYS25       0.1561
      3  C         -5.4470   16.7510   11.9630 C.2    25  LYS25       0.2260
      4  O         -4.3660   17.3460   12.0830 O.2    25  LYS25      -0.2867
      5  CB        -7.5820   18.0630   11.7600 C.3    25  LYS25       0.0271
      6  CG        -7.0230   19.3130   12.4890 C.3    25  LYS25       0.0035
      7  CD        -8.1430   20.1930   13.0320 C.3    25  LYS25       0.0206
      8  CE        -7.5930   21.4890   13.6970 C.3    25  LYS25       0.1093
      9  NZ        -8.6990   22.5060   13.9340 N.3    25  LYS25      -0.1314
     10  N         -2.2540   15.7220    9.9100 N.3    28  LEU28      -0.1231
     11  CA        -1.4650   16.8890    9.5490 C.3    28  LEU28       0.1693
     12  C         -0.7820   17.4460   10.7990 C.2    28  LEU28       0.2592
     13  O          0.3820   17.8680   10.7200 O.2    28  LEU28      -0.2718
     14  CB        -2.3380   17.9740    8.8890 C.3    28  LEU28       0.0284
     15  CG        -2.5130   17.9000    7.3520 C.3    28  LEU28       0.0019
     16  CD1       -1.1860   18.3110    6.6390 C.3    28  LEU28       0.0001
     17  CD2       -2.8900   16.4840    6.8550 C.3    28  LEU28       0.0001
     18  N         -1.4940   17.4320   11.9370 N.am   29  PHE29      -0.1976
     19  CA        -0.9340   18.0410   13.1350 C.3    29  PHE29       0.1639
     20  C          0.3430   17.2780   13.5820 C.2    29  PHE29       0.2290
     21  O          1.4040   17.8640   13.8410 O.2    29  PHE29      -0.2864
     22  CB        -1.9350   18.0120   14.2900 C.3    29  PHE29       0.0560
     23  CG        -1.3470   18.5750   15.5490 C.ar   29  PHE29      -0.0200
     24  CD1       -1.1910   19.9510   15.6890 C.ar   29  PHE29      -0.0042
     25  CD2       -0.8650   17.7300   16.5290 C.ar   29  PHE29      -0.0042
     26  CE1       -0.6080   20.4850   16.8590 C.ar   29  PHE29      -0.0003
     27  CE2       -0.2630   18.2520   17.7110 C.ar   29  PHE29      -0.0003
     28  CZ        -0.1510   19.6280   17.8530 C.ar   29  PHE29      -0.0000
     29  N          2.1640   15.1060   11.8970 N.3    31  LEU31      -0.1231
     30  CA         3.2220   15.1660   10.8920 C.3    31  LEU31       0.1693
     31  C          4.0070   16.4820   10.9510 C.2    31  LEU31       0.2592
     32  O          5.2640   16.5000   10.8830 O.2    31  LEU31      -0.2718
     33  CB         2.6100   14.9330    9.5130 C.3    31  LEU31       0.0284
     34  CG         3.5830   14.9800    8.3630 C.3    31  LEU31       0.0019
     35  CD1        4.7070   13.9020    8.5050 C.3    31  LEU31       0.0001
     36  CD2        2.7720   14.7070    7.0770 C.3    31  LEU31       0.0001
     37  N          3.2740   17.5780   11.1310 N.am   32  GLY32      -0.1957
     38  CA         3.9480   18.8670   11.2320 C.3    32  GLY32       0.1869
     39  C          4.7890   18.8960   12.5040 C.2    32  GLY32       0.2309
     40  O          5.9150   19.3830   12.4630 O.2    32  GLY32      -0.2863
     41  N          8.1380   16.9960   12.1550 N.3    35  ILE35      -0.1245
     42  CA         9.1780   17.7670   11.4330 C.3    35  ILE35       0.1561
     43  C          9.7410   18.8470   12.3120 C.2    35  ILE35       0.2260
     44  O         10.9740   19.0980   12.3640 O.2    35  ILE35      -0.2867
     45  CB         8.5470   18.3840   10.1810 C.3    35  ILE35       0.0252
     46  CG1        8.1990   17.2550    9.2070 C.3    35  ILE35       0.0019
     47  CG2        9.5380   19.4070    9.5210 C.3    35  ILE35       0.0019
     48  CD1        7.2340   17.7380    8.1440 C.3    35  ILE35       0.0001
     49  N         12.2880   28.2130    5.7230 N.3    46  GLN46      -0.1231
     50  CA        11.7310   27.1850    6.6370 C.3    46  GLN46       0.1698
     51  C         10.6140   26.3300    6.0560 C.2    46  GLN46       0.2592
     52  O         10.1130   25.4360    6.7430 O.2    46  GLN46      -0.2718
     53  CB        11.3010   27.8210    7.9760 C.3    46  GLN46       0.0381
     54  CG        12.4680   28.5190    8.6860 C.3    46  GLN46       0.0905
     55  CD        12.2870   28.5970   10.1810 C.2    46  GLN46       0.2608
     56  OE1       11.2570   28.2210   10.7610 O.2    46  GLN46      -0.2717
     57  NE2       13.3540   29.0090   10.8410 N.am   46  GLN46      -0.0878
     58  N         10.2360   26.5780    4.8100 N.am   47  HIS47      -0.1976
     59  CA         9.3310   25.6820    4.1090 C.3    47  HIS47       0.1656
     60  C         10.0900   24.5130    3.5130 C.2    47  HIS47       0.2291
     61  O          9.4690   23.5810    3.0170 O.2    47  HIS47      -0.2864
     62  CB         8.5670   26.4510    3.0160 C.3    47  HIS47       0.0771
     63  CG         9.4630   27.1170    2.0050 C.ar   47  HIS47       0.0820
     64  ND1        9.8250   26.4920    0.8310 N.ar   47  HIS47      -0.2267
     65  CD2       10.1300   28.2910    2.0450 C.ar   47  HIS47       0.1154
     66  CE1       10.6370   27.2960    0.1530 C.ar   47  HIS47       0.1986
     67  NE2       10.8500   28.3850    0.8700 N.ar   47  HIS47      -0.2212
     68  N          7.5390    9.2720    2.0360 N.3    60  PHE60      -0.1241
     69  CA         7.2190   10.2110    0.9530 C.3    60  PHE60       0.1605
     70  C          7.8950    9.8690   -0.3700 C.2    60  PHE60       0.2264
     71  O          7.3640   10.2200   -1.4540 O.2    60  PHE60      -0.2867
     72  CB         7.6210   11.6400    1.3650 C.3    60  PHE60       0.0534
     73  CG         6.5320   12.4000    2.1320 C.ar   60  PHE60      -0.0203
     74  CD1        5.3540   11.7530    2.5560 C.ar   60  PHE60      -0.0042
     75  CD2        6.7250   13.7490    2.4780 C.ar   60  PHE60      -0.0042
     76  CE1        4.3590   12.4700    3.2750 C.ar   60  PHE60      -0.0003
     77  CE2        5.7120   14.4720    3.2010 C.ar   60  PHE60      -0.0003
     78  CZ         4.5410   13.7860    3.6010 C.ar   60  PHE60      -0.0000
     79  N         11.4510   18.4550    0.3310 N.3    65  PHE65      -0.1241
     80  CA        10.2920   19.0590   -0.2900 C.3    65  PHE65       0.1605
     81  C         10.1100   20.4300    0.2470 C.2    65  PHE65       0.2264
     82  O         10.7460   20.7720    1.2200 O.2    65  PHE65      -0.2867
     83  CB         8.9750   18.2590   -0.0890 C.3    65  PHE65       0.0534
     84  CG         8.5690   18.0420    1.3460 C.ar   65  PHE65      -0.0203
     85  CD1        7.7470   19.0010    2.0180 C.ar   65  PHE65      -0.0042
     86  CD2        8.9760   16.8920    2.0390 C.ar   65  PHE65      -0.0042
     87  CE1        7.3640   18.7920    3.3620 C.ar   65  PHE65      -0.0003
     88  CE2        8.6060   16.6720    3.3810 C.ar   65  PHE65      -0.0003
     89  CZ         7.7930   17.6570    4.0550 C.ar   65  PHE65      -0.0000
     90  N          7.1370   22.9540    1.6080 N.3    67  VAL67      -0.1231
     91  CA         5.7820   22.9610    2.1600 C.3    67  VAL67       0.1692
     92  C          4.8790   23.8090    1.2650 C.2    67  VAL67       0.2591
     93  O          3.6510   23.6000    1.3200 O.2    67  VAL67      -0.2718
     94  CB         5.7900   23.5260    3.6080 C.3    67  VAL67       0.0266
     95  CG1        4.3810   23.6610    4.1890 C.3    67  VAL67       0.0020
     96  CG2        6.5540   22.5950    4.5590 C.3    67  VAL67       0.0020
     97  N          5.4590   24.7600    0.4900 N.am   68  LYS68      -0.1980
     98  CA         4.6660   25.6500   -0.3870 C.3    68  LYS68       0.1596
     99  C          3.9450   24.8680   -1.5130 C.2    68  LYS68       0.2287
    100  O          2.9760   25.3960   -2.1000 O.2    68  LYS68      -0.2864
    101  CB         5.5750   26.6920   -1.0490 C.3    68  LYS68       0.0298
    102  CG         6.1570   27.7120   -0.0920 C.3    68  LYS68       0.0038
    103  CD         7.1930   28.4890   -0.9490 C.3    68  LYS68       0.0206
    104  CE         7.4140   29.8430   -0.4550 C.3    68  LYS68       0.1093
    105  NZ         8.4090   30.5160   -1.3620 N.3    68  LYS68      -0.1314
    106  N          1.4580   22.7630   -2.2000 N.3    70  HIS70      -0.1241
    107  CA         0.4370   22.1990   -1.3690 C.3    70  HIS70       0.1621
    108  C         -0.1280   20.9080   -1.9070 C.2    70  HIS70       0.2264
    109  O         -0.2720   19.9510   -1.1410 O.2    70  HIS70      -0.2867
    110  CB        -0.6740   23.2330   -1.1120 C.3    70  HIS70       0.0745
    111  CG        -0.2190   24.3990   -0.2990 C.ar   70  HIS70       0.0817
    112  ND1       -0.9720   25.5540   -0.1820 N.ar   70  HIS70      -0.2268
    113  CD2        0.9120   24.6080    0.4220 C.ar   70  HIS70       0.1154
    114  CE1       -0.3120   26.4260    0.5760 C.ar   70  HIS70       0.1986
    115  NE2        0.8220   25.8710    0.9630 N.ar   70  HIS70      -0.2212
    116  N          2.2920   17.9290   -1.4450 N.3    73  ILE73      -0.1231
    117  CA         2.3880   17.3670   -0.0910 C.3    73  ILE73       0.1692
    118  C          1.1530   16.5750    0.2390 C.2    73  ILE73       0.2592
    119  O          1.2850   15.4560    0.7170 O.2    73  ILE73      -0.2718
    120  CB         2.5300   18.5560    0.9780 C.3    73  ILE73       0.0266
    121  CG1        3.7380   19.4840    0.6980 C.3    73  ILE73       0.0019
    122  CG2        2.7270   17.9700    2.3610 C.3    73  ILE73       0.0020
    123  CD1        4.9480   18.8600    0.0870 C.3    73  ILE73       0.0001
    124  N         -0.0480   17.0990   -0.0920 N.am   74  TYR74      -0.1976
    125  CA        -1.2640   16.3300    0.2130 C.3    74  TYR74       0.1639
    126  C         -1.2620   15.0020   -0.5530 C.2    74  TYR74       0.2290
    127  O         -1.6620   13.9700    0.0130 O.2    74  TYR74      -0.2864
    128  CB        -2.5510   17.0910   -0.0680 C.3    74  TYR74       0.0560
    129  CG        -2.9880   17.8750    1.1320 C.ar   74  TYR74      -0.0198
    130  CD1       -3.6650   17.2670    2.1830 C.ar   74  TYR74      -0.0009
    131  CD2       -2.6820   19.2280    1.2280 C.ar   74  TYR74      -0.0009
    132  CE1       -4.0610   18.0160    3.3350 C.ar   74  TYR74       0.0417
    133  CE2       -3.0690   19.9910    2.3770 C.ar   74  TYR74       0.0417
    134  CZ        -3.7250   19.3600    3.4080 C.ar   74  TYR74       0.1957
    135  OH        -4.1120   20.1050    4.5160 O.3    74  TYR74      -0.2866
@<TRIPOS>BOND
     1   106   107    1
     2   100    99    2
     3   108   107    1
     4   108   109    2
     5    99    98    1
     6    71    70    2
     7   116   117    1
     8   107   110    1
     9   105   104    1
    10   110   111    1
    11   101    98    1
    12   101   102    1
    13   103   104    1
    14   103   102    1
    15   126   127    2
    16   126   125    1
    17    98    97    1
    18    70    69    1
    19   111   112   ar
    20   111   113   ar
    21    80    83    1
    22    80    81    1
    23    80    79    1
    24   112   114   ar
    25   124   125    1
    26   124   118   am
    27   117   118    1
    28   117   120    1
    29    83    84    1
    30   128   125    1
    31   128   129    1
    32   123   121    1
    33    66    64   ar
    34    66    67   ar
    35   118   119    2
    36    81    82    2
    37   113   115   ar
    38    97    92   am
    39   114   115   ar
    40   121   120    1
    41    64    63   ar
    42    67    65   ar
    43    69    72    1
    44    69    68    1
    45   120   122    1
    46   129   131   ar
    47   129   130   ar
    48   131   133   ar
    49    92    93    2
    50    92    91    1
    51    84    85   ar
    52    84    86   ar
    53    72    73    1
    54    90    91    1
    55    63    65   ar
    56    63    62    1
    57    85    87   ar
    58    86    88   ar
    59    73    75   ar
    60    73    74   ar
    61    91    94    1
    62   130   132   ar
    63   133   134   ar
    64    75    77   ar
    65    74    76   ar
    66    62    59    1
    67    61    60    2
    68    77    78   ar
    69    76    78   ar
    70   132   134   ar
    71    87    89   ar
    72    88    89   ar
    73   134   135    1
    74    60    59    1
    75    94    95    1
    76    94    96    1
    77    59    58    1
    78    58    51   am
    79    49    50    1
    80    51    50    1
    81    51    52    2
    82    50    53    1
    83    16    15    1
    84    17    15    1
    85    36    34    1
    86    15    14    1
    87    53    54    1
    88    48    46    1
    89    34    35    1
    90    34    33    1
    91    54    55    1
    92    14    11    1
    93    46    45    1
    94    33    30    1
    95    47    45    1
    96    11    10    1
    97    11    12    1
    98    45    42    1
    99    55    56    2
   100    55    57   am
   101     1     2    1
   102    13    12    2
   103    12    18   am
   104    32    31    2
   105    30    31    1
   106    30    29    1
   107    31    37   am
   108     2     5    1
   109     2     3    1
   110    37    38    1
   111    38    39    1
   112    42    41    1
   113    42    43    1
   114     5     6    1
   115    18    19    1
   116     3     4    2
   117    43    44    2
   118    40    39    2
   119     6     7    1
   120     7     8    1
   121    19    20    1
   122    19    22    1
   123    20    21    2
   124     8     9    1
   125    22    23    1
   126    23    24   ar
   127    23    25   ar
   128    24    26   ar
   129    25    27   ar
   130    26    28   ar
   131    27    28   ar
