@<TRIPOS>MOLECULE
tmp/3iuyA00.pdb
 145 142 0 0 0
SMALL
GASTEIGER

@<TRIPOS>ATOM
      1  N          2.8850    5.3390   42.0250 N.3    21  PHE21      -0.1241
      2  CA         4.0620    5.5530   41.1680 C.3    21  PHE21       0.1605
      3  C          5.3220    5.0580   41.8620 C.2    21  PHE21       0.2264
      4  O          6.1560    4.3450   41.2680 O.2    21  PHE21      -0.2867
      5  CB         4.2420    7.0530   40.8420 C.3    21  PHE21       0.0534
      6  CG         3.0310    7.6990   40.2010 C.ar   21  PHE21      -0.0203
      7  CD1        2.5070    7.2100   38.9920 C.ar   21  PHE21      -0.0042
      8  CD2        2.4220    8.8010   40.8020 C.ar   21  PHE21      -0.0042
      9  CE1        1.3760    7.8200   38.4230 C.ar   21  PHE21      -0.0003
     10  CE2        1.3080    9.4040   40.2310 C.ar   21  PHE21      -0.0003
     11  CZ         0.7810    8.9140   39.0400 C.ar   21  PHE21      -0.0000
     12  N          0.0600   14.4220   38.0460 N.3    40  ILE40      -0.1231
     13  CA        -1.0010   13.3720   38.0520 C.3    40  ILE40       0.1692
     14  C         -1.0390   12.6170   39.4090 C.2    40  ILE40       0.2592
     15  O         -0.0240   12.5140   40.0960 O.2    40  ILE40      -0.2718
     16  CB        -0.8430   12.3740   36.8530 C.3    40  ILE40       0.0266
     17  CG1        0.5960   11.7920   36.8170 C.3    40  ILE40       0.0019
     18  CG2       -1.2300   13.0700   35.4950 C.3    40  ILE40       0.0020
     19  CD1        0.7700   10.6210   35.8670 C.3    40  ILE40       0.0001
     20  N         -2.1890   12.0770   39.7800 N.am   41  LEU41      -0.1966
     21  CA        -2.3780   11.5840   41.1520 C.3    41  LEU41       0.1728
     22  C         -1.9430   10.1370   41.3950 C.2    41  LEU41       0.2616
     23  O         -1.2840    9.8220   42.3790 O.2    41  LEU41      -0.2715
     24  CB        -3.8540   11.7730   41.6180 C.3    41  LEU41       0.0311
     25  CG        -4.2910   13.2220   41.6510 C.3    41  LEU41       0.0022
     26  CD1       -5.7980   13.3250   41.9430 C.3    41  LEU41       0.0001
     27  CD2       -3.4340   14.0590   42.6220 C.3    41  LEU41       0.0001
     28  N         -2.3670    9.2430   40.5140 N.am   42  LYS42      -0.1964
     29  CA        -2.1620    7.8130   40.7220 C.3    42  LYS42       0.1713
     30  C         -2.1600    7.0690   39.3650 C.2    42  LYS42       0.2458
     31  O         -2.8070    7.5490   38.4020 O.2    42  LYS42      -0.2730
     32  CB        -3.2340    7.2310   41.6470 C.3    42  LYS42       0.0311
     33  CG        -4.6340    7.3540   41.1790 C.3    42  LYS42       0.0038
     34  CD        -5.6180    6.9100   42.2850 C.3    42  LYS42       0.0206
     35  CE        -7.0020    7.3420   41.9830 C.3    42  LYS42       0.1093
     36  NZ        -8.1140    6.6790   42.7090 N.3    42  LYS42      -0.1314
     37  N         -1.4690    5.9050   39.3010 N.am   43  PRO43      -0.2716
     38  CA        -1.5080    5.0030   38.1640 C.3    43  PRO43       0.1536
     39  C         -2.9220    4.5710   37.8320 C.2    43  PRO43       0.2599
     40  O         -3.7440    4.4400   38.7240 O.2    43  PRO43      -0.2715
     41  CB        -0.7280    3.7670   38.6540 C.3    43  PRO43       0.0310
     42  CG         0.0900    4.2470   39.8070 C.3    43  PRO43       0.0237
     43  CD        -0.6740    5.3510   40.4210 C.3    43  PRO43       0.0939
     44  N         -3.2100    4.3990   36.5450 N.am   44  THR44      -0.1951
     45  CA        -4.4820    3.7930   36.1130 C.3    44  THR44       0.1897
     46  C         -4.3850    2.2850   36.3720 C.2    44  THR44       0.2313
     47  O         -3.2780    1.7620   36.5770 O.2    44  THR44      -0.2863
     48  CB        -4.7610    4.0860   34.6060 C.3    44  THR44       0.1794
     49  OG1       -3.7800    3.4080   33.7780 O.3    44  THR44      -0.2208
     50  CG2       -4.6980    5.6090   34.3590 C.3    44  THR44       0.0378
     51  N         -1.8690    0.5530   34.1050 N.3    47  GLN47      -0.1245
     52  CA        -0.5240    0.9380   34.4990 C.3    47  GLN47       0.1566
     53  C         -0.0490    0.1270   35.6780 C.2    47  GLN47       0.2260
     54  O          1.0530   -0.4430   35.6360 O.2    47  GLN47      -0.2867
     55  CB        -0.4430    2.4420   34.7910 C.3    47  GLN47       0.0367
     56  CG        -0.6300    3.2730   33.5060 C.3    47  GLN47       0.0905
     57  CD        -0.9100    4.7240   33.7560 C.2    47  GLN47       0.2608
     58  OE1       -1.0160    5.1740   34.8970 O.2    47  GLN47      -0.2717
     59  NE2       -1.0240    5.4810   32.6680 N.am   47  GLN47      -0.0878
     60  N         -8.6300    3.5540   24.2600 N.3    66  THR66      -0.1203
     61  CA        -8.0100    4.8000   24.6650 C.3    66  THR66       0.1994
     62  C         -8.7800    5.3950   25.8390 C.2    66  THR66       0.2618
     63  O         -9.9740    5.0960   26.0040 O.2    66  THR66      -0.2717
     64  CB        -7.8570    5.7740   23.4790 C.3    66  THR66       0.1784
     65  OG1       -7.0430    6.8900   23.8890 O.3    66  THR66      -0.2211
     66  CG2       -9.2040    6.2640   23.0220 C.3    66  THR66       0.0376
     67  N         -8.0700    6.1650   26.6760 N.am   67  GLY67      -0.1942
     68  CA        -8.6130    6.7000   27.9310 C.3    67  GLY67       0.2014
     69  C         -8.2460    5.8980   29.1750 C.2    67  GLY67       0.2640
     70  O         -8.5530    6.3170   30.2870 O.2    67  GLY67      -0.2714
     71  N         -7.5850    4.7530   29.0000 N.am   68  THR68      -0.1936
     72  CA        -7.2250    3.8760   30.1250 C.3    68  THR68       0.2028
     73  C         -5.7700    4.1160   30.5910 C.2    68  THR68       0.2643
     74  O         -5.2990    3.4650   31.5480 O.2    68  THR68      -0.2714
     75  CB        -7.3510    2.3410   29.7440 C.3    68  THR68       0.1808
     76  OG1       -6.5170    2.0520   28.6080 O.3    68  THR68      -0.2208
     77  CG2       -8.7810    1.8940   29.4410 C.3    68  THR68       0.0379
     78  N         -5.0300    4.9760   29.8940 N.am   69  GLY69      -0.1939
     79  CA        -3.6170    5.1390   30.1990 C.3    69  GLY69       0.2014
     80  C         -2.6440    4.1070   29.6240 C.2    69  GLY69       0.2639
     81  O         -1.5270    3.9160   30.1700 O.2    69  GLY69      -0.2714
     82  N         -3.0090    3.4680   28.5120 N.am   70  LYS70      -0.1963
     83  CA        -2.1160    2.4600   27.8690 C.3    70  LYS70       0.1728
     84  C         -0.7710    2.9810   27.3730 C.2    70  LYS70       0.2617
     85  O          0.2030    2.2450   27.4030 O.2    70  LYS70      -0.2715
     86  CB        -2.8230    1.6420   26.7700 C.3    70  LYS70       0.0311
     87  CG        -3.3840    2.4330   25.6190 C.3    70  LYS70       0.0038
     88  CD        -4.3560    1.5880   24.7610 C.3    70  LYS70       0.0206
     89  CE        -4.5700    2.2780   23.3620 C.3    70  LYS70       0.1093
     90  NZ        -3.3090    2.3710   22.4220 N.3    70  LYS70      -0.1314
     91  N         -0.7080    4.2420   26.9470 N.am   71  THR71      -0.1937
     92  CA         0.5310    4.8260   26.4290 C.3    71  THR71       0.2028
     93  C          1.6270    4.8090   27.5150 C.2    71  THR71       0.2642
     94  O          2.6720    4.1900   27.3370 O.2    71  THR71      -0.2714
     95  CB         0.3120    6.2530   25.9290 C.3    71  THR71       0.1808
     96  OG1       -0.8750    6.2950   25.1150 O.3    71  THR71      -0.2208
     97  CG2        1.5060    6.7610   25.1260 C.3    71  THR71       0.0379
     98  N          1.3870    5.4680   28.6490 N.am   72  LEU72      -0.1977
     99  CA         2.3580    5.4450   29.7450 C.3    72  LEU72       0.1596
    100  C          2.6490    4.0170   30.2510 C.2    72  LEU72       0.2287
    101  O          3.7610    3.7680   30.7760 O.2    72  LEU72      -0.2864
    102  CB         1.9300    6.3430   30.9030 C.3    72  LEU72       0.0297
    103  CG         1.8440    7.8540   30.6090 C.3    72  LEU72       0.0022
    104  CD1        1.3490    8.5260   31.8380 C.3    72  LEU72       0.0001
    105  CD2        3.2330    8.3830   30.2260 C.3    72  LEU72       0.0001
    106  N          0.0840   11.9380   19.2070 N.3   100  HIS100     -0.1241
    107  CA        -0.4570   11.6990   20.5530 C.3   100  HIS100      0.1621
    108  C          0.6560   11.0500   21.4260 C.2   100  HIS100      0.2264
    109  O          0.9510   11.5060   22.5350 O.2   100  HIS100     -0.2867
    110  CB        -1.7850   10.8650   20.4260 C.3   100  HIS100      0.0745
    111  CG        -2.3100   10.3220   21.7350 C.ar  100  HIS100      0.0817
    112  ND1       -1.6510    9.3470   22.4850 N.ar  100  HIS100     -0.2268
    113  CD2       -3.4380   10.6300   22.4400 C.ar  100  HIS100      0.1154
    114  CE1       -2.3410    9.1050   23.5940 C.ar  100  HIS100      0.1986
    115  NE2       -3.4220    9.8790   23.5970 N.ar  100  HIS100     -0.2212
    116  N          3.0540   12.7080   24.7010 N.3   104  GLU104     -0.1245
    117  CA         3.2290   12.1280   26.0540 C.3   104  GLU104      0.1567
    118  C          4.6770   11.8520   26.3600 C.2   104  GLU104      0.2260
    119  O          5.1380   12.0470   27.4740 O.2   104  GLU104     -0.2867
    120  CB         2.3950   10.8510   26.2800 C.3   104  GLU104      0.0388
    121  CG         0.9860   11.1690   26.7860 C.3   104  GLU104      0.1160
    122  CD         0.1190    9.9430   26.8850 C.2   104  GLU104      0.3649
    123  OE1       -0.8670    9.7910   26.1100 O.co2 104  GLU104     -0.2457
    124  OE2        0.4200    9.1050   27.7530 O.co2 104  GLU104     -0.2457
    125  N          6.3840   15.2160   27.1940 N.3   107  LYS107     -0.1231
    126  CA         5.8430   15.6910   28.4760 C.3   107  LYS107      0.1693
    127  C          6.5480   15.0430   29.6830 C.2   107  LYS107      0.2592
    128  O          6.7890   15.7060   30.6600 O.2   107  LYS107     -0.2718
    129  CB         4.3470   15.3970   28.5020 C.3   107  LYS107      0.0285
    130  CG         3.5790   15.9310   29.6810 C.3   107  LYS107      0.0035
    131  CD         2.1510   15.4190   29.6000 C.3   107  LYS107      0.0206
    132  CE         1.2690   15.9600   30.7230 C.3   107  LYS107      0.1093
    133  NZ        -0.2050   15.6570   30.5100 N.3   107  LYS107     -0.1314
    134  N          6.8810   13.7530   29.5850 N.am  108  TYR108     -0.1976
    135  CA         7.4350   12.9330   30.6730 C.3   108  TYR108      0.1639
    136  C          8.9330   12.6110   30.5230 C.2   108  TYR108      0.2290
    137  O          9.4850   11.8720   31.3450 O.2   108  TYR108     -0.2864
    138  CB         6.6500   11.6040   30.8000 C.3   108  TYR108      0.0560
    139  CG         5.2690   11.7740   31.4190 C.ar  108  TYR108     -0.0198
    140  CD1        5.1010   11.8520   32.7970 C.ar  108  TYR108     -0.0009
    141  CD2        4.1480   11.8940   30.6140 C.ar  108  TYR108     -0.0009
    142  CE1        3.8820   12.0160   33.3420 C.ar  108  TYR108      0.0417
    143  CE2        2.9190   12.0520   31.1420 C.ar  108  TYR108      0.0417
    144  CZ         2.7710   12.1180   32.5340 C.ar  108  TYR108      0.1957
    145  OH         1.5150   12.3050   33.0650 O.3   108  TYR108     -0.2866
@<TRIPOS>BOND
     1   106   107    1
     2   110   107    1
     3   110   111    1
     4   107   108    1
     5   108   109    2
     6   111   113   ar
     7   111   112   ar
     8    90    89    1
     9   113   115   ar
    10   112   114   ar
    11    66    64    1
    12    89    88    1
    13    64    65    1
    14    64    61    1
    15   114   115   ar
    16    60    61    1
    17    61    62    1
    18   116   117    1
    19    88    87    1
    20    96    95    1
    21    97    95    1
    22    87    86    1
    23    62    63    2
    24    62    67   am
    25    95    92    1
    26   117   120    1
    27   117   118    1
    28   123   122   ar
    29   120   121    1
    30   118   119    2
    31    92    91    1
    32    92    93    1
    33    67    68    1
    34    86    83    1
    35   121   122    1
    36   122   124   ar
    37    91    84   am
    38   125   126    1
    39    94    93    2
    40    84    85    2
    41    84    83    1
    42    93    98   am
    43    83    82    1
    44    68    69    1
    45   126   129    1
    46   126   127    1
    47   129   130    1
    48    82    80   am
    49    76    75    1
    50    98    99    1
    51    71    69   am
    52    71    72    1
    53    69    70    2
    54    77    75    1
    55   134   127   am
    56   134   135    1
    57   131   130    1
    58   131   132    1
    59    80    81    2
    60    80    79    1
    61   127   128    2
    62    75    72    1
    63    99   100    1
    64    99   102    1
    65    78    79    1
    66    78    73   am
    67    72    73    1
    68   105   103    1
    69   100   101    2
    70   133   132    1
    71   136   135    1
    72   136   137    2
    73    73    74    2
    74   103   102    1
    75   103   104    1
    76   141   143   ar
    77   141   139   ar
    78   135   138    1
    79   138   139    1
    80   143   144   ar
    81   139   140   ar
    82   144   145    1
    83   144   142   ar
    84    59    57   am
    85   140   142   ar
    86    56    57    1
    87    56    55    1
    88    57    58    2
    89    49    48    1
    90    51    52    1
    91    50    48    1
    92    52    55    1
    93    52    53    1
    94    48    45    1
    95    18    16    1
    96    54    53    2
    97    19    17    1
    98    45    46    1
    99    45    44    1
   100    46    47    2
   101    44    39   am
   102    17    16    1
   103    16    13    1
   104    39    38    1
   105    39    40    2
   106    12    13    1
   107    13    14    1
   108    38    41    1
   109    38    37    1
   110    31    30    2
   111     9     7   ar
   112     9    11   ar
   113    41    42    1
   114     7     6   ar
   115    11    10   ar
   116    37    30   am
   117    37    43    1
   118    30    29    1
   119    14    20   am
   120    14    15    2
   121    20    21    1
   122    42    43    1
   123     6     8   ar
   124     6     5    1
   125    10     8   ar
   126    28    29    1
   127    28    22   am
   128    29    32    1
   129     5     2    1
   130    21    22    1
   131    21    24    1
   132     2     3    1
   133     2     1    1
   134    33    32    1
   135    33    34    1
   136     4     3    2
   137    22    23    2
   138    24    25    1
   139    25    26    1
   140    25    27    1
   141    35    34    1
   142    35    36    1
