@<TRIPOS>MOLECULE
tmp/3iv6A00.pdb
 220 216 0 0 0
SMALL
GASTEIGER

@<TRIPOS>ATOM
      1  N         29.2400   41.1560    4.3620 N.3     5  ASN5       -0.1240
      2  CA        28.1120   41.7900    3.6870 C.3     5  ASN5        0.1653
      3  C         26.7500   41.2230    4.0600 C.2     5  ASN5        0.2266
      4  O         26.2390   40.3260    3.4220 O.2     5  ASN5       -0.2867
      5  CB        28.2940   41.7200    2.1760 C.3     5  ASN5        0.1155
      6  CG        27.4900   42.7720    1.4490 C.2     5  ASN5        0.2627
      7  OD1       26.5350   43.3320    1.9910 O.2     5  ASN5       -0.2716
      8  ND2       27.8810   43.0590    0.2160 N.am    5  ASN5       -0.0877
      9  N         23.9360   42.3100    3.5900 N.3     7  LYS7       -0.1245
     10  CA        22.8680   42.5280    2.6110 C.3     7  LYS7        0.1561
     11  C         22.4830   41.2090    1.9510 C.2     7  LYS7        0.2260
     12  O         21.3150   41.0150    1.6040 O.2     7  LYS7       -0.2867
     13  CB        23.2470   43.5550    1.5600 C.3     7  LYS7        0.0271
     14  CG        23.3060   44.9440    2.1100 C.3     7  LYS7        0.0035
     15  CD        23.5970   45.9710    1.0310 C.3     7  LYS7        0.0206
     16  CE        23.2950   47.3590    1.5330 C.3     7  LYS7        0.1093
     17  NZ        23.3400   48.4180    0.4990 N.3     7  LYS7       -0.1314
     18  N         18.5240   38.6310    0.5370 N.3    11  TRP11      -0.1241
     19  CA        18.0790   37.9090   -0.6500 C.3    11  TRP11       0.1605
     20  C         17.8560   36.3930   -0.4350 C.2    11  TRP11       0.2264
     21  O         17.2260   35.7170   -1.2550 O.2    11  TRP11      -0.2867
     22  CB        18.9730   38.2480   -1.8470 C.3    11  TRP11       0.0550
     23  CG        19.0100   39.7240   -2.1130 C.ar   11  TRP11       0.0003
     24  CD1       19.8200   40.6420   -1.5100 C.ar   11  TRP11       0.0946
     25  CD2       18.1970   40.4640   -3.0430 C.ar   11  TRP11       0.0152
     26  NE1       19.5730   41.9050   -2.0080 N.ar   11  TRP11      -0.2442
     27  CE2       18.5920   41.8190   -2.9540 C.ar   11  TRP11       0.0810
     28  CE3       17.2060   40.0980   -3.9700 C.ar   11  TRP11       0.0012
     29  CZ2       18.0080   42.8220   -3.7470 C.ar   11  TRP11       0.0191
     30  CZ3       16.6300   41.0930   -4.7490 C.ar   11  TRP11       0.0001
     31  CH2       17.0320   42.4420   -4.6310 C.ar   11  TRP11       0.0015
     32  N         11.4150   36.6560   -6.6600 N.3    18  PHE18      -0.1241
     33  CA        11.6640   37.8960   -7.3570 C.3    18  PHE18       0.1605
     34  C         11.2010   37.9080   -8.8170 C.2    18  PHE18       0.2264
     35  O         10.6520   38.9030   -9.3020 O.2    18  PHE18      -0.2867
     36  CB        13.1190   38.3110   -7.2850 C.3    18  PHE18       0.0534
     37  CG        13.3320   39.6920   -7.8000 C.ar   18  PHE18      -0.0203
     38  CD1       13.1590   40.7810   -6.9610 C.ar   18  PHE18      -0.0042
     39  CD2       13.6200   39.9140   -9.1460 C.ar   18  PHE18      -0.0042
     40  CE1       13.3150   42.0660   -7.4210 C.ar   18  PHE18      -0.0003
     41  CE2       13.7630   41.2070   -9.6360 C.ar   18  PHE18      -0.0003
     42  CZ        13.6180   42.2860   -8.7730 C.ar   18  PHE18      -0.0000
     43  N         10.1870   45.4000  -12.3190 N.3    26  ALA26      -0.1231
     44  CA        11.4050   45.5080  -11.5420 C.3    26  ALA26       0.1694
     45  C         12.4940   44.6700  -12.2160 C.2    26  ALA26       0.2592
     46  O         13.6290   44.6260  -11.7630 O.2    26  ALA26      -0.2718
     47  CB        11.1560   45.0690  -10.0910 C.3    26  ALA26       0.0304
     48  N         12.1270   43.9860  -13.2910 N.am   27  ARG27      -0.1966
     49  CA        13.1050   43.2900  -14.1140 C.3    27  ARG27       0.1714
     50  C         13.0500   43.8220  -15.5310 C.2    27  ARG27       0.2458
     51  O         12.0770   44.4660  -15.9080 O.2    27  ARG27      -0.2730
     52  CB        12.8420   41.7970  -14.1240 C.3    27  ARG27       0.0347
     53  CG        11.5270   41.4120  -14.6510 C.3    27  ARG27       0.0492
     54  CD        11.5890   39.9670  -15.0910 C.3    27  ARG27       0.2205
     55  NE        10.2840   39.3830  -15.3930 N.pl3  27  ARG27      -0.0865
     56  CZ         9.3700   39.0780  -14.4690 C.cat  27  ARG27       0.5346
     57  NH1        9.6250   39.3350  -13.1780 N.pl3  27  ARG27       0.1354
     58  NH2        8.1950   38.5360  -14.8390 N.pl3  27  ARG27       0.1354
     59  N         14.0880   43.5580  -16.3320 N.am   28  PRO28      -0.2727
     60  CA        13.9650   44.0510  -17.7130 C.3    28  PRO28       0.1402
     61  C         12.8180   43.3870  -18.4540 C.2    28  PRO28       0.2269
     62  O         12.5390   42.2320  -18.2430 O.2    28  PRO28      -0.2865
     63  CB        15.3170   43.7010  -18.3440 C.3    28  PRO28       0.0296
     64  CG        16.2400   43.4480  -17.1680 C.3    28  PRO28       0.0237
     65  CD        15.4050   42.9540  -16.0570 C.3    28  PRO28       0.0939
     66  N         25.9970   39.9980  -13.3250 N.3    49  ILE49      -0.1231
     67  CA        25.8940   40.2060  -11.8860 C.3    49  ILE49       0.1692
     68  C         24.4380   40.3230  -11.4490 C.2    49  ILE49       0.2593
     69  O         23.7100   41.2020  -11.9100 O.2    49  ILE49      -0.2718
     70  CB        26.6570   41.4680  -11.4420 C.3    49  ILE49       0.0266
     71  CG1       27.9810   41.5850  -12.1990 C.3    49  ILE49       0.0019
     72  CG2       26.8970   41.4440   -9.9400 C.3    49  ILE49       0.0020
     73  CD1       28.8610   40.3590  -12.0840 C.3    49  ILE49       0.0001
     74  N         24.0200   39.4320  -10.5560 N.am   50  GLY50      -0.1942
     75  CA        22.6340   39.3710  -10.1310 C.3    50  GLY50       0.2014
     76  C         21.9180   38.1430  -10.6580 C.2    50  GLY50       0.2639
     77  O         21.3580   38.1610  -11.7540 O.2    50  GLY50      -0.2714
     78  N         21.9380   37.0700   -9.8740 N.am   51  ALA51      -0.1963
     79  CA        21.3150   35.8150  -10.2760 C.3    51  ALA51       0.1728
     80  C         19.7970   35.9480  -10.3380 C.2    51  ALA51       0.2617
     81  O         19.0970   35.0090  -10.7170 O.2    51  ALA51      -0.2715
     82  CB        21.7130   34.6960   -9.3260 C.3    51  ALA51       0.0334
     83  N         19.2950   37.1200   -9.9640 N.am   52  SER52      -0.1936
     84  CA        17.8580   37.3660   -9.9430 C.3    52  SER52       0.2055
     85  C         17.3250   37.6450  -11.3440 C.2    52  SER52       0.2643
     86  O         16.1390   37.4640  -11.6160 O.2    52  SER52      -0.2714
     87  CB        17.5280   38.5350   -9.0130 C.3    52  SER52       0.2130
     88  OG        17.9460   39.7670   -9.5740 O.3    52  SER52      -0.2179
     89  N         18.2110   38.0880  -12.2310 N.am   53  THR53      -0.1950
     90  CA        17.8190   38.4470  -13.6000 C.3    53  THR53       0.1897
     91  C         17.7440   37.2180  -14.5170 C.2    53  THR53       0.2313
     92  O         18.4600   37.0950  -15.5360 O.2    53  THR53      -0.2863
     93  CB        18.7420   39.5240  -14.2240 C.3    53  THR53       0.1794
     94  OG1       19.2970   40.3300  -13.1810 O.3    53  THR53      -0.2208
     95  CG2       17.9560   40.4280  -15.1460 C.3    53  THR53       0.0378
     96  N         27.1940   35.8550  -11.3740 N.3    70  PHE70      -0.1227
     97  CA        27.7280   36.1470  -10.0500 C.3    70  PHE70       0.1736
     98  C         26.6320   36.6860   -9.1550 C.2    70  PHE70       0.2595
     99  O         25.8190   37.5010   -9.5740 O.2    70  PHE70      -0.2718
    100  CB        28.8510   37.1620  -10.1440 C.3    70  PHE70       0.0547
    101  CG        30.0430   36.6570  -10.9000 C.ar   70  PHE70      -0.0202
    102  CD1       30.7460   35.5410  -10.4490 C.ar   70  PHE70      -0.0042
    103  CD2       30.4760   37.2920  -12.0780 C.ar   70  PHE70      -0.0042
    104  CE1       31.8470   35.0750  -11.1220 C.ar   70  PHE70      -0.0003
    105  CE2       31.5980   36.8110  -12.7900 C.ar   70  PHE70      -0.0003
    106  CZ        32.2770   35.7070  -12.3030 C.ar   70  PHE70      -0.0000
    107  N         26.6080   36.2280   -7.9150 N.am   71  ASP71      -0.1960
    108  CA        25.6420   36.7170   -6.9420 C.3    71  ASP71       0.1840
    109  C         26.1700   36.4830   -5.5310 C.2    71  ASP71       0.2622
    110  O         26.8750   35.4890   -5.2740 O.2    71  ASP71      -0.2715
    111  CB        24.2880   36.0020   -7.1180 C.3    71  ASP71       0.1450
    112  CG        23.1310   36.7940   -6.5430 C.2    71  ASP71       0.3671
    113  OD1       23.0420   36.9030   -5.2960 O.co2  71  ASP71      -0.2456
    114  OD2       22.3340   37.3260   -7.3520 O.co2  71  ASP71      -0.2456
    115  N         25.8400   37.3910   -4.6130 N.am   72  PHE72      -0.1960
    116  CA        26.3560   37.2580   -3.2500 C.3    72  PHE72       0.1771
    117  C         25.4490   36.4850   -2.2880 C.2    72  PHE72       0.2620
    118  O         25.6900   36.4550   -1.0880 O.2    72  PHE72      -0.2715
    119  CB        26.7970   38.6130   -2.6880 C.3    72  PHE72       0.0574
    120  CG        25.6790   39.4890   -2.2820 C.ar   72  PHE72      -0.0200
    121  CD1       24.3710   39.1980   -2.6730 C.ar   72  PHE72      -0.0042
    122  CD2       25.9190   40.6120   -1.5180 C.ar   72  PHE72      -0.0042
    123  CE1       23.3090   40.0080   -2.2970 C.ar   72  PHE72      -0.0003
    124  CE2       24.8650   41.4290   -1.1540 C.ar   72  PHE72      -0.0003
    125  CZ        23.5510   41.1190   -1.5490 C.ar   72  PHE72      -0.0000
    126  N         24.4280   35.8500   -2.8320 N.am   73  SER73      -0.1950
    127  CA        23.4320   35.1090   -2.0550 C.3    73  SER73       0.1924
    128  C         23.3200   33.6280   -2.4560 C.2    73  SER73       0.2314
    129  O         23.2040   33.2950   -3.6280 O.2    73  SER73      -0.2863
    130  CB        22.0630   35.7860   -2.1670 C.3    73  SER73       0.2116
    131  OG        21.0200   34.8310   -2.1090 O.3    73  SER73      -0.2180
    132  N         29.6730   35.2900   -5.4840 N.3    93  LEU93      -0.1231
    133  CA        30.6630   36.3740   -5.4690 C.3    93  LEU93       0.1693
    134  C         30.0510   37.7190   -5.0710 C.2    93  LEU93       0.2592
    135  O         28.8930   37.9940   -5.3590 O.2    93  LEU93      -0.2718
    136  CB        31.3770   36.4740   -6.8260 C.3    93  LEU93       0.0284
    137  CG        32.4060   37.5890   -7.0880 C.3    93  LEU93       0.0019
    138  CD1       33.4340   37.1770   -8.1140 C.3    93  LEU93       0.0001
    139  CD2       31.7590   38.9170   -7.5380 C.3    93  LEU93       0.0001
    140  N         30.8350   38.5590   -4.4100 N.am   94  ASP94      -0.1960
    141  CA        30.3290   39.8520   -4.0090 C.3    94  ASP94       0.1840
    142  C         31.0030   40.9730   -4.8110 C.2    94  ASP94       0.2622
    143  O         32.1330   41.3530   -4.5280 O.2    94  ASP94      -0.2715
    144  CB        30.5370   40.0510   -2.5280 C.3    94  ASP94       0.1450
    145  CG        30.1590   41.4560   -2.0570 C.2    94  ASP94       0.3671
    146  OD1       29.9530   42.3580   -2.8970 O.co2  94  ASP94      -0.2456
    147  OD2       30.0890   41.6670   -0.8230 O.co2  94  ASP94      -0.2456
    148  N         30.2930   41.5200   -5.7900 N.am   95  ILE95      -0.1963
    149  CA        30.8900   42.5100   -6.6520 C.3    95  ILE95       0.1727
    150  C         31.5030   43.7350   -5.9680 C.2    95  ILE95       0.2616
    151  O         32.2650   44.4530   -6.5970 O.2    95  ILE95      -0.2715
    152  CB        29.9240   42.9660   -7.7630 C.3    95  ILE95       0.0290
    153  CG1       30.7060   43.5840   -8.9370 C.3    95  ILE95       0.0022
    154  CG2       28.8800   43.8990   -7.2150 C.3    95  ILE95       0.0023
    155  CD1       31.2150   42.5610   -9.9320 C.3    95  ILE95       0.0001
    156  N         31.2030   43.9870   -4.6980 N.am   96  THR96      -0.1951
    157  CA        31.8560   45.1020   -3.9780 C.3    96  THR96       0.1897
    158  C         33.1370   44.6620   -3.2530 C.2    96  THR96       0.2313
    159  O         33.8430   45.4680   -2.6380 O.2    96  THR96      -0.2863
    160  CB        30.9420   45.7390   -2.9350 C.3    96  THR96       0.1794
    161  OG1       30.7760   44.8140   -1.8640 O.3    96  THR96      -0.2208
    162  CG2       29.5780   46.0930   -3.5380 C.3    96  THR96       0.0378
    163  N         21.2760   44.7480  -14.2840 N.3   113  ASP113     -0.1225
    164  CA        20.0960   45.6040  -14.3300 C.3   113  ASP113      0.1805
    165  C         19.7070   46.1530  -12.9650 C.2   113  ASP113      0.2598
    166  O         19.1470   45.4260  -12.1500 O.2   113  ASP113     -0.2718
    167  CB        18.8980   44.8540  -14.9070 C.3   113  ASP113      0.1424
    168  CG        17.6460   45.7420  -15.0170 C.2   113  ASP113      0.3668
    169  OD1       17.7650   46.9510  -15.3410 O.co2 113  ASP113     -0.2456
    170  OD2       16.5350   45.2200  -14.8050 O.co2 113  ASP113     -0.2456
    171  N         19.9840   47.4340  -12.7360 N.am  114  ARG114     -0.1966
    172  CA        19.5380   48.1370  -11.5350 C.3   114  ARG114      0.1729
    173  C         20.1620   47.5920  -10.2410 C.2   114  ARG114      0.2616
    174  O         19.5880   47.6800   -9.1420 O.2   114  ARG114     -0.2715
    175  CB        18.0190   48.1690  -11.4830 C.3   114  ARG114      0.0348
    176  CG        17.4240   49.2320  -12.3950 C.3   114  ARG114      0.0492
    177  CD        15.8970   49.1370  -12.5120 C.3   114  ARG114      0.2205
    178  NE        15.4030   48.0980  -13.4110 N.pl3 114  ARG114     -0.0865
    179  CZ        14.1020   47.8060  -13.5550 C.cat 114  ARG114      0.5346
    180  NH1       13.2170   48.4820  -12.8490 N.pl3 114  ARG114      0.1354
    181  NH2       13.6710   46.8420  -14.3860 N.pl3 114  ARG114      0.1354
    182  N         21.3710   47.0670  -10.3780 N.am  115  LEU115     -0.1977
    183  CA        22.1180   46.5060   -9.2640 C.3   115  LEU115      0.1596
    184  C         22.7580   47.6300   -8.4580 C.2   115  LEU115      0.2287
    185  O         22.9570   47.5310   -7.2680 O.2   115  LEU115     -0.2864
    186  CB        23.2080   45.6160   -9.8270 C.3   115  LEU115      0.0297
    187  CG        24.2960   45.2180   -8.8600 C.3   115  LEU115      0.0022
    188  CD1       23.6850   44.3890   -7.7330 C.3   115  LEU115      0.0001
    189  CD2       25.4000   44.4750   -9.5910 C.3   115  LEU115      0.0001
    190  N         21.0960   49.0100   -5.4840 N.3   118  ARG118     -0.1231
    191  CA        21.2280   48.2450   -4.2690 C.3   118  ARG118      0.1694
    192  C         22.4660   48.6250   -3.4860 C.2   118  ARG118      0.2592
    193  O         22.8060   47.9470   -2.5050 O.2   118  ARG118     -0.2718
    194  CB        21.2520   46.7380   -4.5590 C.3   118  ARG118      0.0321
    195  CG        19.9280   46.1690   -5.0980 C.3   118  ARG118      0.0489
    196  CD        18.7250   46.9030   -4.4850 C.3   118  ARG118      0.2205
    197  NE        17.7930   47.2770   -5.5410 N.pl3 118  ARG118     -0.0865
    198  CZ        17.1890   48.4510   -5.6560 C.cat 118  ARG118      0.5346
    199  NH1       17.3800   49.4030   -4.7720 N.pl3 118  ARG118      0.1354
    200  NH2       16.3810   48.6590   -6.6760 N.pl3 118  ARG118      0.1354
    201  N         23.1240   49.7080   -3.9080 N.am  119  PHE119     -0.1976
    202  CA        24.3170   50.1970   -3.2310 C.3   119  PHE119      0.1639
    203  C         24.1980   51.5770   -2.5970 C.2   119  PHE119      0.2290
    204  O         23.3520   52.4070   -2.9550 O.2   119  PHE119     -0.2864
    205  CB        25.5350   50.2170   -4.1760 C.3   119  PHE119      0.0560
    206  CG        25.8310   48.8940   -4.8430 C.ar  119  PHE119     -0.0200
    207  CD1       25.7260   47.6880   -4.1310 C.ar  119  PHE119     -0.0042
    208  CD2       26.2460   48.8580   -6.1710 C.ar  119  PHE119     -0.0042
    209  CE1       25.9770   46.4780   -4.7150 C.ar  119  PHE119     -0.0003
    210  CE2       26.5270   47.6260   -6.7850 C.ar  119  PHE119     -0.0003
    211  CZ        26.3770   46.4150   -6.0330 C.ar  119  PHE119     -0.0000
    212  N         29.8180   51.9300   -1.8410 N.3   123  GLU123     -0.1245
    213  CA        29.6300   50.5710   -2.3010 C.3   123  GLU123      0.1567
    214  C         29.5710   50.5330   -3.8610 C.2   123  GLU123      0.2260
    215  O         30.2270   49.7070   -4.5150 O.2   123  GLU123     -0.2867
    216  CB        28.3510   49.9920   -1.7180 C.3   123  GLU123      0.0388
    217  CG        28.4550   49.2230   -0.4610 C.3   123  GLU123      0.1160
    218  CD        27.2060   48.3380   -0.2200 C.2   123  GLU123      0.3649
    219  OE1       26.0710   48.8720   -0.2430 O.co2 123  GLU123     -0.2457
    220  OE2       27.3610   47.0990   -0.0110 O.co2 123  GLU123     -0.2457
@<TRIPOS>BOND
     1    61    62    2
     2    61    60    1
     3    63    60    1
     4    63    64    1
     5    60    59    1
     6    64    65    1
     7    59    65    1
     8    59    50   am
     9    51    50    2
    10    92    91    2
    11    50    49    1
    12    55    54    1
    13    55    56    2
    14   169   168   ar
    15    95    93    1
    16    54    53    1
    17   168   167    1
    18   168   170   ar
    19   167   164    1
    20    58    56    1
    21    53    52    1
    22    91    90    1
    23    56    57    1
    24   181   179    1
    25   164   163    1
    26   164   165    1
    27    93    90    1
    28    93    94    1
    29    52    49    1
    30    49    48    1
    31    90    89    1
    32   179   178    2
    33   179   180    1
    34   178   177    1
    35    66    67    1
    36    48    45   am
    37   165   171   am
    38   165   166    2
    39   105   106   ar
    40   105   103   ar
    41   171   172    1
    42   177   176    1
    43   176   175    1
    44    43    44    1
    45   106   104   ar
    46    89    85   am
    47    45    46    2
    48    45    44    1
    49    71    73    1
    50    71    70    1
    51   103   101   ar
    52    69    68    2
    53    67    68    1
    54    67    70    1
    55    77    76    2
    56    86    85    2
    57    44    47    1
    58   172   175    1
    59   172   173    1
    60    68    74   am
    61    70    72    1
    62    96    97    1
    63    85    84    1
    64   104   102   ar
    65   101   102   ar
    66   101   100    1
    67    81    80    2
    68    76    75    1
    69    76    78   am
    70    74    75    1
    71   182   173   am
    72   182   183    1
    73    80    79    1
    74    80    83   am
    75    79    78    1
    76    79    82    1
    77   173   174    2
    78   100    97    1
    79    97    98    1
    80    83    84    1
    81    84    87    1
    82   155   153    1
    83   186   183    1
    84   186   187    1
    85    41    39   ar
    86    41    42   ar
    87   189   187    1
    88    99    98    2
    89    88    87    1
    90    35    34    2
    91   183   184    1
    92    98   107   am
    93    39    37   ar
    94   153   152    1
    95   187   188    1
    96    34    33    1
    97    42    40   ar
    98   184   185    2
    99   138   137    1
   100   107   108    1
   101    37    36    1
   102    37    38   ar
   103   152   154    1
   104   152   149    1
   105   139   137    1
   106    40    38   ar
   107    33    36    1
   108    33    32    1
   109   114   112   ar
   110   111   108    1
   111   111   112    1
   112   137   136    1
   113   108   109    1
   114   136   133    1
   115   210   208   ar
   116   210   211   ar
   117   200   198    1
   118   149   150    1
   119   149   148    1
   120   151   150    2
   121   112   113   ar
   122   208   206   ar
   123   211   209   ar
   124   150   156   am
   125   148   142   am
   126   198   197    2
   127   198   199    1
   128   197   196    1
   129   109   110    2
   130   109   115   am
   131   190   191    1
   132   132   133    1
   133   133   134    1
   134   135   134    2
   135   195   194    1
   136   195   196    1
   137   134   140   am
   138   206   205    1
   139   206   207   ar
   140   142   143    2
   141   142   141    1
   142    30    31   ar
   143    30    28   ar
   144   209   207   ar
   145   156   157    1
   146    31    29   ar
   147   115   116    1
   148   194   191    1
   149   215   214    2
   150   140   141    1
   151   191   192    1
   152   205   202    1
   153   141   144    1
   154   157   158    1
   155   157   160    1
   156    28    25   ar
   157   201   192   am
   158   201   202    1
   159   214   213    1
   160    29    27   ar
   161   129   128    2
   162   162   160    1
   163   192   193    2
   164   158   159    2
   165   116   119    1
   166   116   117    1
   167   202   203    1
   168    25    27   ar
   169    25    23   ar
   170   204   203    2
   171    27    26   ar
   172   160   161    1
   173   146   145   ar
   174   126   117   am
   175   126   127    1
   176   119   120    1
   177   121   123   ar
   178   121   120   ar
   179   144   145    1
   180   128   127    1
   181   213   212    1
   182   213   216    1
   183   123   125   ar
   184   117   118    2
   185   120   122   ar
   186   130   131    1
   187   130   127    1
   188    23    22    1
   189    23    24   ar
   190   145   147   ar
   191    26    24   ar
   192    22    19    1
   193   216   217    1
   194   125   124   ar
   195   122   124   ar
   196    21    20    2
   197    19    20    1
   198    19    18    1
   199   217   218    1
   200   219   218   ar
   201   218   220   ar
   202     8     6   am
   203    17    16    1
   204    15    16    1
   205    15    14    1
   206     6     7    2
   207     6     5    1
   208    13    14    1
   209    13    10    1
   210    12    11    2
   211    11    10    1
   212     5     2    1
   213    10     9    1
   214     4     3    2
   215     2     3    1
   216     2     1    1
