@<TRIPOS>MOLECULE
tmp/3iv8A00.pdb
 129 124 0 0 0
SMALL
GASTEIGER

@<TRIPOS>ATOM
      1  N        -17.4560  -16.7750   34.5670 N.3   129  GLU129     -0.1245
      2  CA       -16.4600  -17.5940   33.8650 C.3   129  GLU129      0.1567
      3  C        -16.9350  -19.0300   33.6410 C.2   129  GLU129      0.2260
      4  O        -16.7240  -19.8990   34.4690 O.2   129  GLU129     -0.2867
      5  CB       -15.1300  -17.5870   34.6150 C.3   129  GLU129      0.0388
      6  CG       -13.9730  -18.1840   33.8130 C.3   129  GLU129      0.1160
      7  CD       -12.8180  -18.6050   34.7110 C.2   129  GLU129      0.3649
      8  OE1      -12.6920  -18.1090   35.8620 O.co2 129  GLU129     -0.2457
      9  OE2      -11.9950  -19.4250   34.2640 O.co2 129  GLU129     -0.2457
     10  N        -10.5560  -27.8290   27.3810 N.3   137  LYS137     -0.1245
     11  CA        -9.6920  -26.8920   28.0640 C.3   137  LYS137      0.1561
     12  C        -10.3180  -26.5280   29.3800 C.2   137  LYS137      0.2260
     13  O        -10.2760  -25.3560   29.7780 O.2   137  LYS137     -0.2867
     14  CB        -9.4140  -25.6690   27.1900 C.3   137  LYS137      0.0271
     15  CG        -8.4870  -25.9800   26.0260 C.3   137  LYS137      0.0035
     16  CD        -7.0280  -26.0510   26.4390 C.3   137  LYS137      0.0206
     17  CE        -6.1750  -26.2560   25.2010 C.3   137  LYS137      0.1093
     18  NZ        -4.7580  -26.1640   25.6420 N.3   137  LYS137     -0.1314
     19  N         -9.7270  -27.1590   32.5590 N.3   139  GLY139     -0.1210
     20  CA        -9.0290  -27.1000   33.8120 C.3   139  GLY139      0.1956
     21  C         -9.8430  -27.6650   34.9580 C.2   139  GLY139      0.2612
     22  O        -10.2240  -28.8420   34.9540 O.2   139  GLY139     -0.2717
     23  N        -10.1120  -26.8060   35.9270 N.am  140  ILE140     -0.1965
     24  CA       -10.8120  -27.1600   37.1280 C.3   140  ILE140      0.1727
     25  C        -12.3400  -27.1570   36.9370 C.2   140  ILE140      0.2616
     26  O        -13.0720  -27.5750   37.8390 O.2   140  ILE140     -0.2715
     27  CB       -10.3940  -26.1940   38.2630 C.3   140  ILE140      0.0290
     28  CG1      -10.5400  -26.8570   39.6130 C.3   140  ILE140      0.0022
     29  CG2      -11.1450  -24.8500   38.2170 C.3   140  ILE140      0.0023
     30  CD1       -9.3000  -27.6580   40.0220 C.3   140  ILE140      0.0001
     31  N        -12.8110  -26.6950   35.7670 N.am  141  HIS141     -0.1973
     32  CA       -14.2590  -26.5260   35.5050 C.3   141  HIS141      0.1656
     33  C        -14.9900  -27.8330   35.4180 C.2   141  HIS141      0.2291
     34  O        -14.4060  -28.8450   35.0070 O.2   141  HIS141     -0.2864
     35  CB       -14.5230  -25.6790   34.2720 C.3   141  HIS141      0.0771
     36  CG       -14.1960  -24.2520   34.4880 C.ar  141  HIS141      0.0820
     37  ND1      -15.1420  -23.3230   34.8390 N.ar  141  HIS141     -0.2267
     38  CD2      -13.0060  -23.6090   34.5130 C.ar  141  HIS141      0.1154
     39  CE1      -14.5550  -22.1530   35.0180 C.ar  141  HIS141      0.1986
     40  NE2      -13.2560  -22.3030   34.8440 N.ar  141  HIS141     -0.2212
     41  N        -10.7350  -20.8150   28.1590 N.3   193  HIS193     -0.1241
     42  CA       -11.0430  -22.2280   28.2810 C.3   193  HIS193      0.1621
     43  C        -11.5110  -22.7370   26.9330 C.2   193  HIS193      0.2264
     44  O        -12.5550  -23.3940   26.8330 O.2   193  HIS193     -0.2867
     45  CB       -12.0760  -22.4550   29.3880 C.3   193  HIS193      0.0745
     46  CG       -11.5390  -22.1730   30.7560 C.ar  193  HIS193      0.0817
     47  ND1      -10.8660  -23.1180   31.5000 N.ar  193  HIS193     -0.2268
     48  CD2      -11.5070  -21.0290   31.4870 C.ar  193  HIS193      0.1154
     49  CE1      -10.4680  -22.5760   32.6390 C.ar  193  HIS193      0.1986
     50  NE2      -10.8320  -21.3050   32.6540 N.ar  193  HIS193     -0.2212
     51  N         -6.9450  -15.0800   31.5550 N.3   214  HIS214     -0.1241
     52  CA        -5.6450  -15.6680   31.9140 C.3   214  HIS214      0.1621
     53  C         -4.8120  -16.2190   30.7650 C.2   214  HIS214      0.2264
     54  O         -4.6870  -17.4570   30.5680 O.2   214  HIS214     -0.2867
     55  CB        -5.7050  -16.6270   33.1160 C.3   214  HIS214      0.0745
     56  CG        -6.7440  -17.7040   33.0160 C.ar  214  HIS214      0.0817
     57  ND1       -7.0170  -18.3850   31.8530 N.ar  214  HIS214     -0.2268
     58  CD2       -7.5340  -18.2580   33.9600 C.ar  214  HIS214      0.1154
     59  CE1       -7.9410  -19.2960   32.0710 C.ar  214  HIS214      0.1986
     60  NE2       -8.2810  -19.2300   33.3410 N.ar  214  HIS214     -0.2212
     61  N         -2.3930  -17.7040   28.3250 N.3   216  PHE216     -0.1227
     62  CA        -1.5430  -18.9280   28.3710 C.3   216  PHE216      0.1736
     63  C         -2.1390  -20.1350   29.0490 C.2   216  PHE216      0.2595
     64  O         -1.7150  -21.2740   28.7980 O.2   216  PHE216     -0.2718
     65  CB        -0.2050  -18.6660   29.0130 C.3   216  PHE216      0.0547
     66  CG         0.7450  -17.9840   28.1170 C.ar  216  PHE216     -0.0202
     67  CD1        1.1930  -18.6330   26.9430 C.ar  216  PHE216     -0.0042
     68  CD2        1.2210  -16.6940   28.4330 C.ar  216  PHE216     -0.0042
     69  CE1        2.1100  -18.0020   26.0920 C.ar  216  PHE216     -0.0003
     70  CE2        2.1050  -16.0610   27.6030 C.ar  216  PHE216     -0.0003
     71  CZ         2.5470  -16.7130   26.4010 C.ar  216  PHE216     -0.0000
     72  N         -3.0760  -19.8630   29.9530 N.am  217  ASN217     -0.1960
     73  CA        -3.8020  -20.8910   30.7080 C.3   217  ASN217      0.1819
     74  C         -5.1220  -21.2670   30.0130 C.2   217  ASN217      0.2621
     75  O         -5.9350  -20.3840   29.7200 O.2   217  ASN217     -0.2715
     76  CB        -4.0920  -20.3770   32.1340 C.3   217  ASN217      0.1195
     77  CG        -2.8320  -20.1640   32.9520 C.2   217  ASN217      0.2630
     78  OD1       -2.7100  -19.1800   33.6780 O.2   217  ASN217     -0.2716
     79  ND2       -1.8860  -21.0830   32.8330 N.am  217  ASN217     -0.0877
     80  N         -5.3360  -22.5650   29.7900 N.am  218  ALA218     -0.1963
     81  CA        -6.6010  -23.0800   29.2390 C.3   218  ALA218      0.1728
     82  C         -6.9120  -22.4600   27.8640 C.2   218  ALA218      0.2616
     83  O         -8.0610  -22.0570   27.5530 O.2   218  ALA218     -0.2715
     84  CB        -7.7560  -22.9120   30.2280 C.3   218  ALA218      0.0334
     85  N         -5.8650  -22.3890   27.0380 N.am  219  MET219     -0.1977
     86  CA        -6.0140  -21.8680   25.6980 C.3   219  MET219      0.1605
     87  C         -4.9580  -22.4290   24.7720 C.2   219  MET219      0.2287
     88  O         -3.8420  -22.6940   25.2020 O.2   219  MET219     -0.2864
     89  CB        -5.9900  -20.3310   25.7050 C.3   219  MET219      0.0413
     90  CG        -4.8360  -19.7140   26.4380 C.3   219  MET219      0.0598
     91  SD        -4.6710  -17.9860   26.0280 S.3   219  MET219     -0.1393
     92  CE        -6.1030  -17.2490   26.8490 C.3   219  MET219      0.0692
     93  N          1.5960  -20.0360   37.4610 N.3   249  HIS249     -0.1241
     94  CA         0.7060  -20.1350   36.3170 C.3   249  HIS249      0.1621
     95  C          1.4020  -19.9110   34.9960 C.2   249  HIS249      0.2264
     96  O          1.0750  -20.5780   34.0270 O.2   249  HIS249     -0.2867
     97  CB        -0.4250  -19.1530   36.4450 C.3   249  HIS249      0.0745
     98  CG        -1.6080  -19.6930   37.1840 C.ar  249  HIS249      0.0817
     99  ND1       -1.6680  -19.7390   38.5630 N.ar  249  HIS249     -0.2268
    100  CD2       -2.7940  -20.1640   36.7410 C.ar  249  HIS249      0.1154
    101  CE1       -2.8320  -20.2410   38.9350 C.ar  249  HIS249      0.1986
    102  NE2       -3.5290  -20.5180   37.8480 N.ar  249  HIS249     -0.2212
    103  N         -7.0540  -14.3110   39.9150 N.3   271  ASP271     -0.1239
    104  CA        -7.7630  -15.5780   39.7940 C.3   271  ASP271      0.1674
    105  C         -7.7220  -16.2750   41.1420 C.2   271  ASP271      0.2266
    106  O         -7.6020  -17.5040   41.2460 O.2   271  ASP271     -0.2867
    107  CB        -7.2030  -16.4700   38.6840 C.3   271  ASP271      0.1410
    108  CG        -8.1880  -17.5810   38.2890 C.2   271  ASP271      0.3668
    109  OD1       -9.3980  -17.3390   38.4500 O.co2 271  ASP271     -0.2456
    110  OD2       -7.7730  -18.6870   37.8370 O.co2 271  ASP271     -0.2456
    111  N         -3.7300  -30.3360   38.3160 N.3   303  THR303     -0.1203
    112  CA        -4.2370  -29.2440   37.5080 C.3   303  THR303      0.1994
    113  C         -4.3800  -28.0320   38.4280 C.2   303  THR303      0.2617
    114  O         -4.9060  -28.1400   39.5570 O.2   303  THR303     -0.2717
    115  CB        -5.6200  -29.5630   36.8840 C.3   303  THR303      0.1784
    116  OG1       -5.6170  -30.8780   36.2870 O.3   303  THR303     -0.2211
    117  CG2       -6.0120  -28.5030   35.8840 C.3   303  THR303      0.0376
    118  N         -3.9260  -26.8760   37.9530 N.am  304  LEU304     -0.1979
    119  CA        -4.0000  -25.6520   38.7680 C.3   304  LEU304      0.1596
    120  C         -5.4540  -25.2230   38.8560 C.2   304  LEU304      0.2287
    121  O         -6.1920  -25.3930   37.9050 O.2   304  LEU304     -0.2864
    122  CB        -3.1020  -24.5440   38.2250 C.3   304  LEU304      0.0297
    123  CG        -1.5820  -24.7860   38.1580 C.3   304  LEU304      0.0022
    124  CD1       -1.0290  -23.9150   37.0260 C.3   304  LEU304      0.0001
    125  CD2       -0.9320  -24.4240   39.4300 C.3   304  LEU304      0.0001
    126  N         -7.1680  -22.1030   40.0300 N.3   306  GLY306     -0.1225
    127  CA        -6.9760  -20.7570   40.5450 C.3   306  GLY306      0.1811
    128  C         -5.7110  -20.6020   41.3720 C.2   306  GLY306      0.2280
    129  O         -4.8840  -21.5140   41.4450 O.2   306  GLY306     -0.2866
@<TRIPOS>BOND
     1    87    88    2
     2    87    86    1
     3    17    18    1
     4    17    16    1
     5    86    89    1
     6    86    85    1
     7    89    90    1
     8    15    16    1
     9    15    14    1
    10    91    90    1
    11    91    92    1
    12    69    71   ar
    13    69    67   ar
    14    71    70   ar
    15    44    43    2
    16    43    42    1
    17    67    66   ar
    18    85    82   am
    19    14    11    1
    20    10    11    1
    21    83    82    2
    22    70    68   ar
    23    82    81    1
    24    11    12    1
    25    66    68   ar
    26    66    65    1
    27    41    42    1
    28    42    45    1
    29    61    62    1
    30    62    65    1
    31    62    63    1
    32    64    63    2
    33    63    72   am
    34    81    80    1
    35    81    84    1
    36    12    13    2
    37    45    46    1
    38    75    74    2
    39    80    74   am
    40    72    73    1
    41    74    73    1
    42    54    53    2
    43    73    76    1
    44    46    48   ar
    45    46    47   ar
    46    53    52    1
    47    48    50   ar
    48    47    49   ar
    49    51    52    1
    50    57    59   ar
    51    57    56   ar
    52    52    55    1
    53    59    60   ar
    54    76    77    1
    55    19    20    1
    56    49    50   ar
    57    79    77   am
    58    77    78    2
    59    56    55    1
    60    56    58   ar
    61    60    58   ar
    62     3     2    1
    63     3     4    2
    64    20    21    1
    65     6     5    1
    66     6     7    1
    67     2     1    1
    68     2     5    1
    69    96    95    2
    70     9     7   ar
    71    35    36    1
    72    35    32    1
    73    36    38   ar
    74    36    37   ar
    75    38    40   ar
    76     7     8   ar
    77    37    39   ar
    78    40    39   ar
    79    22    21    2
    80    21    23   am
    81    95    94    1
    82    34    33    2
    83    33    32    1
    84    32    31    1
    85    31    25   am
    86   117   115    1
    87    23    24    1
    88   116   115    1
    89    94    97    1
    90    94    93    1
    91    97    98    1
    92   100    98   ar
    93   100   102   ar
    94   115   112    1
    95    25    24    1
    96    25    26    2
    97   124   123    1
    98    24    27    1
    99    98    99   ar
   100   112   111    1
   101   112   113    1
   102   110   108   ar
   103   102   101   ar
   104   121   120    2
   105   118   113   am
   106   118   119    1
   107   123   122    1
   108   123   125    1
   109    29    27    1
   110   122   119    1
   111    27    28    1
   112   108   109   ar
   113   108   107    1
   114   113   114    2
   115    99   101   ar
   116   107   104    1
   117   119   120    1
   118    28    30    1
   119   104   103    1
   120   104   105    1
   121   126   127    1
   122   127   128    1
   123   105   106    2
   124   128   129    2
