@<TRIPOS>MOLECULE
tmp/3ivbA00.pdb
 183 182 0 0 0
SMALL
GASTEIGER

@<TRIPOS>ATOM
      1  N          8.2720  -18.8130   -6.1580 N.3    43  ARG43      -0.1245
      2  CA         8.0130  -18.3180   -4.8210 C.3    43  ARG43       0.1563
      3  C          8.8660  -17.0630   -4.5860 C.2    43  ARG43       0.2260
      4  O         10.0710  -17.0390   -4.8810 O.2    43  ARG43      -0.2867
      5  CB         8.3360  -19.4110   -3.8080 C.3    43  ARG43       0.0307
      6  CG         8.4320  -18.9570   -2.3870 C.3    43  ARG43       0.0489
      7  CD         9.5690  -19.6840   -1.6950 C.3    43  ARG43       0.2205
      8  NE         9.9160  -19.0180   -0.4510 N.pl3  43  ARG43      -0.0865
      9  CZ         9.9390  -19.6120    0.7340 C.cat  43  ARG43       0.5346
     10  NH1        9.6620  -20.9040    0.8320 N.pl3  43  ARG43       0.1354
     11  NH2       10.2590  -18.9140    1.8120 N.pl3  43  ARG43       0.1354
     12  N          9.8860  -14.0030   -1.6910 N.3    45  ASN45      -0.1240
     13  CA         9.8360  -13.3160   -0.4060 C.3    45  ASN45       0.1653
     14  C         10.0520  -11.8200   -0.6720 C.2    45  ASN45       0.2266
     15  O         11.1730  -11.3950   -0.9510 O.2    45  ASN45      -0.2867
     16  CB        10.8940  -13.8730    0.5530 C.3    45  ASN45       0.1155
     17  CG        10.8710  -15.4020    0.6320 C.2    45  ASN45       0.2627
     18  OD1        9.8090  -16.0230    0.6170 O.2    45  ASN45      -0.2716
     19  ND2       12.0460  -16.0070    0.7090 N.am   45  ASN45      -0.0877
     20  N         12.6050  -17.9380   -5.8500 N.3    60  TYR60      -0.1241
     21  CA        12.9030  -19.3810   -5.9170 C.3    60  TYR60       0.1605
     22  C         11.9940  -20.1140   -6.8870 C.2    60  TYR60       0.2264
     23  O         10.8510  -19.6980   -7.1050 O.2    60  TYR60      -0.2867
     24  CB        12.7020  -20.0260   -4.5410 C.3    60  TYR60       0.0534
     25  CG        13.6820  -19.5120   -3.5200 C.ar   60  TYR60      -0.0201
     26  CD1       14.9340  -20.1030   -3.3650 C.ar   60  TYR60      -0.0009
     27  CD2       13.3780  -18.3960   -2.7490 C.ar   60  TYR60      -0.0009
     28  CE1       15.8540  -19.5990   -2.4340 C.ar   60  TYR60       0.0417
     29  CE2       14.2820  -17.8940   -1.8250 C.ar   60  TYR60       0.0417
     30  CZ        15.5090  -18.4950   -1.6740 C.ar   60  TYR60       0.1957
     31  OH        16.4000  -17.9730   -0.7600 O.3    60  TYR60      -0.2866
     32  N         17.8810  -23.2160  -14.0160 N.3    74  PHE74      -0.1241
     33  CA        16.8630  -22.1610  -14.0570 C.3    74  PHE74       0.1605
     34  C         17.4990  -20.7870  -14.1960 C.2    74  PHE74       0.2264
     35  O         18.6330  -20.5700  -13.7880 O.2    74  PHE74      -0.2867
     36  CB        15.9930  -22.1990  -12.7950 C.3    74  PHE74       0.0534
     37  CG        16.7870  -22.2880  -11.5220 C.ar   74  PHE74      -0.0203
     38  CD1       17.0910  -23.5270  -10.9740 C.ar   74  PHE74      -0.0042
     39  CD2       17.2470  -21.1380  -10.8860 C.ar   74  PHE74      -0.0042
     40  CE1       17.8430  -23.6270   -9.8150 C.ar   74  PHE74      -0.0003
     41  CE2       17.9980  -21.2240   -9.7160 C.ar   74  PHE74      -0.0003
     42  CZ        18.2900  -22.4720   -9.1810 C.ar   74  PHE74      -0.0000
     43  N         19.4330  -13.6680  -13.5830 N.3    89  MET89      -0.1230
     44  CA        20.2930  -14.4160  -12.6920 C.3    89  MET89       0.1702
     45  C         20.0210  -15.8840  -12.9830 C.2    89  MET89       0.2592
     46  O         18.8640  -16.3000  -13.0080 O.2    89  MET89      -0.2718
     47  CB        19.9860  -14.0450  -11.2380 C.3    89  MET89       0.0401
     48  CG        21.0580  -14.4220  -10.2330 C.3    89  MET89       0.0596
     49  SD        20.7700  -13.7170   -8.5950 S.3    89  MET89      -0.1393
     50  CE        21.2730  -12.0070   -8.8070 C.3    89  MET89       0.0692
     51  N         21.0770  -16.6520  -13.2530 N.am   90  GLU90      -0.1966
     52  CA        20.8870  -18.0540  -13.6030 C.3    90  GLU90       0.1733
     53  C         21.7980  -19.0230  -12.8630 C.2    90  GLU90       0.2617
     54  O         22.9290  -18.6760  -12.4880 O.2    90  GLU90      -0.2715
     55  CB        20.9080  -18.2650  -15.1240 C.3    90  GLU90       0.0429
     56  CG        22.2380  -18.2850  -15.8100 C.3    90  GLU90       0.1163
     57  CD        22.0910  -18.4750  -17.3270 C.2    90  GLU90       0.3649
     58  OE1       22.4650  -17.5560  -18.0780 O.co2  90  GLU90      -0.2457
     59  OE2       21.5790  -19.5300  -17.7700 O.co2  90  GLU90      -0.2457
     60  N         21.2840  -20.2280  -12.6350 N.am   91  SER91      -0.1936
     61  CA        22.0430  -21.2590  -11.9280 C.3    91  SER91       0.2055
     62  C         23.2170  -21.7010  -12.7990 C.2    91  SER91       0.2643
     63  O         23.0900  -21.7760  -14.0170 O.2    91  SER91      -0.2714
     64  CB        21.1420  -22.4480  -11.5810 C.3    91  SER91       0.2130
     65  OG        20.6900  -23.1140  -12.7530 O.3    91  SER91      -0.2179
     66  N         24.3580  -21.9940  -12.1790 N.am   92  GLN92      -0.1963
     67  CA        25.5450  -22.3980  -12.9400 C.3    92  GLN92       0.1733
     68  C         25.4710  -23.8530  -13.3580 C.2    92  GLN92       0.2616
     69  O         26.2550  -24.3060  -14.1970 O.2    92  GLN92      -0.2715
     70  CB        26.8160  -22.1620  -12.1230 C.3    92  GLN92       0.0408
     71  CG        27.1510  -20.7010  -11.8900 C.3    92  GLN92       0.0908
     72  CD        28.3180  -20.5310  -10.9280 C.2    92  GLN92       0.2608
     73  OE1       29.2320  -21.3690  -10.8730 O.2    92  GLN92      -0.2717
     74  NE2       28.2890  -19.4500  -10.1530 N.am   92  GLN92      -0.0878
     75  N         24.5330  -24.5820  -12.7520 N.am   93  ARG93      -0.1977
     76  CA        24.3380  -26.0050  -12.9680 C.3    93  ARG93       0.1597
     77  C         22.9000  -26.3770  -12.6460 C.2    93  ARG93       0.2287
     78  O         22.1450  -25.5520  -12.1280 O.2    93  ARG93      -0.2864
     79  CB        25.2740  -26.8100  -12.0650 C.3    93  ARG93       0.0334
     80  CG        25.0420  -26.6050  -10.5770 C.3    93  ARG93       0.0492
     81  CD        26.2270  -27.1070   -9.7690 C.3    93  ARG93       0.2205
     82  NE        27.4760  -26.4790  -10.2050 N.pl3  93  ARG93      -0.0865
     83  CZ        27.9990  -25.3780   -9.6690 C.cat  93  ARG93       0.5346
     84  NH1       27.3890  -24.7650   -8.6600 N.pl3  93  ARG93       0.1354
     85  NH2       29.1370  -24.8850  -10.1470 N.pl3  93  ARG93       0.1354
     86  N         20.1920  -28.4160  -10.4360 N.3    95  TYR95      -0.1227
     87  CA        20.0780  -28.8940   -9.0680 C.3    95  TYR95       0.1736
     88  C         19.0160  -29.9620   -8.9540 C.2    95  TYR95       0.2595
     89  O         18.0970  -30.0280   -9.7710 O.2    95  TYR95      -0.2718
     90  CB        19.7980  -27.7380   -8.1020 C.3    95  TYR95       0.0548
     91  CG        20.9940  -26.8270   -7.9530 C.ar   95  TYR95      -0.0200
     92  CD1       21.9810  -27.1070   -7.0050 C.ar   95  TYR95      -0.0009
     93  CD2       21.1650  -25.7170   -8.7810 C.ar   95  TYR95      -0.0009
     94  CE1       23.1120  -26.2940   -6.8710 C.ar   95  TYR95       0.0417
     95  CE2       22.2980  -24.8790   -8.6500 C.ar   95  TYR95       0.0417
     96  CZ        23.2620  -25.1890   -7.6910 C.ar   95  TYR95       0.1957
     97  OH        24.3810  -24.4160   -7.5350 O.3    95  TYR95      -0.2866
     98  N         19.1640  -30.8040   -7.9370 N.am   96  ARG96      -0.1980
     99  CA        18.2170  -31.8890   -7.6650 C.3    96  ARG96       0.1597
    100  C         16.9490  -31.3380   -7.0100 C.2    96  ARG96       0.2287
    101  O         17.0130  -30.6510   -5.9970 O.2    96  ARG96      -0.2864
    102  CB        18.8870  -32.9550   -6.7690 C.3    96  ARG96       0.0334
    103  CG        17.9450  -33.9790   -6.1230 C.3    96  ARG96       0.0492
    104  CD        17.5930  -35.1660   -7.0270 C.3    96  ARG96       0.2205
    105  NE        18.7460  -35.9900   -7.3830 N.pl3  96  ARG96      -0.0865
    106  CZ        19.0690  -36.3120   -8.6390 C.cat  96  ARG96       0.5346
    107  NH1       18.3100  -35.8920   -9.6500 N.pl3  96  ARG96       0.1354
    108  NH2       20.1350  -37.0670   -8.8930 N.pl3  96  ARG96       0.1354
    109  N         13.1180  -32.4550   -5.4610 N.3    98  VAL98      -0.1231
    110  CA        12.0840  -33.4200   -5.0740 C.3    98  VAL98       0.1692
    111  C         10.8340  -32.6160   -4.7360 C.2    98  VAL98       0.2592
    112  O         10.8980  -31.3850   -4.6710 O.2    98  VAL98      -0.2718
    113  CB        12.5110  -34.2820   -3.8670 C.3    98  VAL98       0.0266
    114  CG1       13.6720  -35.1910   -4.2490 C.3    98  VAL98       0.0020
    115  CG2       12.8570  -33.4010   -2.6580 C.3    98  VAL98       0.0020
    116  N          9.6980  -33.2820   -4.5140 N.am   99  GLN99      -0.1966
    117  CA         8.4970  -32.5470   -4.1550 C.3    99  GLN99       0.1733
    118  C          8.7510  -31.6410   -2.9410 C.2    99  GLN99       0.2617
    119  O          9.2580  -32.0940   -1.9100 O.2    99  GLN99      -0.2715
    120  CB         7.3230  -33.4800   -3.8740 C.3    99  GLN99       0.0408
    121  CG         6.0040  -32.7370   -3.7570 C.3    99  GLN99       0.0908
    122  CD         4.8390  -33.6380   -3.3870 C.2    99  GLN99       0.2608
    123  OE1        4.9350  -34.4640   -2.4740 O.2    99  GLN99      -0.2717
    124  NE2        3.7220  -33.4660   -4.0800 N.am   99  GLN99      -0.0878
    125  N          8.4200  -30.3610   -3.0880 N.am  100  GLY100     -0.1940
    126  CA         8.5840  -29.3750   -2.0190 C.3   100  GLY100      0.2014
    127  C          9.9540  -28.7280   -1.9120 C.2   100  GLY100      0.2639
    128  O         10.1800  -27.8540   -1.0560 O.2   100  GLY100     -0.2714
    129  N         10.8890  -29.1530   -2.7530 N.am  101  LYS101     -0.1963
    130  CA        12.2210  -28.5670   -2.7340 C.3   101  LYS101      0.1728
    131  C         12.2470  -27.3300   -3.6180 C.2   101  LYS101      0.2616
    132  O         11.7190  -27.3570   -4.7350 O.2   101  LYS101     -0.2715
    133  CB        13.2710  -29.5630   -3.2310 C.3   101  LYS101      0.0311
    134  CG        14.7060  -29.0020   -3.2460 C.3   101  LYS101      0.0038
    135  CD        15.2430  -28.7370   -1.8220 C.3   101  LYS101      0.0206
    136  CE        16.7450  -28.4780   -1.8440 C.3   101  LYS101      0.1093
    137  NZ        17.2170  -28.1730   -0.4560 N.3   101  LYS101     -0.1314
    138  N         12.8570  -26.2570   -3.1090 N.am  102  ASP102     -0.1957
    139  CA        13.1070  -25.0700   -3.9300 C.3   102  ASP102      0.1840
    140  C         14.6080  -24.7920   -4.1000 C.2   102  ASP102      0.2622
    141  O         15.4420  -25.2740   -3.3140 O.2   102  ASP102     -0.2715
    142  CB        12.3630  -23.8280   -3.4190 C.3   102  ASP102      0.1450
    143  CG        12.8370  -23.3570   -2.0590 C.2   102  ASP102      0.3671
    144  OD1       14.0550  -23.3550   -1.7720 O.co2 102  ASP102     -0.2456
    145  OD2       11.9630  -22.9480   -1.2740 O.co2 102  ASP102     -0.2456
    146  N         14.9290  -24.0520   -5.1520 N.am  103  TRP103     -0.1960
    147  CA        16.2770  -23.5480   -5.4040 C.3   103  TRP103      0.1771
    148  C         16.1080  -22.1750   -6.0260 C.2   103  TRP103      0.2620
    149  O         15.1720  -21.9440   -6.7980 O.2   103  TRP103     -0.2715
    150  CB        17.0400  -24.4410   -6.3830 C.3   103  TRP103      0.0590
    151  CG        17.5560  -25.7220   -5.7830 C.ar  103  TRP103      0.0006
    152  CD1       17.0360  -26.9780   -5.9460 C.ar  103  TRP103      0.0946
    153  CD2       18.7100  -25.8680   -4.9440 C.ar  103  TRP103      0.0152
    154  NE1       17.7970  -27.9000   -5.2490 N.ar  103  TRP103     -0.2442
    155  CE2       18.8300  -27.2410   -4.6310 C.ar  103  TRP103      0.0810
    156  CE3       19.6560  -24.9670   -4.4290 C.ar  103  TRP103      0.0012
    157  CZ2       19.8470  -27.7370   -3.8080 C.ar  103  TRP103      0.0191
    158  CZ3       20.6820  -25.4640   -3.6160 C.ar  103  TRP103      0.0001
    159  CH2       20.7600  -26.8350   -3.3110 C.ar  103  TRP103      0.0015
    160  N         17.0230  -21.2730   -5.7180 N.am  104  GLY104     -0.1940
    161  CA        16.9040  -19.9120   -6.2420 C.3   104  GLY104      0.2014
    162  C         17.9440  -18.9880   -5.6630 C.2   104  GLY104      0.2639
    163  O         19.0680  -19.4160   -5.3810 O.2   104  GLY104     -0.2714
    164  N         17.5790  -17.7120   -5.5280 N.am  105  PHE105     -0.1959
    165  CA        18.5310  -16.6690   -5.1140 C.3   105  PHE105      0.1771
    166  C         17.9330  -15.7680   -4.0620 C.2   105  PHE105      0.2619
    167  O         16.9930  -15.0050   -4.3440 O.2   105  PHE105     -0.2715
    168  CB        18.9600  -15.8450   -6.3280 C.3   105  PHE105      0.0574
    169  CG        19.5910  -16.6700   -7.3970 C.ar  105  PHE105     -0.0200
    170  CD1       20.8910  -17.1440   -7.2290 C.ar  105  PHE105     -0.0042
    171  CD2       18.8750  -17.0230   -8.5470 C.ar  105  PHE105     -0.0042
    172  CE1       21.4880  -17.9300   -8.2110 C.ar  105  PHE105     -0.0003
    173  CE2       19.4690  -17.8080   -9.5470 C.ar  105  PHE105     -0.0003
    174  CZ        20.7750  -18.2570   -9.3760 C.ar  105  PHE105     -0.0000
    175  N         18.4660  -15.8450   -2.8470 N.am  106  LYS106     -0.1977
    176  CA        17.9460  -15.0630   -1.7310 C.3   106  LYS106      0.1596
    177  C         18.1990  -13.5740   -1.9370 C.2   106  LYS106      0.2287
    178  O         17.4570  -12.7330   -1.4280 O.2   106  LYS106     -0.2864
    179  CB        18.5740  -15.5260   -0.4150 C.3   106  LYS106      0.0298
    180  CG        20.0800  -15.3370   -0.3450 C.3   106  LYS106      0.0038
    181  CD        20.5560  -15.2210    1.0940 C.3   106  LYS106      0.0206
    182  CE        20.8050  -16.5900    1.7060 C.3   106  LYS106      0.1093
    183  NZ        21.3250  -16.4900    3.0970 N.3   106  LYS106     -0.1314
@<TRIPOS>BOND
     1    58    57   ar
     2    59    57   ar
     3    57    56    1
     4    56    55    1
     5    55    52    1
     6    69    68    2
     7    34    33    1
     8    34    35    2
     9    33    32    1
    10    33    36    1
    11    63    62    2
    12    52    51    1
    13    52    53    1
    14    43    44    1
    15    68    67    1
    16    68    75   am
    17    51    45   am
    18    46    45    2
    19    45    44    1
    20    76    75    1
    21    76    77    1
    22    76    79    1
    23    67    66    1
    24    67    70    1
    25    53    60   am
    26    53    54    2
    27    62    66   am
    28    62    61    1
    29    36    37    1
    30    65    64    1
    31    44    47    1
    32    77    78    2
    33    60    61    1
    34    70    71    1
    35    79    80    1
    36    61    64    1
    37    71    72    1
    38    37    38   ar
    39    37    39   ar
    40    47    48    1
    41    38    40   ar
    42    72    73    2
    43    72    74   am
    44    39    41   ar
    45    80    81    1
    46    86    87    1
    47    48    49    1
    48    82    81    1
    49    82    83    2
    50    85    83    1
    51    40    42   ar
    52    89    88    2
    53    41    42   ar
    54    83    84    1
    55   107   106    1
    56   173   174   ar
    57   173   171   ar
    58   174   172   ar
    59    87    88    1
    60    87    90    1
    61    88    98   am
    62   108   106    1
    63    50    49    1
    64    93    95   ar
    65    93    91   ar
    66    95    96   ar
    67   106   105    2
    68   171   169   ar
    69   172   170   ar
    70    90    91    1
    71    91    92   ar
    72    98    99    1
    73    96    97    1
    74    96    94   ar
    75    99   100    1
    76    99   102    1
    77   169   170   ar
    78   169   168    1
    79   105   104    1
    80    23    22    2
    81   104   103    1
    82   100   101    2
    83    92    94   ar
    84    22    21    1
    85   149   148    2
    86   102   103    1
    87   150   151    1
    88   150   147    1
    89   168   165    1
    90   161   160    1
    91   161   162    1
    92     1     2    1
    93   148   160   am
    94   148   147    1
    95   152   151   ar
    96   152   154   ar
    97    21    20    1
    98    21    24    1
    99   151   153   ar
   100   162   164   am
   101   162   163    2
   102   164   165    1
   103   109   110    1
   104   147   146    1
   105   154   155   ar
   106   146   140   am
   107   165   166    1
   108   110   111    1
   109   110   113    1
   110   153   155   ar
   111   153   156   ar
   112     4     3    2
   113     2     3    1
   114     2     5    1
   115   111   112    2
   116   111   116   am
   117   132   131    2
   118   155   157   ar
   119    24    25    1
   120   116   117    1
   121   156   158   ar
   122   167   166    2
   123   114   113    1
   124   117   120    1
   125   117   118    1
   126   140   139    1
   127   140   141    2
   128   124   122   am
   129   166   175   am
   130   139   142    1
   131   139   138    1
   132   120   121    1
   133   113   115    1
   134     5     6    1
   135   157   159   ar
   136   121   122    1
   137   131   138   am
   138   131   130    1
   139   158   159   ar
   140    25    26   ar
   141    25    27   ar
   142   142   143    1
   143   122   123    2
   144    26    28   ar
   145   134   133    1
   146   134   135    1
   147   133   130    1
   148   125   118   am
   149   125   126    1
   150   118   119    2
   151   175   176    1
   152   129   130    1
   153   129   127   am
   154    27    29   ar
   155    28    30   ar
   156     6     7    1
   157   143   144   ar
   158   143   145   ar
   159   126   127    1
   160   177   176    1
   161   177   178    2
   162   127   128    2
   163   136   135    1
   164   136   137    1
   165    29    30   ar
   166   176   179    1
   167     7     8    1
   168    12    13    1
   169    30    31    1
   170    15    14    2
   171    14    13    1
   172     8     9    2
   173   179   180    1
   174    13    16    1
   175   180   181    1
   176    16    17    1
   177    18    17    2
   178    17    19   am
   179     9    10    1
   180     9    11    1
   181   181   182    1
   182   182   183    1
