@<TRIPOS>MOLECULE
tmp/3ivcA00.pdb
 208 200 0 0 0
SMALL
GASTEIGER

@<TRIPOS>ATOM
      1  N          8.0910   11.1690    5.9010 N.3    38  PRO38      -0.2102
      2  CA         9.2380   11.4430    6.7790 C.3    38  PRO38       0.1504
      3  C         10.4640   11.8370    5.9910 C.2    38  PRO38       0.2576
      4  O         10.8650   11.1420    5.0750 O.2    38  PRO38      -0.2718
      5  CB         9.4740   10.0900    7.5080 C.3    38  PRO38       0.0282
      6  CG         8.2520    9.2900    7.2660 C.3    38  PRO38       0.0208
      7  CD         7.7160    9.7310    5.9170 C.3    38  PRO38       0.0893
      8  N         11.0400   12.9840    6.3140 N.am   39  THR39      -0.1939
      9  CA        12.1860   13.4620    5.5870 C.3    39  THR39       0.2028
     10  C         13.2070   14.0470    6.5830 C.2    39  THR39       0.2642
     11  O         12.8950   14.3400    7.7660 O.2    39  THR39      -0.2714
     12  CB        11.8170   14.5710    4.5210 C.3    39  THR39       0.1808
     13  OG1       11.7400   15.8030    5.1910 O.3    39  THR39      -0.2208
     14  CG2       10.4750   14.3400    3.8680 C.3    39  THR39       0.0379
     15  N         14.4140   14.2370    6.0660 N.am   40  MET40      -0.1962
     16  CA        15.4140   14.9970    6.7160 C.3    40  MET40       0.1736
     17  C         15.6390   16.3800    6.0680 C.2    40  MET40       0.2617
     18  O         16.6900   16.9710    6.2090 O.2    40  MET40      -0.2715
     19  CB        16.6590   14.1490    6.7120 C.3    40  MET40       0.0427
     20  CG        16.4350   12.9400    7.6070 C.3    40  MET40       0.0599
     21  SD        17.9440   12.3730    8.4050 S.3    40  MET40      -0.1393
     22  CE        18.9270   12.0410    6.9510 C.3    40  MET40       0.0692
     23  N         14.6370   16.8730    5.3350 N.am   41  GLY41      -0.1955
     24  CA        14.7210   18.2100    4.7580 C.3    41  GLY41       0.1869
     25  C         15.5330   18.1650    3.4850 C.2    41  GLY41       0.2309
     26  O         15.6980   17.0900    2.8870 O.2    41  GLY41      -0.2863
     27  N         13.7890   17.7640   -2.5000 N.3    44  HIS44      -0.1241
     28  CA        13.9440   17.8210   -3.9630 C.3    44  HIS44       0.1621
     29  C         12.7440   17.1570   -4.6080 C.2    44  HIS44       0.2264
     30  O         11.7960   16.7420   -3.9110 O.2    44  HIS44      -0.2867
     31  CB        15.2710   17.1330   -4.3970 C.3    44  HIS44       0.0745
     32  CG        15.4820   15.7820   -3.7940 C.ar   44  HIS44       0.0817
     33  ND1       14.6600   14.7030   -4.0720 N.ar   44  HIS44      -0.2268
     34  CD2       16.4350   15.3280   -2.9370 C.ar   44  HIS44       0.1154
     35  CE1       15.0840   13.6490   -3.3790 C.ar   44  HIS44       0.1986
     36  NE2       16.1640   14.0030   -2.6980 N.ar   44  HIS44      -0.2212
     37  N         12.1200   14.2870   -5.7770 N.3    46  GLY46      -0.1210
     38  CA        11.8200   13.0060   -5.1550 C.3    46  GLY46       0.1956
     39  C         10.8770   13.0970   -3.9940 C.2    46  GLY46       0.2611
     40  O          9.9250   12.3310   -3.9070 O.2    46  GLY46      -0.2717
     41  N         11.1550   14.0100   -3.0700 N.am   47  HIS47      -0.1975
     42  CA        10.2540   14.2450   -1.9100 C.3    47  HIS47       0.1656
     43  C          8.8620   14.7370   -2.3770 C.2    47  HIS47       0.2291
     44  O          7.8010   14.3070   -1.8570 O.2    47  HIS47      -0.2864
     45  CB        10.8840   15.2670   -0.9610 C.3    47  HIS47       0.0771
     46  CG        12.1940   14.8360   -0.3620 C.ar   47  HIS47       0.0820
     47  ND1       13.3830   15.4720   -0.6450 N.ar   47  HIS47      -0.2267
     48  CD2       12.5060   13.8360    0.4960 C.ar   47  HIS47       0.1154
     49  CE1       14.3630   14.9240    0.0590 C.ar   47  HIS47       0.1986
     50  NE2       13.8590   13.9170    0.7490 N.ar   47  HIS47      -0.2212
     51  N          6.8270   12.0700   -3.4750 N.3    50  LEU50      -0.1245
     52  CA         6.2200   11.4270   -2.2620 C.3    50  LEU50       0.1561
     53  C          4.9910   12.1630   -1.7940 C.2    50  LEU50       0.2260
     54  O          3.9820   11.5380   -1.4490 O.2    50  LEU50      -0.2867
     55  CB         7.2390   11.2910   -1.0860 C.3    50  LEU50       0.0270
     56  CG         8.5660   10.5830   -1.3860 C.3    50  LEU50       0.0019
     57  CD1        9.5470   10.6510   -0.1790 C.3    50  LEU50       0.0001
     58  CD2        8.3030    9.1100   -1.8380 C.3    50  LEU50       0.0001
     59  N         21.3460    8.7800   13.5180 N.3    72  GLN72      -0.1245
     60  CA        21.8270    8.2260   12.2420 C.3    72  GLN72       0.1566
     61  C         23.0740    9.0250   11.7090 C.2    72  GLN72       0.2260
     62  O         23.3840    9.0170   10.5100 O.2    72  GLN72      -0.2867
     63  CB        20.6560    7.9560   11.2210 C.3    72  GLN72       0.0367
     64  CG        19.9110    9.1790   10.5810 C.3    72  GLN72       0.0905
     65  CD        18.5670    8.8260    9.8700 C.2    72  GLN72       0.2608
     66  OE1       17.4940    8.7580   10.4940 O.2    72  GLN72      -0.2717
     67  NE2       18.6290    8.6410    8.5600 N.am   72  GLN72      -0.0878
     68  N         24.6110   17.5210    7.1200 N.3    82  TYR82      -0.1241
     69  CA        23.5980   17.1890    6.1140 C.3    82  TYR82       0.1605
     70  C         22.9850   18.5000    5.5760 C.2    82  TYR82       0.2264
     71  O         22.8350   19.4720    6.3320 O.2    82  TYR82      -0.2867
     72  CB        22.5570   16.2530    6.7810 C.3    82  TYR82       0.0534
     73  CG        21.5580   15.6390    5.8420 C.ar   82  TYR82      -0.0201
     74  CD1       21.8350   14.4280    5.1820 C.ar   82  TYR82      -0.0009
     75  CD2       20.3460   16.2780    5.5760 C.ar   82  TYR82      -0.0009
     76  CE1       20.8840   13.8340    4.2810 C.ar   82  TYR82       0.0417
     77  CE2       19.4190   15.7370    4.6550 C.ar   82  TYR82       0.0417
     78  CZ        19.6880   14.5250    4.0180 C.ar   82  TYR82       0.1957
     79  OH        18.7470   14.0190    3.1270 O.3    82  TYR82      -0.2866
     80  N         17.4200    4.6630   12.3370 N.3   139  VAL139     -0.1245
     81  CA        16.3180    4.9150   11.4040 C.3   139  VAL139      0.1561
     82  C         15.0160    4.3610   11.9970 C.2   139  VAL139      0.2260
     83  O         14.0760    5.1040   12.1010 O.2   139  VAL139     -0.2867
     84  CB        16.6020    4.3070   10.0060 C.3   139  VAL139      0.0252
     85  CG1       15.4370    4.5400    9.0330 C.3   139  VAL139      0.0019
     86  CG2       17.9260    4.9080    9.4350 C.3   139  VAL139      0.0019
     87  N         13.5780    6.2850   15.0690 N.3   142  VAL142     -0.1231
     88  CA        12.9180    7.5720   14.8150 C.3   142  VAL142      0.1692
     89  C         11.6340    7.3360   13.9930 C.2   142  VAL142      0.2591
     90  O         10.5970    8.0350   14.1960 O.2   142  VAL142     -0.2718
     91  CB        13.8810    8.5810   14.1210 C.3   142  VAL142      0.0266
     92  CG1       14.0710    8.2460   12.6040 C.3   142  VAL142      0.0020
     93  CG2       13.3830   10.0620   14.2900 C.3   142  VAL142      0.0020
     94  N         11.6750    6.3850   13.0440 N.am  143  VAL143     -0.1980
     95  CA        10.4720    6.1740   12.2030 C.3   143  VAL143      0.1595
     96  C          9.2900    5.6430   13.0490 C.2   143  VAL143      0.2287
     97  O          8.1890    6.1200   12.8740 O.2   143  VAL143     -0.2864
     98  CB        10.7300    5.2270   10.9330 C.3   143  VAL143      0.0276
     99  CG1        9.3810    4.7880   10.3450 C.3   143  VAL143      0.0022
    100  CG2       11.5550    6.0230    9.8610 C.3   143  VAL143      0.0022
    101  N          7.9660    8.7560   14.8940 N.3   146  LEU146     -0.1245
    102  CA         7.1790    9.5800   13.9740 C.3   146  LEU146      0.1561
    103  C          5.7860    8.9680   13.7350 C.2   146  LEU146      0.2260
    104  O          4.7950    9.6860   13.7220 O.2   146  LEU146     -0.2867
    105  CB         7.8540    9.7330   12.6310 C.3   146  LEU146      0.0270
    106  CG         9.1470   10.4770   12.8380 C.3   146  LEU146      0.0019
    107  CD1        9.9810   10.4290   11.6180 C.3   146  LEU146      0.0001
    108  CD2        8.8080   11.9050   13.2200 C.3   146  LEU146      0.0001
    109  N          7.7600    6.4310    1.3770 N.3   157  PHE157     -0.1227
    110  CA         9.2180    6.3750    1.2600 C.3   157  PHE157      0.1736
    111  C          9.6840    6.2070   -0.1760 C.2   157  PHE157      0.2596
    112  O          9.1010    5.4580   -0.9380 O.2   157  PHE157     -0.2718
    113  CB         9.7450    5.1800    2.0840 C.3   157  PHE157      0.0547
    114  CG         9.6100    5.3640    3.5930 C.ar  157  PHE157     -0.0202
    115  CD1        8.5960    4.7490    4.2890 C.ar  157  PHE157     -0.0042
    116  CD2       10.5050    6.1460    4.2870 C.ar  157  PHE157     -0.0042
    117  CE1        8.4710    4.9650    5.6640 C.ar  157  PHE157     -0.0003
    118  CE2       10.4150    6.3520    5.6540 C.ar  157  PHE157     -0.0003
    119  CZ         9.3920    5.7770    6.3400 C.ar  157  PHE157     -0.0000
    120  N         10.8040    6.8210   -0.5290 N.am  158  GLY158     -0.1957
    121  CA        11.4030    6.4830   -1.8130 C.3   158  GLY158      0.1869
    122  C         11.9790    5.0560   -1.8340 C.2   158  GLY158      0.2309
    123  O         12.3460    4.4810   -0.7760 O.2   158  GLY158     -0.2863
    124  N         14.7460    4.3980   -3.5530 N.3   160  LYS160     -0.1231
    125  CA        16.1980    4.5190   -3.6970 C.3   160  LYS160      0.1693
    126  C         16.9250    3.8360   -2.5230 C.2   160  LYS160      0.2592
    127  O         17.8080    3.0050   -2.7230 O.2   160  LYS160     -0.2718
    128  CB        16.6090    5.9800   -3.8690 C.3   160  LYS160      0.0285
    129  CG        17.9760    6.2260   -4.5120 C.3   160  LYS160      0.0035
    130  CD        19.0700    6.4970   -3.4910 C.3   160  LYS160      0.0206
    131  CE        18.8610    7.7890   -2.7220 C.3   160  LYS160      0.1093
    132  NZ        19.7590    7.8720   -1.5100 N.3   160  LYS160     -0.1314
    133  N         16.5070    4.1510   -1.3030 N.am  161  ASP161     -0.1974
    134  CA        17.1360    3.5960   -0.1410 C.3   161  ASP161      0.1709
    135  C         16.3870    2.3010    0.1140 C.2   161  ASP161      0.2293
    136  O         15.4720    2.2520    0.9300 O.2   161  ASP161     -0.2864
    137  CB        16.9760    4.5830    0.9930 C.3   161  ASP161      0.1436
    138  CG        17.9370    5.7610    0.8870 C.2   161  ASP161      0.3671
    139  OD1       19.1520    5.5070    1.0230 O.co2 161  ASP161     -0.2456
    140  OD2       17.4940    6.9390    0.7110 O.co2 161  ASP161     -0.2456
    141  N         16.5490    0.2890    3.5880 N.3   164  GLN164     -0.1245
    142  CA        15.8020    1.0140    4.6090 C.3   164  GLN164      0.1566
    143  C         14.2930    0.7730    4.4710 C.2   164  GLN164      0.2260
    144  O         13.6460    0.5400    5.4540 O.2   164  GLN164     -0.2867
    145  CB        16.1560    2.4760    4.5620 C.3   164  GLN164      0.0367
    146  CG        15.1370    3.4210    5.1930 C.3   164  GLN164      0.0905
    147  CD        15.4820    4.8940    5.0370 C.2   164  GLN164      0.2608
    148  OE1       16.4320    5.4070    5.6310 O.2   164  GLN164     -0.2717
    149  NE2       14.7300    5.5600    4.1900 N.am  164  GLN164     -0.0878
    150  N          7.6620    4.4550   -3.3510 N.3   184  VAL184     -0.1231
    151  CA         7.4260    5.2050   -4.5690 C.3   184  VAL184      0.1678
    152  C          8.6810    5.1260   -5.4370 C.2   184  VAL184      0.2434
    153  O          9.7750    5.3220   -4.9170 O.2   184  VAL184     -0.2733
    154  CB         7.1120    6.6820   -4.1760 C.3   184  VAL184      0.0265
    155  CG1        7.0680    7.6220   -5.4210 C.3   184  VAL184      0.0020
    156  CG2        5.7880    6.7120   -3.3270 C.3   184  VAL184      0.0020
    157  N          8.5490    4.8120   -6.7590 N.am  185  PRO185     -0.2718
    158  CA         9.7290    4.6800   -7.6160 C.3   185  PRO185      0.1535
    159  C         10.6280    5.9130   -7.5650 C.2   185  PRO185      0.2599
    160  O         10.1670    7.0490   -7.4430 O.2   185  PRO185     -0.2715
    161  CB         9.1300    4.4640   -9.0150 C.3   185  PRO185      0.0310
    162  CG         7.8850    3.7160   -8.7720 C.3   185  PRO185      0.0237
    163  CD         7.3200    4.4720   -7.5200 C.3   185  PRO185      0.0939
    164  N         11.9230    5.6800   -7.6490 N.am  186  THR186     -0.1937
    165  CA        12.9090    6.7520   -7.5340 C.3   186  THR186      0.2028
    166  C         12.7650    7.8200   -8.6230 C.2   186  THR186      0.2642
    167  O         12.6710    7.5040   -9.8210 O.2   186  THR186     -0.2714
    168  CB        14.2780    6.0930   -7.6300 C.3   186  THR186      0.1808
    169  OG1       14.3740    5.1180   -6.5670 O.3   186  THR186     -0.2208
    170  CG2       15.4060    7.0990   -7.5700 C.3   186  THR186      0.0379
    171  N         12.7700    9.0810   -8.2170 N.am  187  VAL187     -0.1977
    172  CA        12.8250   10.1730   -9.1640 C.3   187  VAL187      0.1596
    173  C         14.2960   10.3280   -9.5510 C.2   187  VAL187      0.2287
    174  O         15.1790   10.2120   -8.7010 O.2   187  VAL187     -0.2864
    175  CB        12.1860   11.4950   -8.5750 C.3   187  VAL187      0.0276
    176  CG1       12.3410   12.6720   -9.5290 C.3   187  VAL187      0.0022
    177  CG2       10.6900   11.2560   -8.2520 C.3   187  VAL187      0.0022
    178  N         17.8420   10.9360   -7.6730 N.3   195  MET195     -0.1230
    179  CA        17.8530   12.1230   -6.8370 C.3   195  MET195      0.1702
    180  C         18.2450   11.8220   -5.3950 C.2   195  MET195      0.2593
    181  O         17.9280   10.7570   -4.8370 O.2   195  MET195     -0.2718
    182  CB        16.5490   12.9050   -6.9210 C.3   195  MET195      0.0401
    183  CG        16.4720   13.6500   -8.2640 C.3   195  MET195      0.0596
    184  SD        15.2270   14.9450   -8.3330 S.3   195  MET195     -0.1393
    185  CE        15.1130   15.3180  -10.1270 C.3   195  MET195      0.0692
    186  N         19.0200   12.7330   -4.8320 N.am  196  SER196     -0.1938
    187  CA        19.4220   12.6700   -3.4420 C.3   196  SER196      0.2055
    188  C         19.8870   14.0530   -3.0360 C.2   196  SER196      0.2644
    189  O         20.5230   14.7700   -3.8430 O.2   196  SER196     -0.2714
    190  CB        20.5260   11.6460   -3.2310 C.3   196  SER196      0.2130
    191  OG        21.2220   11.8610   -1.9900 O.3   196  SER196     -0.2179
    192  N         19.5670   14.4180   -1.7880 N.am  197  SER197     -0.1935
    193  CA        20.0070   15.7090   -1.2230 C.3   197  SER197      0.2055
    194  C         21.5360   15.7860   -1.2550 C.2   197  SER197      0.2642
    195  O         22.0940   16.8690   -1.3560 O.2   197  SER197     -0.2714
    196  CB        19.4930   15.9050    0.2200 C.3   197  SER197      0.2130
    197  OG        18.0580   15.8190    0.2980 O.3   197  SER197     -0.2179
    198  N         22.2000   14.6310   -1.2190 N.am  198  ARG198     -0.1977
    199  CA        23.6800   14.5790   -1.1890 C.3   198  ARG198      0.1597
    200  C         24.3820   14.6590   -2.5450 C.2   198  ARG198      0.2287
    201  O         25.6210   14.6460   -2.6080 O.2   198  ARG198     -0.2864
    202  CB        24.1740   13.3830   -0.3640 C.3   198  ARG198      0.0334
    203  CG        23.8540   13.5870    1.1560 C.3   198  ARG198      0.0492
    204  CD        24.6660   12.6830    2.1090 C.3   198  ARG198      0.2205
    205  NE        23.8080   11.6250    2.6110 N.pl3 198  ARG198     -0.0865
    206  CZ        23.6720   11.2740    3.8830 C.cat 198  ARG198      0.5346
    207  NH1       24.3780   11.8610    4.8480 N.pl3 198  ARG198      0.1354
    208  NH2       22.8360   10.2920    4.1780 N.pl3 198  ARG198      0.1354
@<TRIPOS>BOND
     1   185   184    1
     2   167   166    2
     3   173   172    1
     4   173   174    2
     5   176   175    1
     6   172   175    1
     7   172   171    1
     8   161   162    1
     9   161   158    1
    10   162   163    1
    11   166   171   am
    12   166   165    1
    13   175   177    1
    14   184   183    1
    15   183   182    1
    16   178   179    1
    17   164   159   am
    18   164   165    1
    19   168   170    1
    20   168   165    1
    21   168   169    1
    22   158   159    1
    23   158   157    1
    24   159   160    2
    25   163   157    1
    26   182   179    1
    27   179   180    1
    28   157   152   am
    29    37    38    1
    30   152   153    2
    31   152   151    1
    32   155   154    1
    33   180   181    2
    34   180   186   am
    35    38    39    1
    36   186   187    1
    37    29    28    1
    38    29    30    2
    39   151   154    1
    40   151   150    1
    41   129   128    1
    42   129   130    1
    43    31    28    1
    44    31    32    1
    45   154   156    1
    46    33    32   ar
    47    33    35   ar
    48    39    40    2
    49    39    41   am
    50    28    27    1
    51   128   125    1
    52   189   188    2
    53    32    34   ar
    54   125   124    1
    55   125   126    1
    56   130   131    1
    57    51    52    1
    58   187   190    1
    59   187   188    1
    60    35    36   ar
    61   190   191    1
    62    41    42    1
    63   188   192   am
    64    34    36   ar
    65   127   126    2
    66   131   132    1
    67   201   200    2
    68   200   199    1
    69   126   133   am
    70    43    42    1
    71    43    44    2
    72    52    53    1
    73    52    55    1
    74    42    45    1
    75    58    56    1
    76   122   121    1
    77   122   123    2
    78   121   120    1
    79    53    54    2
    80   192   193    1
    81    56    55    1
    82    56    57    1
    83   195   194    2
    84   133   134    1
    85   194   193    1
    86   194   198   am
    87   193   196    1
    88   198   199    1
    89   199   202    1
    90    45    46    1
    91   112   111    2
    92    47    46   ar
    93    47    49   ar
    94   120   111   am
    95   202   203    1
    96    46    48   ar
    97   111   110    1
    98   134   135    1
    99   134   137    1
   100    49    50   ar
   101   135   136    2
   102   196   197    1
   103    48    50   ar
   104   140   138   ar
   105   138   137    1
   106   138   139   ar
   107   203   204    1
   108   110   109    1
   109   110   113    1
   110   113   114    1
   111   204   205    1
   112   205   206    2
   113    26    25    2
   114    79    78    1
   115    25    24    1
   116   141   142    1
   117   114   116   ar
   118   114   115   ar
   119    14    12    1
   120   206   208    1
   121   206   207    1
   122    78    76   ar
   123    78    77   ar
   124   149   147   am
   125    76    74   ar
   126   116   118   ar
   127   115   117   ar
   128   143   142    1
   129   143   144    2
   130    12    13    1
   131    12     9    1
   132   145   142    1
   133   145   146    1
   134    77    75   ar
   135    24    23    1
   136   147   146    1
   137   147   148    2
   138     4     3    2
   139    74    73   ar
   140    23    17   am
   141    75    73   ar
   142    70    69    1
   143    70    71    2
   144     9     8    1
   145     9    10    1
   146   118   119   ar
   147   117   119   ar
   148    73    72    1
   149     1     7    1
   150     1     2    1
   151     7     6    1
   152     3     8   am
   153     3     2    1
   154    15    10   am
   155    15    16    1
   156    17    18    2
   157    17    16    1
   158    69    72    1
   159    69    68    1
   160    10    11    2
   161    19    16    1
   162    19    20    1
   163     2     5    1
   164    22    21    1
   165     6     5    1
   166    20    21    1
   167    67    65   am
   168    85    84    1
   169    86    84    1
   170   100    98    1
   171    65    66    2
   172    65    64    1
   173    84    81    1
   174    99    98    1
   175    62    61    2
   176    64    63    1
   177    98    95    1
   178    63    60    1
   179    81    82    1
   180    81    80    1
   181   107   106    1
   182    61    60    1
   183    82    83    2
   184    95    94    1
   185    95    96    1
   186    60    59    1
   187    92    91    1
   188   105   106    1
   189   105   102    1
   190   106   108    1
   191    97    96    2
   192    94    89   am
   193   104   103    2
   194   103   102    1
   195   102   101    1
   196    89    90    2
   197    89    88    1
   198    91    93    1
   199    91    88    1
   200    88    87    1
