@<TRIPOS>MOLECULE
tmp/3ivdA00.pdb
 190 181 0 0 0
SMALL
GASTEIGER

@<TRIPOS>ATOM
      1  N          6.7790    0.4940    1.3330 N.3    14  HIS14      -0.1241
      2  CA         6.5510   -0.9480    1.2440 C.3    14  HIS14       0.1621
      3  C          7.7680   -1.8410    1.5180 C.2    14  HIS14       0.2264
      4  O          8.0370   -2.7810    0.7620 O.2    14  HIS14      -0.2867
      5  CB         5.8750   -1.3200   -0.0960 C.3    14  HIS14       0.0745
      6  CG         4.4140   -1.0210   -0.1030 C.ar   14  HIS14       0.0817
      7  ND1        3.5380   -1.6450    0.7610 N.ar   14  HIS14      -0.2268
      8  CD2        3.6780   -0.1410   -0.8190 C.ar   14  HIS14       0.1154
      9  CE1        2.3200   -1.1720    0.5640 C.ar   14  HIS14       0.1986
     10  NE2        2.3750   -0.2580   -0.3860 N.ar   14  HIS14      -0.2212
     11  N          1.9740    3.1150    4.4810 N.3    59  ASP59      -0.1239
     12  CA         2.3330    1.8740    3.7560 C.3    59  ASP59       0.1674
     13  C          3.8500    1.6480    3.6750 C.2    59  ASP59       0.2266
     14  O          4.3960    1.3200    2.6000 O.2    59  ASP59      -0.2867
     15  CB         1.7010    1.8680    2.3660 C.3    59  ASP59       0.1410
     16  CG         0.2960    1.2870    2.3650 C.2    59  ASP59       0.3668
     17  OD1       -0.2440    1.0110    3.4530 O.co2  59  ASP59      -0.2456
     18  OD2       -0.2750    1.1160    1.2530 O.co2  59  ASP59      -0.2456
     19  N         -2.9930    1.3340    4.9970 N.3    89  ASN89      -0.1225
     20  CA        -3.7300    0.0860    5.2090 C.3    89  ASN89       0.1785
     21  C         -2.8090   -1.0620    5.5290 C.2    89  ASN89       0.2597
     22  O         -3.1720   -1.9460    6.2920 O.2    89  ASN89      -0.2718
     23  CB        -4.5920   -0.2860    3.9890 C.3    89  ASN89       0.1169
     24  CG        -3.7950   -0.2830    2.6860 C.2    89  ASN89       0.2627
     25  OD1       -3.3940    0.7630    2.2060 O.2    89  ASN89      -0.2716
     26  ND2       -3.5660   -1.4470    2.1260 N.am   89  ASN89      -0.0877
     27  N         -1.6140   -1.0620    4.9460 N.am   90  HIS90      -0.1975
     28  CA        -0.7080   -2.1910    5.1680 C.3    90  HIS90       0.1656
     29  C         -0.1110   -2.2890    6.5670 C.2    90  HIS90       0.2291
     30  O          0.3710   -3.3490    6.9730 O.2    90  HIS90      -0.2864
     31  CB         0.3600   -2.2400    4.0820 C.3    90  HIS90       0.0771
     32  CG        -0.1900   -2.7010    2.7810 C.ar   90  HIS90       0.0820
     33  ND1       -0.5640   -4.0100    2.5720 N.ar   90  HIS90      -0.2267
     34  CD2       -0.5470   -2.0240    1.6670 C.ar   90  HIS90       0.1154
     35  CE1       -1.0780   -4.1340    1.3570 C.ar   90  HIS90       0.1986
     36  NE2       -1.0800   -2.9440    0.7870 N.ar   90  HIS90      -0.2212
     37  N         -1.7020   -5.2010    8.4400 N.3    93  ASP93      -0.1239
     38  CA        -1.6780   -6.5580    7.7950 C.3    93  ASP93       0.1674
     39  C         -1.5320   -7.7270    8.7530 C.2    93  ASP93       0.2266
     40  O         -1.9620   -8.8720    8.4490 O.2    93  ASP93      -0.2867
     41  CB        -0.5700   -6.6610    6.7230 C.3    93  ASP93       0.1410
     42  CG        -0.9530   -5.9670    5.4270 C.2    93  ASP93       0.3668
     43  OD1       -2.1700   -5.7180    5.2210 O.co2  93  ASP93      -0.2456
     44  OD2       -0.0350   -5.6630    4.6270 O.co2  93  ASP93      -0.2456
     45  N         -9.2880   -2.3270    1.4020 N.3   153  THR153     -0.1218
     46  CA        -7.9710   -2.9480    1.3790 C.3   153  THR153      0.1862
     47  C         -7.4050   -3.4420    2.7070 C.2   153  THR153      0.2287
     48  O         -6.3460   -4.0460    2.7100 O.2   153  THR153     -0.2866
     49  CB        -6.9140   -2.0240    0.7300 C.3   153  THR153      0.1770
     50  OG1       -6.7690   -0.8360    1.5320 O.3   153  THR153     -0.2211
     51  CG2       -7.3240   -1.6440   -0.6880 C.3   153  THR153      0.0375
     52  N         -7.7030   -6.2050    5.3710 N.3   155  SER155     -0.1217
     53  CA        -8.3310   -7.5070    5.5280 C.3   155  SER155      0.1889
     54  C         -9.3640   -7.4900    6.6670 C.2   155  SER155      0.2288
     55  O         -9.0840   -7.0000    7.7580 O.2   155  SER155     -0.2866
     56  CB        -7.2420   -8.5450    5.8200 C.3   155  SER155      0.2089
     57  OG        -7.7180   -9.8680    5.6310 O.3   155  SER155     -0.2183
     58  N         -6.5420    1.3940   -5.0960 N.3   194  PRO194     -0.2102
     59  CA        -5.2840    0.7210   -4.7710 C.3   194  PRO194      0.1504
     60  C         -4.2940    0.7250   -5.9480 C.2   194  PRO194      0.2575
     61  O         -4.7140    0.8340   -7.1070 O.2   194  PRO194     -0.2718
     62  CB        -5.7220   -0.7040   -4.4430 C.3   194  PRO194      0.0282
     63  CG        -6.9820   -0.9070   -5.2170 C.3   194  PRO194      0.0208
     64  CD        -7.6670    0.4520   -5.2420 C.3   194  PRO194      0.0893
     65  N         -3.0020    0.5870   -5.6480 N.am  195  ALA195     -0.1980
     66  CA        -1.9710    0.6170   -6.6700 C.3   195  ALA195      0.1597
     67  C         -2.1070   -0.5960   -7.5700 C.2   195  ALA195      0.2287
     68  O         -2.5360   -1.6600   -7.1170 O.2   195  ALA195     -0.2864
     69  CB        -0.6080    0.6190   -6.0310 C.3   195  ALA195      0.0319
     70  N         -0.6220   -3.7630   -9.2540 N.3   197  GLN197     -0.1245
     71  CA         0.4660   -4.6830   -8.9380 C.3   197  GLN197      0.1566
     72  C          0.7800   -5.4170  -10.2250 C.2   197  GLN197      0.2260
     73  O          0.0060   -6.2790  -10.6800 O.2   197  GLN197     -0.2867
     74  CB         0.1030   -5.6340   -7.7870 C.3   197  GLN197      0.0367
     75  CG        -0.1170   -4.9120   -6.4240 C.3   197  GLN197      0.0905
     76  CD         1.1250   -4.1630   -5.9330 C.2   197  GLN197      0.2608
     77  OE1        2.2550   -4.6360   -6.0970 O.2   197  GLN197     -0.2717
     78  NE2        0.9110   -3.0100   -5.2760 N.am  197  GLN197     -0.0878
     79  N         -1.2160    5.4700   -1.3150 N.3   228  HIS228     -0.1241
     80  CA        -2.1600    4.3630   -1.5470 C.3   228  HIS228      0.1621
     81  C         -2.2570    3.9820   -3.0290 C.2   228  HIS228      0.2264
     82  O         -2.2730    2.7820   -3.3590 O.2   228  HIS228     -0.2867
     83  CB        -3.5500    4.6170   -0.9970 C.3   228  HIS228      0.0745
     84  CG        -4.4560    3.4170   -1.0680 C.ar  228  HIS228      0.0817
     85  ND1       -4.2310    2.2810   -0.3250 N.ar  228  HIS228     -0.2268
     86  CD2       -5.6070    3.1970   -1.7510 C.ar  228  HIS228      0.1154
     87  CE1       -5.1940    1.4010   -0.5510 C.ar  228  HIS228      0.1986
     88  NE2       -6.0560    1.9430   -1.4010 N.ar  228  HIS228     -0.2212
     89  N          0.0090    4.7950   -5.3950 N.3   230  HIS230     -0.1241
     90  CA         1.3720    4.7170   -5.9870 C.3   230  HIS230      0.1621
     91  C          1.4920    5.4900   -7.3130 C.2   230  HIS230      0.2264
     92  O          2.1080    5.0020   -8.2740 O.2   230  HIS230     -0.2867
     93  CB         1.8540    3.2610   -6.1940 C.3   230  HIS230      0.0745
     94  CG         1.7650    2.3890   -4.9730 C.ar  230  HIS230      0.0817
     95  ND1        2.4350    1.1860   -4.8770 N.ar  230  HIS230     -0.2268
     96  CD2        1.0690    2.5230   -3.8130 C.ar  230  HIS230      0.1154
     97  CE1        2.1590    0.6170   -3.7090 C.ar  230  HIS230      0.1986
     98  NE2        1.3260    1.4040   -3.0520 N.ar  230  HIS230     -0.2212
     99  N         -1.9520   -7.0220  -13.5740 N.3   319  TYR319     -0.1241
    100  CA        -3.1050   -6.5730  -12.7920 C.3   319  TYR319      0.1605
    101  C         -4.4280   -6.7130  -13.5810 C.2   319  TYR319      0.2264
    102  O         -5.4860   -6.8880  -12.9860 O.2   319  TYR319     -0.2867
    103  CB        -2.8810   -5.1090  -12.4060 C.3   319  TYR319      0.0534
    104  CG        -3.6830   -4.5840  -11.2170 C.ar  319  TYR319     -0.0201
    105  CD1       -3.5250   -5.1420   -9.9390 C.ar  319  TYR319     -0.0009
    106  CD2       -4.5370   -3.4800  -11.3630 C.ar  319  TYR319     -0.0009
    107  CE1       -4.2320   -4.6470   -8.8410 C.ar  319  TYR319      0.0417
    108  CE2       -5.2550   -2.9720  -10.2710 C.ar  319  TYR319      0.0417
    109  CZ        -5.0890   -3.5580   -9.0190 C.ar  319  TYR319      0.1957
    110  OH        -5.7900   -3.0860   -7.9450 O.3   319  TYR319     -0.2866
    111  N         -6.2360  -12.7820   -5.6080 N.3   347  ASN347     -0.1240
    112  CA        -6.2770  -11.3910   -6.0680 C.3   347  ASN347      0.1653
    113  C         -4.9570  -10.9330   -6.6040 C.2   347  ASN347      0.2266
    114  O         -3.9330  -11.2910   -6.0510 O.2   347  ASN347     -0.2867
    115  CB        -6.7300  -10.4360   -4.9460 C.3   347  ASN347      0.1155
    116  CG        -5.9510  -10.6310   -3.6420 C.2   347  ASN347      0.2627
    117  OD1       -5.8940  -11.7300   -3.1090 O.2   347  ASN347     -0.2716
    118  ND2       -5.3320   -9.5590   -3.1420 N.am  347  ASN347     -0.0877
    119  N         -3.7720   -7.9380   -6.6390 N.3   349  GLY349     -0.1210
    120  CA        -3.1550   -7.0100   -5.6670 C.3   349  GLY349      0.1956
    121  C         -2.3770   -7.6720   -4.5400 C.2   349  GLY349      0.2612
    122  O         -1.5660   -7.0190   -3.8520 O.2   349  GLY349     -0.2717
    123  N         -2.5750   -8.9710   -4.3380 N.am  350  GLY350     -0.1956
    124  CA        -1.8330   -9.6770   -3.3080 C.3   350  GLY350      0.1869
    125  C         -0.4670  -10.2260   -3.7260 C.2   350  GLY350      0.2309
    126  O          0.1880  -10.9450   -2.9340 O.2   350  GLY350     -0.2863
    127  N          3.2070   -9.2590   -4.9400 N.3   352  ARG352     -0.1245
    128  CA         3.8600   -8.0010   -4.6270 C.3   352  ARG352      0.1563
    129  C          5.2380   -7.8060   -5.2270 C.2   352  ARG352      0.2260
    130  O          5.8340   -6.7370   -5.0620 O.2   352  ARG352     -0.2867
    131  CB         3.9410   -7.8220   -3.0930 C.3   352  ARG352      0.0307
    132  CG         2.5660   -7.9330   -2.3300 C.3   352  ARG352      0.0489
    133  CD         1.5130   -6.9420   -2.8380 C.3   352  ARG352      0.2205
    134  NE         1.8430   -5.5780   -2.4230 N.pl3 352  ARG352     -0.0865
    135  CZ         0.9720   -4.5730   -2.3400 C.cat 352  ARG352      0.5346
    136  NH1       -0.3140   -4.7560   -2.6200 N.pl3 352  ARG352      0.1354
    137  NH2        1.3900   -3.3850   -1.9420 N.pl3 352  ARG352      0.1354
    138  N          1.4160  -11.9610    2.6030 N.3   370  PHE370     -0.1228
    139  CA         0.2420  -11.7550    3.4900 C.3   370  PHE370      0.1721
    140  C         -0.1250  -12.9840    4.2900 C.2   370  PHE370      0.2437
    141  O         -0.0560  -14.1130    3.7650 O.2   370  PHE370     -0.2733
    142  CB        -0.9990  -11.2780    2.6840 C.3   370  PHE370      0.0547
    143  CG        -0.7830  -10.0000    1.9260 C.ar  370  PHE370     -0.0202
    144  CD1       -0.9060   -8.7710    2.5540 C.ar  370  PHE370     -0.0042
    145  CD2       -0.4760  -10.0200    0.5560 C.ar  370  PHE370     -0.0042
    146  CE1       -0.7160   -7.5790    1.8580 C.ar  370  PHE370     -0.0003
    147  CE2       -0.2650   -8.8200   -0.1630 C.ar  370  PHE370     -0.0003
    148  CZ        -0.3860   -7.5910    0.4830 C.ar  370  PHE370     -0.0000
    149  N         -0.5470  -12.7760    5.5600 N.am  371  PRO371     -0.2718
    150  CA        -1.1280  -13.8380    6.3450 C.3   371  PRO371      0.1535
    151  C         -2.5570  -14.0900    5.8850 C.2   371  PRO371      0.2598
    152  O         -3.4810  -14.0950    6.6760 O.2   371  PRO371     -0.2715
    153  CB        -1.0880  -13.2890    7.7990 C.3   371  PRO371      0.0310
    154  CG        -1.1720  -11.7850    7.6280 C.3   371  PRO371      0.0237
    155  CD        -0.5330  -11.4780    6.2860 C.3   371  PRO371      0.0939
    156  N         -2.7370  -14.3090    4.5980 N.am  372  ASN372     -0.1973
    157  CA        -4.0660  -14.6570    4.0830 C.3   372  ASN372      0.1688
    158  C         -4.1990  -16.1820    4.0050 C.2   372  ASN372      0.2292
    159  O         -3.5130  -16.8310    3.2270 O.2   372  ASN372     -0.2864
    160  CB        -4.2940  -14.0430    2.6980 C.3   372  ASN372      0.1181
    161  CG        -4.3140  -12.5170    2.6960 C.2   372  ASN372      0.2629
    162  OD1       -4.1090  -11.9260    1.6420 O.2   372  ASN372     -0.2716
    163  ND2       -4.5550  -11.8620    3.8740 N.am  372  ASN372     -0.0877
    164  N         -9.9840   -3.0610   -8.7700 N.3   394  ASN394     -0.1240
    165  CA        -9.0410   -3.7700   -7.9050 C.3   394  ASN394      0.1653
    166  C         -8.3010   -4.9000   -8.6520 C.2   394  ASN394      0.2266
    167  O         -7.8060   -5.8540   -8.0380 O.2   394  ASN394     -0.2867
    168  CB        -9.7930   -4.3580   -6.7090 C.3   394  ASN394      0.1155
    169  CG       -10.5290   -3.2930   -5.9200 C.2   394  ASN394      0.2627
    170  OD1      -11.5580   -2.7730   -6.3530 O.2   394  ASN394     -0.2716
    171  ND2       -9.9880   -2.9460   -4.7650 N.am  394  ASN394     -0.0877
    172  N         -8.4530  -13.0970    2.7830 N.3   439  PHE439     -0.1241
    173  CA        -8.6680  -11.7050    2.4040 C.3   439  PHE439      0.1605
    174  C         -9.8520  -11.6110    1.4200 C.2   439  PHE439      0.2264
    175  O        -10.7550  -10.7830    1.6130 O.2   439  PHE439     -0.2867
    176  CB        -7.4110  -11.0250    1.8190 C.3   439  PHE439      0.0534
    177  CG        -7.6840   -9.6610    1.2180 C.ar  439  PHE439     -0.0203
    178  CD1       -7.8330   -8.5330    2.0330 C.ar  439  PHE439     -0.0042
    179  CD2       -7.7960   -9.5040   -0.1700 C.ar  439  PHE439     -0.0042
    180  CE1       -8.1020   -7.2760    1.4590 C.ar  439  PHE439     -0.0003
    181  CE2       -8.0650   -8.2530   -0.7490 C.ar  439  PHE439     -0.0003
    182  CZ        -8.2080   -7.1400    0.0660 C.ar  439  PHE439     -0.0000
    183  N        -11.2480   -6.2220   -1.3400 N.3   445  ASP445     -0.1239
    184  CA       -11.0850   -5.7010   -2.6930 C.3   445  ASP445      0.1674
    185  C        -12.4170   -5.5110   -3.4300 C.2   445  ASP445      0.2266
    186  O        -12.4580   -5.4500   -4.6490 O.2   445  ASP445     -0.2867
    187  CB       -10.1470   -6.6140   -3.4970 C.3   445  ASP445      0.1410
    188  CG        -8.7140   -6.1120   -3.4990 C.2   445  ASP445      0.3668
    189  OD1       -8.4830   -4.9290   -3.1480 O.co2 445  ASP445     -0.2456
    190  OD2       -7.7910   -6.8930   -3.8420 O.co2 445  ASP445     -0.2456
@<TRIPOS>BOND
     1   101   102    2
     2   101   100    1
     3    99   100    1
     4   100   103    1
     5   103   104    1
     6   106   104   ar
     7   106   108   ar
     8   104   105   ar
     9    73    72    2
    10   108   109   ar
    11    72    71    1
    12   105   107   ar
    13    70    71    1
    14   109   107   ar
    15   109   110    1
    16    71    74    1
    17   164   165    1
    18   166   167    2
    19   166   165    1
    20    92    91    2
    21   165   168    1
    22    74    75    1
    23    67    68    2
    24    67    66    1
    25    91    90    1
    26    61    60    2
    27   168   169    1
    28    66    69    1
    29    66    65    1
    30   119   120    1
    31   113   112    1
    32   113   114    2
    33    75    76    1
    34   170   169    2
    35    93    90    1
    36    93    94    1
    37    77    76    2
    38   112   111    1
    39   112   115    1
    40    90    89    1
    41    60    65   am
    42    60    59    1
    43    76    78   am
    44   169   171   am
    45   120   121    1
    46    64    63    1
    47    64    58    1
    48   129   130    2
    49   129   128    1
    50    63    62    1
    51    58    59    1
    52    94    95   ar
    53    94    96   ar
    54   115   116    1
    55   127   128    1
    56    95    97   ar
    57    59    62    1
    58   186   185    2
    59   128   131    1
    60   121   123   am
    61   121   122    2
    62   123   124    1
    63   190   188   ar
    64    96    98   ar
    65   125   124    1
    66   125   126    2
    67    97    98   ar
    68   116   118   am
    69   116   117    2
    70   188   187    1
    71   188   189   ar
    72   187   184    1
    73   185   184    1
    74    82    81    2
    75   131   132    1
    76    81    80    1
    77   133   134    1
    78   133   132    1
    79   184   183    1
    80   136   135    1
    81   134   135    2
    82   135   137    1
    83    86    88   ar
    84    86    84   ar
    85    80    79    1
    86    80    83    1
    87    88    87   ar
    88    84    83    1
    89    84    85   ar
    90     8    10   ar
    91     8     6   ar
    92   181   179   ar
    93   181   182   ar
    94    51    49    1
    95    87    85   ar
    96    10     9   ar
    97   179   177   ar
    98   147   148   ar
    99   147   145   ar
   100     6     5    1
   101     6     7   ar
   102     5     2    1
   103   182   180   ar
   104   148   146   ar
   105   145   143   ar
   106     9     7   ar
   107    49    46    1
   108    49    50    1
   109     4     3    2
   110    36    35   ar
   111    36    34   ar
   112   177   176    1
   113   177   178   ar
   114     2     1    1
   115     2     3    1
   116    18    16   ar
   117    35    33   ar
   118    46    45    1
   119    46    47    1
   120   174   175    2
   121   174   173    1
   122   180   178   ar
   123   162   161    2
   124    34    32   ar
   125   176   173    1
   126   146   144   ar
   127   143   144   ar
   128   143   142    1
   129    26    24   am
   130    25    24    2
   131    16    15    1
   132    16    17   ar
   133    15    12    1
   134   173   172    1
   135    33    32   ar
   136    14    13    2
   137   138   139    1
   138   142   139    1
   139    24    23    1
   140   161   160    1
   141   161   163   am
   142   160   157    1
   143    47    48    2
   144    32    31    1
   145   159   158    2
   146   139   140    1
   147    13    12    1
   148    12    11    1
   149   141   140    2
   150    23    20    1
   151   158   157    1
   152    31    28    1
   153   157   156    1
   154   140   149   am
   155   156   151   am
   156    44    42   ar
   157    27    28    1
   158    27    21   am
   159    19    20    1
   160    28    29    1
   161    20    21    1
   162    43    42   ar
   163    52    53    1
   164    42    41    1
   165    53    56    1
   166    53    54    1
   167    21    22    2
   168   149   155    1
   169   149   150    1
   170    57    56    1
   171   151   150    1
   172   151   152    2
   173   155   154    1
   174   150   153    1
   175    29    30    2
   176    54    55    2
   177    41    38    1
   178   154   153    1
   179    38    37    1
   180    38    39    1
   181    40    39    2
