@<TRIPOS>MOLECULE
tmp/3iveA00.pdb
 182 174 0 0 0
SMALL
GASTEIGER

@<TRIPOS>ATOM
      1  N         16.5280   73.2480   15.9620 N.3    13  HIS13      -0.1241
      2  CA        16.4040   71.8080   15.6880 C.3    13  HIS13       0.1621
      3  C         15.6800   71.0070   16.7620 C.2    13  HIS13       0.2264
      4  O         16.1290   69.9370   17.1580 O.2    13  HIS13      -0.2867
      5  CB        17.7790   71.1970   15.3600 C.3    13  HIS13       0.0745
      6  CG        18.1960   71.5000   13.9610 C.ar   13  HIS13       0.0817
      7  ND1       17.4680   71.0610   12.8770 N.ar   13  HIS13      -0.2268
      8  CD2       19.1960   72.2650   13.4600 C.ar   13  HIS13       0.1154
      9  CE1       18.0210   71.5160   11.7660 C.ar   13  HIS13       0.1986
     10  NE2       19.0790   72.2340   12.0880 N.ar   13  HIS13      -0.2212
     11  N         15.2310   76.5170   10.6840 N.3    58  ASP58      -0.1239
     12  CA        15.6490   75.1710   11.1490 C.3    58  ASP58       0.1674
     13  C         15.3340   74.9180   12.6200 C.2    58  ASP58       0.2266
     14  O         16.1460   74.3240   13.3630 O.2    58  ASP58      -0.2867
     15  CB        17.1290   74.8670   10.8320 C.3    58  ASP58       0.1410
     16  CG        17.3310   74.3200    9.4310 C.2    58  ASP58       0.3668
     17  OD1       16.3410   74.2990    8.6550 O.co2  58  ASP58      -0.2456
     18  OD2       18.5080   73.9270    9.1080 O.co2  58  ASP58      -0.2456
     19  N         15.4860   75.0040    5.5820 N.3    88  ASN88      -0.1225
     20  CA        15.1870   73.7920    4.8090 C.3    88  ASN88       0.1785
     21  C         14.4070   72.7310    5.5830 C.2    88  ASN88       0.2597
     22  O         13.5650   72.0540    5.0150 O.2    88  ASN88      -0.2718
     23  CB        16.4680   73.1610    4.2320 C.3    88  ASN88       0.1169
     24  CG        17.5690   73.0190    5.2750 C.2    88  ASN88       0.2627
     25  OD1       18.1780   74.0010    5.6550 O.2    88  ASN88      -0.2716
     26  ND2       17.8480   71.7990    5.7010 N.am   88  ASN88      -0.0877
     27  N         14.6870   72.6060    6.8790 N.am   89  HIS89      -0.1975
     28  CA        14.0810   71.5560    7.6810 C.3    89  HIS89       0.1656
     29  C         12.5930   71.7750    7.9470 C.2    89  HIS89       0.2291
     30  O         11.8620   70.8080    8.2090 O.2    89  HIS89      -0.2864
     31  CB        14.8730   71.3520    8.9510 C.3    89  HIS89       0.0771
     32  CG        16.1230   70.5860    8.7040 C.ar   89  HIS89       0.0820
     33  ND1       16.1040   69.2440    8.3990 N.ar   89  HIS89      -0.2267
     34  CD2       17.4150   70.9730    8.6640 C.ar   89  HIS89       0.1154
     35  CE1       17.3410   68.8360    8.1680 C.ar   89  HIS89       0.1986
     36  NE2       18.1570   69.8560    8.3570 N.ar   89  HIS89      -0.2212
     37  N         10.6110   69.3940    5.8250 N.3    92  ASP92      -0.1239
     38  CA        10.9240   67.9440    5.8760 C.3    92  ASP92       0.1674
     39  C          9.7090   67.0220    5.7580 C.2    92  ASP92       0.2266
     40  O          9.8810   65.8440    5.4500 O.2    92  ASP92      -0.2867
     41  CB        11.6880   67.5650    7.1520 C.3    92  ASP92       0.1410
     42  CG        13.1510   67.9930    7.1120 C.2    92  ASP92       0.3668
     43  OD1       13.6680   68.3690    6.0220 O.co2  92  ASP92      -0.2456
     44  OD2       13.7400   67.9480    8.2100 O.co2  92  ASP92      -0.2456
     45  N         19.6520   70.6060    0.1720 N.3   152  THR152     -0.1218
     46  CA        19.2540   70.0060    1.4530 C.3   152  THR152      0.1862
     47  C         17.7510   69.7860    1.6670 C.2   152  THR152      0.2287
     48  O         17.3630   69.0730    2.6050 O.2   152  THR152     -0.2866
     49  CB        19.7860   70.7970    2.6680 C.3   152  THR152      0.1770
     50  OG1       19.1850   72.1000    2.7050 O.3   152  THR152     -0.2211
     51  CG2       21.3270   70.9060    2.6240 C.3   152  THR152      0.0375
     52  N         14.7050   67.7620    0.6560 N.3   154  SER154     -0.1217
     53  CA        14.4910   66.4920   -0.0190 C.3   154  SER154      0.1889
     54  C         13.6430   66.7570   -1.2660 C.2   154  SER154      0.2288
     55  O         12.6700   67.5120   -1.1860 O.2   154  SER154     -0.2866
     56  CB        13.7890   65.5440    0.9440 C.3   154  SER154      0.2089
     57  OG        13.7970   64.2230    0.4740 O.3   154  SER154     -0.2183
     58  N         25.8490   72.8680    4.5980 N.3   193  PRO193     -0.2102
     59  CA        25.1350   72.3010    5.7410 C.3   193  PRO193      0.1504
     60  C         26.0670   72.0220    6.9220 C.2   193  PRO193      0.2575
     61  O         27.3070   71.9430    6.7610 O.2   193  PRO193     -0.2718
     62  CB        24.5340   71.0020    5.1900 C.3   193  PRO193      0.0282
     63  CG        25.4190   70.6340    4.0480 C.3   193  PRO193      0.0208
     64  CD        26.0150   71.9030    3.4960 C.3   193  PRO193      0.0893
     65  N         25.4590   71.9050    8.0980 N.am  194  ALA194     -0.1980
     66  CA        26.1960   71.6870    9.3280 C.3   194  ALA194      0.1597
     67  C         26.9160   70.3490    9.3520 C.2   194  ALA194      0.2287
     68  O         26.3880   69.3310    8.8540 O.2   194  ALA194     -0.2864
     69  CB        25.2440   71.7700   10.4890 C.3   194  ALA194      0.0319
     70  N         27.5830   67.0570   11.0140 N.3   196  GLN196     -0.1245
     71  CA        26.8760   66.1970   11.9630 C.3   196  GLN196      0.1566
     72  C         27.8660   65.1970   12.5350 C.2   196  GLN196      0.2260
     73  O         28.2210   64.2030   11.8730 O.2   196  GLN196     -0.2867
     74  CB        25.7180   65.4750   11.2820 C.3   196  GLN196      0.0367
     75  CG        24.5970   66.4300   10.7970 C.3   196  GLN196      0.0905
     76  CD        23.9580   67.2610   11.9250 C.2   196  GLN196      0.2608
     77  OE1       23.7230   66.7690   13.0200 O.2   196  GLN196     -0.2717
     78  NE2       23.6680   68.5160   11.6410 N.am  196  GLN196     -0.0878
     79  N         21.9910   77.7440    9.0240 N.3   224  HIS224     -0.1241
     80  CA        22.2680   76.5990    8.1450 C.3   224  HIS224      0.1621
     81  C         23.6020   75.9360    8.5050 C.2   224  HIS224      0.2264
     82  O         23.6710   74.7130    8.5990 O.2   224  HIS224     -0.2867
     83  CB        22.2030   76.9400    6.6460 C.3   224  HIS224      0.0745
     84  CG        22.1570   75.7410    5.7510 C.ar  224  HIS224      0.0817
     85  ND1       21.1760   74.7730    5.8380 N.ar  224  HIS224     -0.2268
     86  CD2       22.9650   75.3680    4.7270 C.ar  224  HIS224      0.1154
     87  CE1       21.3760   73.8610    4.8960 C.ar  224  HIS224      0.1986
     88  NE2       22.4650   74.1900    4.2190 N.ar  224  HIS224     -0.2212
     89  N         25.4450   76.1270   11.3220 N.3   226  HIS226     -0.1241
     90  CA        25.6250   75.8470   12.7660 C.3   226  HIS226      0.1621
     91  C         27.0160   76.2910   13.2340 C.2   226  HIS226      0.2264
     92  O         27.6450   75.6180   14.0690 O.2   226  HIS226     -0.2867
     93  CB        25.4320   74.3660   13.1320 C.3   226  HIS226      0.0745
     94  CG        24.1160   73.7800   12.7160 C.ar  226  HIS226      0.0817
     95  ND1       23.6830   72.5530   13.1820 N.ar  226  HIS226     -0.2268
     96  CD2       23.1510   74.2230   11.8710 C.ar  226  HIS226      0.1154
     97  CE1       22.5110   72.2630   12.6380 C.ar  226  HIS226      0.1986
     98  NE2       22.1670   73.2580   11.8400 N.ar  226  HIS226     -0.2212
     99  N         31.2900   62.8370   10.5230 N.3   315  TYR315     -0.1241
    100  CA        30.9260   63.4400    9.2510 C.3   315  TYR315      0.1605
    101  C         31.9540   63.0900    8.1830 C.2   315  TYR315      0.2264
    102  O         31.6190   63.0550    7.0020 O.2   315  TYR315     -0.2867
    103  CB        30.8360   64.9540    9.4230 C.3   315  TYR315      0.0534
    104  CG        29.9410   65.7090    8.4320 C.ar  315  TYR315     -0.0201
    105  CD1       28.5700   65.4230    8.3300 C.ar  315  TYR315     -0.0009
    106  CD2       30.4660   66.7320    7.6520 C.ar  315  TYR315     -0.0009
    107  CE1       27.7310   66.1440    7.4320 C.ar  315  TYR315      0.0417
    108  CE2       29.6570   67.4570    6.7550 C.ar  315  TYR315      0.0417
    109  CZ        28.2970   67.1480    6.6540 C.ar  315  TYR315      0.1957
    110  OH        27.4920   67.8690    5.7980 O.3   315  TYR315     -0.2866
    111  N         23.5500   58.8300    4.2750 N.3   343  ASN343     -0.1240
    112  CA        24.2800   60.0700    4.4290 C.3   343  ASN343      0.1653
    113  C         24.5830   60.4420    5.8690 C.2   343  ASN343      0.2266
    114  O         23.7130   60.3600    6.7340 O.2   343  ASN343     -0.2867
    115  CB        23.5080   61.2220    3.7360 C.3   343  ASN343      0.1155
    116  CG        22.0590   61.3200    4.1860 C.2   343  ASN343      0.2627
    117  OD1       21.3030   60.3550    4.1320 O.2   343  ASN343     -0.2716
    118  ND2       21.6470   62.5180    4.5740 N.am  343  ASN343     -0.0877
    119  N         24.8680   63.4000    7.1360 N.3   345  GLY345     -0.1210
    120  CA        24.0750   64.5560    7.5930 C.3   345  GLY345      0.1956
    121  C         22.6870   64.1620    8.0530 C.2   345  GLY345      0.2612
    122  O         21.9680   64.9780    8.6480 O.2   345  GLY345     -0.2717
    123  N         22.3030   62.9180    7.7710 N.am  346  GLY346     -0.1956
    124  CA        20.9870   62.3970    8.1570 C.3   346  GLY346      0.1869
    125  C         20.9600   61.8140    9.5630 C.2   346  GLY346      0.2309
    126  O         19.9360   61.2900    9.9860 O.2   346  GLY346     -0.2863
    127  N         21.4040   62.5510   13.4400 N.3   348  ARG348     -0.1245
    128  CA        21.2090   63.8610   14.0880 C.3   348  ARG348      0.1563
    129  C         21.4890   63.9560   15.5830 C.2   348  ARG348      0.2260
    130  O         21.4150   65.0430   16.1660 O.2   348  ARG348     -0.2867
    131  CB        19.7960   64.4040   13.7840 C.3   348  ARG348      0.0307
    132  CG        19.4070   64.3940   12.2870 C.3   348  ARG348      0.0489
    133  CD        20.3320   65.3020   11.4650 C.3   348  ARG348      0.2205
    134  NE        20.0560   66.7080   11.7270 N.pl3 348  ARG348     -0.0865
    135  CZ        20.4400   67.7020   10.9340 C.cat 348  ARG348      0.5346
    136  NH1       21.1260   67.4370    9.8260 N.pl3 348  ARG348      0.1354
    137  NH2       20.1210   68.9620   11.2330 N.pl3 348  ARG348      0.1354
    138  N         14.0930   61.3540    9.8210 N.3   366  PHE366     -0.1228
    139  CA        13.5920   61.7870    8.4980 C.3   366  PHE366      0.1721
    140  C         12.6510   60.7610    7.8820 C.2   366  PHE366      0.2437
    141  O         12.8530   59.5600    8.0510 O.2   366  PHE366     -0.2733
    142  CB        14.7480   62.0300    7.5300 C.3   366  PHE366      0.0547
    143  CG        15.6640   63.1230    7.9700 C.ar  366  PHE366     -0.0202
    144  CD1       15.2930   64.4490    7.7950 C.ar  366  PHE366     -0.0042
    145  CD2       16.8900   62.8300    8.5880 C.ar  366  PHE366     -0.0042
    146  CE1       16.1310   65.4960    8.2050 C.ar  366  PHE366     -0.0003
    147  CE2       17.7440   63.8790    8.9970 C.ar  366  PHE366     -0.0003
    148  CZ        17.3420   65.2190    8.8120 C.ar  366  PHE366     -0.0000
    149  N         11.6550   61.2430    7.1190 N.am  367  PRO367     -0.2718
    150  CA        10.7860   60.3170    6.3880 C.3   367  PRO367      0.1535
    151  C         11.4770   59.9080    5.0860 C.2   367  PRO367      0.2598
    152  O         10.9600   60.1500    3.9850 O.2   367  PRO367     -0.2715
    153  CB         9.5300   61.1610    6.1070 C.3   367  PRO367      0.0310
    154  CG        10.0330   62.5850    6.0420 C.3   367  PRO367      0.0237
    155  CD        11.2080   62.6500    7.0250 C.3   367  PRO367      0.0939
    156  N         12.6530   59.3200    5.2120 N.am  368  ASN368     -0.1973
    157  CA        13.4270   58.8740    4.0430 C.3   368  ASN368      0.1688
    158  C         13.2330   57.3690    3.8710 C.2   368  ASN368      0.2292
    159  O         13.6500   56.5770    4.7210 O.2   368  ASN368     -0.2864
    160  CB        14.8960   59.1860    4.2640 C.3   368  ASN368      0.1181
    161  CG        15.1820   60.6790    4.2970 C.2   368  ASN368      0.2629
    162  OD1       14.3290   61.5010    3.9350 O.2   368  ASN368     -0.2716
    163  ND2       16.3830   61.0390    4.7480 N.am  368  ASN368     -0.0877
    164  N         15.9540   60.2110    0.2150 N.3   435  PHE435     -0.1241
    165  CA        16.6500   61.5160    0.1630 C.3   435  PHE435      0.1605
    166  C         17.8450   61.4130   -0.7800 C.2   435  PHE435      0.2264
    167  O         18.0040   62.2510   -1.6870 O.2   435  PHE435     -0.2867
    168  CB        17.0890   61.9990    1.5590 C.3   435  PHE435      0.0534
    169  CG        17.9670   63.2050    1.5100 C.ar  435  PHE435     -0.0203
    170  CD1       17.4040   64.4830    1.3380 C.ar  435  PHE435     -0.0042
    171  CD2       19.3450   63.0830    1.6240 C.ar  435  PHE435     -0.0042
    172  CE1       18.2220   65.6460    1.3080 C.ar  435  PHE435     -0.0003
    173  CE2       20.1920   64.2430    1.5780 C.ar  435  PHE435     -0.0003
    174  CZ        19.6240   65.5220    1.4060 C.ar  435  PHE435     -0.0000
    175  N         21.9220   66.1620   -1.2210 N.3   441  ASP441     -0.1239
    176  CA        23.2570   66.4300   -0.7240 C.3   441  ASP441      0.1674
    177  C         24.2590   66.3980   -1.8760 C.2   441  ASP441      0.2266
    178  O         25.4480   66.2260   -1.6420 O.2   441  ASP441     -0.2867
    179  CB        23.6540   65.4180    0.3640 C.3   441  ASP441      0.1410
    180  CG        23.3290   65.8850    1.7690 C.2   441  ASP441      0.3668
    181  OD1       23.0210   67.0870    1.9830 O.co2 441  ASP441     -0.2456
    182  OD2       23.3650   65.0160    2.6770 O.co2 441  ASP441     -0.2456
@<TRIPOS>BOND
     1   177   178    2
     2   177   176    1
     3   167   166    2
     4    54    55    2
     5    54    53    1
     6   175   176    1
     7   166   165    1
     8   176   179    1
     9    53    52    1
    10    53    56    1
    11   165   164    1
    12   165   168    1
    13    45    46    1
    14   179   180    1
    15    57    56    1
    16   172   170   ar
    17   172   174   ar
    18   170   169   ar
    19   174   173   ar
    20    46    47    1
    21    46    49    1
    22   169   168    1
    23   169   171   ar
    24   173   171   ar
    25    47    48    2
    26   180   181   ar
    27   180   182   ar
    28    51    49    1
    29    49    50    1
    30    64    63    1
    31    64    58    1
    32   115   116    1
    33   115   112    1
    34   158   157    1
    35   158   159    2
    36   162   161    2
    37   152   151    2
    38   157   160    1
    39   157   156    1
    40    63    62    1
    41   117   116    2
    42   116   118   am
    43    88    86   ar
    44    88    87   ar
    45    23    20    1
    46    23    24    1
    47   160   161    1
    48   111   112    1
    49   161   163   am
    50   112   113    1
    51    58    59    1
    52    86    84   ar
    53    20    19    1
    54    20    21    1
    55    87    85   ar
    56    22    21    2
    57   151   156   am
    58   151   150    1
    59    62    59    1
    60    24    25    2
    61    24    26   am
    62    40    39    2
    63    21    27   am
    64    59    60    1
    65    84    85   ar
    66    84    83    1
    67    39    38    1
    68   110   109    1
    69    37    38    1
    70   113   114    2
    71    38    41    1
    72    43    42   ar
    73   154   153    1
    74   154   155    1
    75   153   150    1
    76   150   149    1
    77    83    80    1
    78   109   108   ar
    79   109   107   ar
    80   108   106   ar
    81    61    60    2
    82    27    28    1
    83    60    65   am
    84   102   101    2
    85   155   149    1
    86    42    41    1
    87    42    44   ar
    88   149   140   am
    89   119   120    1
    90   107   105   ar
    91   142   143    1
    92   142   139    1
    93   120   121    1
    94   106   104   ar
    95    28    29    1
    96    28    31    1
    97   123   121   am
    98   123   124    1
    99   144   143   ar
   100   144   146   ar
   101   140   141    2
   102   140   139    1
   103    29    30    2
   104   143   145   ar
   105   121   122    2
   106    65    66    1
   107    80    81    1
   108    80    79    1
   109   124   125    1
   110    35    36   ar
   111    35    33   ar
   112   101   100    1
   113   146   148   ar
   114   105   104   ar
   115    36    34   ar
   116    33    32   ar
   117   104   103    1
   118   139   138    1
   119    81    82    2
   120   145   147   ar
   121    17    16   ar
   122    34    32   ar
   123    32    31    1
   124   148   147   ar
   125    68    67    2
   126    18    16   ar
   127   100   103    1
   128   100    99    1
   129    66    67    1
   130    66    69    1
   131    16    15    1
   132   125   126    2
   133   136   135    1
   134    11    12    1
   135    75    74    1
   136    75    76    1
   137    15    12    1
   138   135   137    1
   139   135   134    2
   140    70    71    1
   141    12    13    1
   142    74    71    1
   143    89    90    1
   144   133   134    1
   145   133   132    1
   146    78    76   am
   147     9    10   ar
   148     9     7   ar
   149    98    96   ar
   150    98    97   ar
   151    96    94   ar
   152    73    72    2
   153    76    77    2
   154    71    72    1
   155    10     8   ar
   156   132   131    1
   157    13    14    2
   158    97    95   ar
   159    94    93    1
   160    94    95   ar
   161    90    93    1
   162    90    91    1
   163     7     6   ar
   164    91    92    2
   165   127   128    1
   166     8     6   ar
   167   131   128    1
   168     6     5    1
   169   128   129    1
   170     5     2    1
   171   129   130    2
   172     2     1    1
   173     2     3    1
   174     3     4    2
