@<TRIPOS>MOLECULE
tmp/3ivgB00.pdb
 218 209 0 0 0
SMALL
GASTEIGER

@<TRIPOS>ATOM
      1  N         -3.4120   -7.1340   29.6600 N.3    37  PRO37      -0.2102
      2  CA        -2.6570   -8.2960   29.1440 C.3    37  PRO37       0.1504
      3  C         -2.3250   -9.3030   30.2620 C.2    37  PRO37       0.2576
      4  O         -1.8940   -8.8950   31.3630 O.2    37  PRO37      -0.2718
      5  CB        -1.3660   -7.6820   28.5970 C.3    37  PRO37       0.0282
      6  CG        -1.6580   -6.1380   28.5320 C.3    37  PRO37       0.0208
      7  CD        -2.5760   -5.9270   29.7240 C.3    37  PRO37       0.0893
      8  N         -2.5460  -10.5860   29.9680 N.am   38  THR38      -0.1939
      9  CA        -2.3430  -11.6750   30.9150 C.3    38  THR38       0.2028
     10  C         -1.6400  -12.8220   30.2230 C.2    38  THR38       0.2642
     11  O         -1.6280  -12.9350   28.9930 O.2    38  THR38      -0.2714
     12  CB        -3.6670  -12.2050   31.5620 C.3    38  THR38       0.1808
     13  OG1       -4.3680  -13.0560   30.6490 O.3    38  THR38      -0.2208
     14  CG2       -4.5810  -11.0910   32.0390 C.3    38  THR38       0.0379
     15  N         -1.0260  -13.6910   31.0110 N.am   39  MET39      -0.1962
     16  CA        -0.5240  -14.9090   30.4110 C.3    39  MET39       0.1736
     17  C         -1.4140  -16.0850   30.7710 C.2    39  MET39       0.2617
     18  O         -0.9320  -17.2080   30.8740 O.2    39  MET39      -0.2715
     19  CB         0.9050  -15.1730   30.8280 C.3    39  MET39       0.0427
     20  CG         1.9350  -14.3670   30.0660 C.3    39  MET39       0.0599
     21  SD         3.5710  -14.9020   30.5940 S.3    39  MET39      -0.1393
     22  CE         3.6590  -14.1000   32.2040 C.3    39  MET39       0.0692
     23  N         -2.7150  -15.8490   30.9590 N.am   40  GLY40      -0.1955
     24  CA        -3.6170  -16.9440   31.3750 C.3    40  GLY40       0.1869
     25  C         -3.3200  -17.4710   32.7790 C.2    40  GLY40       0.2309
     26  O         -2.5250  -16.8670   33.5160 O.2    40  GLY40      -0.2863
     27  N         -5.6830  -15.4270   38.3180 N.3    43  HIS43      -0.1241
     28  CA        -5.9340  -15.4460   39.7420 C.3    43  HIS43       0.1621
     29  C         -6.4110  -14.0730   40.1590 C.2    43  HIS43       0.2264
     30  O         -6.6490  -13.1950   39.3150 O.2    43  HIS43      -0.2867
     31  CB        -4.6610  -15.8090   40.5280 C.3    43  HIS43       0.0745
     32  CG        -3.4850  -14.9360   40.2230 C.ar   43  HIS43       0.0817
     33  ND1       -3.4630  -13.5810   40.4920 N.ar   43  HIS43      -0.2268
     34  CD2       -2.2880  -15.2260   39.6600 C.ar   43  HIS43       0.1154
     35  CE1       -2.3050  -13.0770   40.1050 C.ar   43  HIS43       0.1986
     36  NE2       -1.5820  -14.0520   39.5880 N.ar   43  HIS43      -0.2212
     37  N         -5.0990  -11.4640   41.4330 N.3    45  GLY45      -0.1210
     38  CA        -4.3090  -10.3290   40.9490 C.3    45  GLY45       0.1956
     39  C         -4.7880   -9.9160   39.5630 C.2    45  GLY45       0.2611
     40  O         -5.0070   -8.7180   39.3160 O.2    45  GLY45      -0.2717
     41  N         -4.9680  -10.8980   38.6910 N.am   46  HIS46      -0.1975
     42  CA        -5.5320  -10.6470   37.3630 C.3    46  HIS46       0.1656
     43  C         -6.9260  -10.0190   37.4650 C.2    46  HIS46       0.2291
     44  O         -7.1660   -9.0430   36.8240 O.2    46  HIS46      -0.2864
     45  CB        -5.5310  -11.8970   36.4910 C.3    46  HIS46       0.0771
     46  CG        -4.1650  -12.4300   36.1820 C.ar   46  HIS46       0.0820
     47  ND1       -3.7250  -13.6650   36.6240 N.ar   46  HIS46      -0.2267
     48  CD2       -3.1420  -11.9060   35.4620 C.ar   46  HIS46       0.1154
     49  CE1       -2.4960  -13.8770   36.1810 C.ar   46  HIS46       0.1986
     50  NE2       -2.1210  -12.8230   35.4720 N.ar   46  HIS46      -0.2212
     51  N         -8.2230   -8.1970   39.9240 N.3    48  ALA48      -0.1231
     52  CA        -8.0200   -6.8160   40.3340 C.3    48  ALA48       0.1694
     53  C         -7.7260   -5.8580   39.1680 C.2    48  ALA48       0.2591
     54  O         -8.2950   -4.7380   39.1510 O.2    48  ALA48      -0.2718
     55  CB        -6.9260   -6.7060   41.4290 C.3    48  ALA48       0.0304
     56  N         -6.8860   -6.2850   38.2140 N.am   49  LEU49      -0.1980
     57  CA        -6.6360   -5.5370   36.9540 C.3    49  LEU49       0.1596
     58  C         -7.9580   -5.3630   36.1730 C.2    49  LEU49       0.2287
     59  O         -8.3390   -4.2700   35.8050 O.2    49  LEU49      -0.2864
     60  CB        -5.6330   -6.2710   36.0500 C.3    49  LEU49       0.0297
     61  CG        -4.2630   -6.6420   36.6600 C.3    49  LEU49       0.0022
     62  CD1       -3.3990   -7.3370   35.6290 C.3    49  LEU49       0.0001
     63  CD2       -3.6020   -5.3970   37.1880 C.3    49  LEU49       0.0001
     64  N         -6.1750   -9.8410   27.0960 N.3    64  SER64      -0.1217
     65  CA        -5.4370  -10.6890   26.1970 C.3    64  SER64       0.1889
     66  C         -4.8970  -11.8420   27.0050 C.2    64  SER64       0.2288
     67  O         -4.5930  -11.7040   28.1860 O.2    64  SER64      -0.2866
     68  CB        -4.3250   -9.9440   25.4500 C.3    64  SER64       0.2089
     69  OG        -3.3320   -9.4160   26.2980 O.3    64  SER64      -0.2183
     70  N         -2.1230  -14.5820   26.1870 N.3    66  PHE66      -0.1241
     71  CA        -1.1280  -14.9760   25.2160 C.3    66  PHE66       0.1605
     72  C          0.1140  -15.3880   25.9470 C.2    66  PHE66       0.2264
     73  O          0.6570  -14.6180   26.7410 O.2    66  PHE66      -0.2867
     74  CB        -0.7840  -13.8590   24.2290 C.3    66  PHE66       0.0534
     75  CG         0.3090  -14.2400   23.2650 C.ar   66  PHE66      -0.0203
     76  CD1        0.1470  -15.3250   22.3900 C.ar   66  PHE66      -0.0042
     77  CD2        1.5200  -13.5490   23.2560 C.ar   66  PHE66      -0.0042
     78  CE1        1.1770  -15.6860   21.4950 C.ar   66  PHE66      -0.0003
     79  CE2        2.5460  -13.8950   22.3780 C.ar   66  PHE66      -0.0003
     80  CZ         2.3860  -14.9630   21.4960 C.ar   66  PHE66      -0.0000
     81  N          9.1600  -13.9290   25.8870 N.3    71  GLN71      -0.1245
     82  CA         9.2490  -13.5710   27.3030 C.3    71  GLN71       0.1566
     83  C          9.2840  -14.8320   28.1760 C.2    71  GLN71       0.2260
     84  O          9.8610  -14.8360   29.2650 O.2    71  GLN71      -0.2867
     85  CB         8.0760  -12.6780   27.7050 C.3    71  GLN71       0.0367
     86  CG         6.7840  -13.4040   28.0720 C.3    71  GLN71       0.0905
     87  CD         5.6190  -12.4430   28.2710 C.2    71  GLN71       0.2608
     88  OE1        5.0370  -11.9400   27.3080 O.2    71  GLN71      -0.2717
     89  NE2        5.2720  -12.1900   29.5300 N.am   71  GLN71      -0.0878
     90  N          9.0930   -9.2830   26.5580 N.3   126  VAL126     -0.1245
     91  CA         7.9110   -8.6790   27.1450 C.3   126  VAL126      0.1561
     92  C          7.5490   -7.3600   26.4300 C.2   126  VAL126      0.2260
     93  O          6.3910   -7.1210   26.0980 O.2   126  VAL126     -0.2867
     94  CB         8.1170   -8.4240   28.6690 C.3   126  VAL126      0.0252
     95  CG1        6.9330   -7.6010   29.2610 C.3   126  VAL126      0.0019
     96  CG2        8.2860   -9.7610   29.4080 C.3   126  VAL126      0.0019
     97  N          6.1610   -7.9850   22.8130 N.3   129  VAL129     -0.1231
     98  CA         4.7680   -8.3940   22.8100 C.3   129  VAL129      0.1692
     99  C          3.8010   -7.3000   23.2730 C.2   129  VAL129      0.2591
    100  O          2.7220   -7.1230   22.6670 O.2   129  VAL129     -0.2718
    101  CB         4.5600   -9.7300   23.6220 C.3   129  VAL129      0.0266
    102  CG1        4.6950   -9.4960   25.1320 C.3   129  VAL129      0.0020
    103  CG2        3.1940  -10.3280   23.3270 C.3   129  VAL129      0.0020
    104  N          4.1690   -6.5460   24.3100 N.am  130  VAL130     -0.1980
    105  CA         3.2790   -5.4590   24.8210 C.3   130  VAL130      0.1595
    106  C          3.1010   -4.3980   23.7500 C.2   130  VAL130      0.2287
    107  O          2.0040   -3.9030   23.5280 O.2   130  VAL130     -0.2864
    108  CB         3.8410   -4.8390   26.0840 C.3   130  VAL130      0.0276
    109  CG1        3.1310   -3.4740   26.4310 C.3   130  VAL130      0.0022
    110  CG2        3.8150   -5.8630   27.2620 C.3   130  VAL130      0.0022
    111  N          0.7110   -5.7600   21.2410 N.3   133  LEU133     -0.1245
    112  CA        -0.6620   -5.8100   21.7530 C.3   133  LEU133      0.1561
    113  C         -1.2670   -4.4160   21.7600 C.2   133  LEU133      0.2260
    114  O         -2.4270   -4.2480   21.3830 O.2   133  LEU133     -0.2867
    115  CB        -0.6650   -6.3640   23.1790 C.3   133  LEU133      0.0270
    116  CG        -0.4780   -7.8670   23.3640 C.3   133  LEU133      0.0019
    117  CD1       -0.3450   -8.1390   24.8400 C.3   133  LEU133      0.0001
    118  CD2       -1.6290   -8.6980   22.7970 C.3   133  LEU133      0.0001
    119  N         -1.3650   -2.9840   34.2870 N.3   144  PHE144     -0.1227
    120  CA        -0.2960   -3.9100   34.7340 C.3   144  PHE144      0.1736
    121  C         -0.2100   -3.9130   36.2650 C.2   144  PHE144      0.2596
    122  O         -0.4270   -2.8770   36.8780 O.2   144  PHE144     -0.2718
    123  CB         1.0560   -3.4370   34.1680 C.3   144  PHE144      0.0547
    124  CG         1.1910   -3.6640   32.7020 C.ar  144  PHE144     -0.0202
    125  CD1        1.3700   -4.9640   32.2030 C.ar  144  PHE144     -0.0042
    126  CD2        1.1240   -2.5850   31.8190 C.ar  144  PHE144     -0.0042
    127  CE1        1.4410   -5.1870   30.8120 C.ar  144  PHE144     -0.0003
    128  CE2        1.1660   -2.7950   30.4310 C.ar  144  PHE144     -0.0003
    129  CZ         1.3300   -4.1070   29.9290 C.ar  144  PHE144     -0.0000
    130  N          0.0910   -5.0560   36.8750 N.am  145  GLY145     -0.1957
    131  CA         0.2520   -5.1290   38.3280 C.3   145  GLY145      0.1869
    132  C          1.5840   -4.5330   38.7500 C.2   145  GLY145      0.2309
    133  O          2.5610   -4.6430   38.0120 O.2   145  GLY145     -0.2863
    134  N          3.2070   -5.7600   41.0160 N.3   147  LYS147     -0.1231
    135  CA         3.9230   -7.0050   41.3370 C.3   147  LYS147      0.1693
    136  C          5.2000   -7.1050   40.5410 C.2   147  LYS147      0.2592
    137  O          6.2780   -7.2900   41.0880 O.2   147  LYS147     -0.2718
    138  CB         3.0040   -8.2100   41.0490 C.3   147  LYS147      0.0285
    139  CG         3.6900   -9.5980   41.1450 C.3   147  LYS147      0.0035
    140  CD         3.6960  -10.0860   42.6190 C.3   147  LYS147      0.0206
    141  CE         4.2550  -11.4760   42.7520 C.3   147  LYS147      0.1093
    142  NZ         5.6450  -11.3830   42.3980 N.3   147  LYS147     -0.1314
    143  N          5.0830   -6.9230   39.2350 N.am  148  ASP148     -0.1974
    144  CA         6.2510   -6.9620   38.3850 C.3   148  ASP148      0.1709
    145  C          6.6680   -5.5250   38.1210 C.2   148  ASP148      0.2293
    146  O          6.4350   -4.9840   37.0370 O.2   148  ASP148     -0.2864
    147  CB         5.9200   -7.7310   37.1160 C.3   148  ASP148      0.1436
    148  CG         5.6770   -9.2020   37.4070 C.2   148  ASP148      0.3671
    149  OD1        6.6400   -9.8720   37.8620 O.co2 148  ASP148     -0.2456
    150  OD2        4.5330   -9.6570   37.1870 O.co2 148  ASP148     -0.2456
    151  N          9.1940   -4.6660   35.3610 N.3   151  GLN151     -0.1245
    152  CA         8.4910   -4.7650   34.1070 C.3   151  GLN151      0.1566
    153  C          7.6430   -3.5010   33.8790 C.2   151  GLN151      0.2260
    154  O          7.6500   -2.9560   32.7900 O.2   151  GLN151     -0.2867
    155  CB         7.5910   -5.9680   34.1200 C.3   151  GLN151      0.0367
    156  CG         6.8080   -6.1700   32.8060 C.3   151  GLN151      0.0905
    157  CD         5.8240   -7.3120   32.9640 C.2   151  GLN151      0.2608
    158  OE1        6.2270   -8.4830   32.8910 O.2   151  GLN151     -0.2717
    159  NE2        4.5380   -6.9830   33.2670 N.am  151  GLN151     -0.0878
    160  N         -1.4600   -1.2260   38.9950 N.3   171  VAL171     -0.1231
    161  CA        -2.4550   -1.6530   39.9950 C.3   171  VAL171      0.1678
    162  C         -1.7100   -2.3110   41.1990 C.2   171  VAL171      0.2434
    163  O         -0.8850   -3.2560   41.0170 O.2   171  VAL171     -0.2733
    164  CB        -3.4600   -2.6440   39.3710 C.3   171  VAL171      0.0265
    165  CG1       -4.4740   -3.1950   40.4030 C.3   171  VAL171      0.0020
    166  CG2       -4.1980   -1.9950   38.1420 C.3   171  VAL171      0.0020
    167  N         -1.9810   -1.8070   42.4290 N.am  172  PRO172     -0.2718
    168  CA        -1.3360   -2.3610   43.6420 C.3   172  PRO172      0.1535
    169  C         -1.4520   -3.8770   43.7350 C.2   172  PRO172      0.2599
    170  O         -2.4570   -4.4700   43.3300 O.2   172  PRO172     -0.2715
    171  CB        -2.0710   -1.6490   44.8110 C.3   172  PRO172      0.0310
    172  CG        -2.5110   -0.3300   44.2120 C.3   172  PRO172      0.0237
    173  CD        -2.8440   -0.6470   42.7400 C.3   172  PRO172      0.0939
    174  N         -0.3710   -4.5000   44.1780 N.am  173  THR173     -0.1937
    175  CA        -0.2840   -5.9490   44.3510 C.3   173  THR173      0.2028
    176  C         -1.4000   -6.5080   45.2650 C.2   173  THR173      0.2642
    177  O         -1.6060   -6.0160   46.3690 O.2   173  THR173     -0.2714
    178  CB         1.1090   -6.2690   44.8990 C.3   173  THR173      0.1808
    179  OG1        2.0730   -5.8630   43.9200 O.3   173  THR173     -0.2208
    180  CG2        1.2780   -7.7540   45.1850 C.3   173  THR173      0.0379
    181  N         -2.1420   -7.4910   44.7520 N.am  174  VAL174     -0.1977
    182  CA        -3.1220   -8.2680   45.5260 C.3   174  VAL174      0.1596
    183  C         -2.3030   -9.2880   46.3470 C.2   174  VAL174      0.2287
    184  O         -1.3620   -9.9080   45.8360 O.2   174  VAL174     -0.2864
    185  CB        -4.0910   -9.0370   44.6160 C.3   174  VAL174      0.0276
    186  CG1       -5.1120   -9.8430   45.4570 C.3   174  VAL174      0.0022
    187  CG2       -4.8550   -8.0850   43.7160 C.3   174  VAL174      0.0022
    188  N          0.3660  -12.1990   45.5240 N.3   182  MET182     -0.1230
    189  CA        -0.2410  -13.2400   44.6550 C.3   182  MET182      0.1702
    190  C          0.6440  -13.5410   43.4500 C.2   182  MET182      0.2593
    191  O          1.2070  -12.6440   42.8790 O.2   182  MET182     -0.2718
    192  CB        -1.6490  -12.8520   44.2100 C.3   182  MET182      0.0401
    193  CG        -2.6360  -12.8570   45.3640 C.3   182  MET182      0.0596
    194  SD        -4.0840  -13.7460   44.8940 S.3   182  MET182     -0.1393
    195  CE        -5.1690  -13.4710   46.3220 C.3   182  MET182      0.0692
    196  N          0.7910  -14.8140   43.1130 N.am  183  SER183     -0.1938
    197  CA         1.5960  -15.2560   41.9770 C.3   183  SER183      0.2055
    198  C          1.2350  -16.7130   41.7350 C.2   183  SER183      0.2644
    199  O          0.8100  -17.4130   42.6590 O.2   183  SER183     -0.2714
    200  CB         3.0950  -15.0700   42.2410 C.3   183  SER183      0.2130
    201  OG         3.9070  -15.9240   41.4550 O.3   183  SER183     -0.2179
    202  N          1.3460  -17.1470   40.4820 N.am  184  SER184     -0.1935
    203  CA         0.9970  -18.5200   40.1150 C.3   184  SER184      0.2055
    204  C          2.0110  -19.4500   40.7570 C.2   184  SER184      0.2642
    205  O          1.6890  -20.5770   41.1240 O.2   184  SER184     -0.2714
    206  CB         0.9580  -18.6920   38.5820 C.3   184  SER184      0.2130
    207  OG         2.1160  -18.1280   37.9730 O.3   184  SER184     -0.2179
    208  N          3.2300  -18.9440   40.9380 N.am  185  ARG185     -0.1977
    209  CA         4.3000  -19.7310   41.5780 C.3   185  ARG185      0.1597
    210  C          3.9970  -20.1590   43.0210 C.2   185  ARG185      0.2287
    211  O          4.5290  -21.1670   43.4950 O.2   185  ARG185     -0.2864
    212  CB         5.6360  -18.9980   41.4850 C.3   185  ARG185      0.0334
    213  CG         6.1590  -18.9190   40.0500 C.3   185  ARG185      0.0492
    214  CD         7.5600  -18.3640   39.9770 C.3   185  ARG185      0.2205
    215  NE         7.8180  -17.7180   38.6890 N.pl3 185  ARG185     -0.0865
    216  CZ         9.0240  -17.4090   38.2200 C.cat 185  ARG185      0.5346
    217  NH1       10.1150  -17.6880   38.9240 N.pl3 185  ARG185      0.1354
    218  NH2        9.1370  -16.8140   37.0340 N.pl3 185  ARG185      0.1354
@<TRIPOS>BOND
     1   111   112    1
     2   114   113    2
     3    78    80   ar
     4    78    76   ar
     5    80    79   ar
     6   112   113    1
     7   112   115    1
     8    79    77   ar
     9    76    75   ar
    10   100    99    2
    11   118   116    1
    12    98    97    1
    13    98    99    1
    14    98   101    1
    15   115   116    1
    16    77    75   ar
    17    75    74    1
    18    99   104   am
    19   103   101    1
    20   116   117    1
    21   107   106    2
    22   101   102    1
    23   106   105    1
    24    74    71    1
    25   104   105    1
    26   105   108    1
    27    71    72    1
    28    71    70    1
    29    68    65    1
    30    68    69    1
    31    81    82    1
    32    72    73    2
    33   108   109    1
    34   108   110    1
    35    93    92    2
    36    65    66    1
    37    65    64    1
    38    92    91    1
    39    90    91    1
    40    66    67    2
    41    91    94    1
    42    82    85    1
    43    82    83    1
    44    88    87    2
    45    85    86    1
    46    86    87    1
    47    83    84    2
    48    87    89   am
    49     6     5    1
    50     6     7    1
    51     5     2    1
    52    94    95    1
    53    94    96    1
    54    11    10    2
    55     2     1    1
    56     2     3    1
    57     1     7    1
    58   129   128   ar
    59   129   127   ar
    60     8     3   am
    61     8     9    1
    62    20    21    1
    63    20    19    1
    64    10     9    1
    65    10    15   am
    66     3     4    2
    67    16    17    1
    68    16    19    1
    69    16    15    1
    70   128   126   ar
    71    21    22    1
    72    13    12    1
    73    17    18    2
    74    17    23   am
    75   127   125   ar
    76     9    12    1
    77    23    24    1
    78    24    25    1
    79    12    14    1
    80   126   124   ar
    81   125   124   ar
    82   124   123    1
    83    25    26    2
    84   154   153    2
    85   156   157    1
    86   156   155    1
    87   158   157    2
    88   157   159   am
    89   153   152    1
    90   152   155    1
    91   152   151    1
    92   123   120    1
    93   119   120    1
    94   120   121    1
    95    48    50   ar
    96    48    46   ar
    97    50    49   ar
    98    62    61    1
    99    59    58    2
   100    60    61    1
   101    60    57    1
   102    58    57    1
   103    49    47   ar
   104    46    45    1
   105    46    47   ar
   106   121   130   am
   107   121   122    2
   108    45    42    1
   109    61    63    1
   110    44    43    2
   111   130   131    1
   112    57    56    1
   113   218   216    1
   114   146   145    2
   115   147   148    1
   116   147   144    1
   117   150   148   ar
   118    42    43    1
   119    42    41    1
   120   148   149   ar
   121   207   206    1
   122   133   132    2
   123   145   144    1
   124   166   164    1
   125    56    53   am
   126   216   215    2
   127   216   217    1
   128    27    28    1
   129   131   132    1
   130   144   143    1
   131   206   203    1
   132   215   214    1
   133    41    39   am
   134   160   161    1
   135    54    53    2
   136    53    52    1
   137   143   136   am
   138    30    29    2
   139    40    39    2
   140   164   161    1
   141   164   165    1
   142    39    38    1
   143    36    34   ar
   144    36    35   ar
   145    34    32   ar
   146    28    29    1
   147    28    31    1
   148    51    52    1
   149   214   213    1
   150   161   162    1
   151   213   212    1
   152    35    33   ar
   153   203   202    1
   154   203   204    1
   155    32    33   ar
   156    32    31    1
   157    52    55    1
   158   202   198   am
   159   136   137    2
   160   136   135    1
   161   204   208   am
   162   204   205    2
   163   208   209    1
   164    38    37    1
   165   134   135    1
   166   163   162    2
   167   138   139    1
   168   138   135    1
   169   139   140    1
   170   162   167   am
   171   201   200    1
   172   212   209    1
   173   209   210    1
   174   198   197    1
   175   198   199    2
   176   197   200    1
   177   197   196    1
   178   142   141    1
   179   167   173    1
   180   167   168    1
   181   140   141    1
   182   173   172    1
   183   191   190    2
   184   210   211    2
   185   196   190   am
   186   170   169    2
   187   190   189    1
   188   168   169    1
   189   168   171    1
   190   187   185    1
   191   169   174   am
   192   179   178    1
   193   174   175    1
   194   192   189    1
   195   192   193    1
   196   172   171    1
   197   175   178    1
   198   175   176    1
   199   185   186    1
   200   185   182    1
   201   189   188    1
   202   181   176   am
   203   181   182    1
   204   194   193    1
   205   194   195    1
   206   178   180    1
   207   176   177    2
   208   182   183    1
   209   184   183    2
