@<TRIPOS>MOLECULE
tmp/3ivmA01.pdb
 159 150 0 0 0
SMALL
GASTEIGER

@<TRIPOS>ATOM
      1  N         12.2320   89.1410   34.9960 N.3   446  ILE446     -0.1245
      2  CA        12.0170   89.2520   36.4270 C.3   446  ILE446      0.1561
      3  C         11.0870   90.4240   36.5770 C.2   446  ILE446      0.2260
      4  O         11.4100   91.5320   36.1410 O.2   446  ILE446     -0.2867
      5  CB        13.3200   89.5290   37.2110 C.3   446  ILE446      0.0252
      6  CG1       14.1820   88.2700   37.2310 C.3   446  ILE446      0.0019
      7  CG2       13.0000   89.9550   38.6600 C.3   446  ILE446      0.0019
      8  CD1       15.5620   88.5010   37.8190 C.3   446  ILE446      0.0001
      9  N          9.2800   92.8520   39.1320 N.3   448  TYR448     -0.1241
     10  CA         9.4840   93.3710   40.4820 C.3   448  TYR448      0.1605
     11  C          8.3390   94.2870   40.8870 C.2   448  TYR448      0.2264
     12  O          7.8000   95.0190   40.0580 O.2   448  TYR448     -0.2867
     13  CB        10.8120   94.1510   40.5290 C.3   448  TYR448      0.0534
     14  CG        11.2200   94.6440   41.9020 C.ar  448  TYR448     -0.0201
     15  CD1       11.7520   93.7710   42.8460 C.ar  448  TYR448     -0.0009
     16  CD2       11.0600   95.9800   42.2600 C.ar  448  TYR448     -0.0009
     17  CE1       12.1070   94.2080   44.1070 C.ar  448  TYR448      0.0417
     18  CE2       11.4200   96.4320   43.5300 C.ar  448  TYR448      0.0417
     19  CZ        11.9380   95.5390   44.4470 C.ar  448  TYR448      0.1957
     20  OH        12.2670   95.9610   45.7130 O.3   448  TYR448     -0.2866
     21  N          6.3550   96.1810   44.7900 N.3   450  TYR450     -0.1241
     22  CA         6.3190   96.4320   46.2420 C.3   450  TYR450      0.1605
     23  C          4.8340   96.5740   46.5510 C.2   450  TYR450      0.2264
     24  O          4.1990   95.6190   46.9560 O.2   450  TYR450     -0.2867
     25  CB         7.0570   97.7370   46.5790 C.3   450  TYR450      0.0534
     26  CG         7.2450   97.9930   48.0620 C.ar  450  TYR450     -0.0201
     27  CD1        8.1920   97.2880   48.8060 C.ar  450  TYR450     -0.0009
     28  CD2        6.4810   98.9570   48.7160 C.ar  450  TYR450     -0.0009
     29  CE1        8.3700   97.5480   50.1750 C.ar  450  TYR450      0.0417
     30  CE2        6.6480   99.2200   50.0570 C.ar  450  TYR450      0.0417
     31  CZ         7.5900   98.5220   50.7900 C.ar  450  TYR450      0.1957
     32  OH         7.7500   98.8340   52.1260 O.3   450  TYR450     -0.2866
     33  N         15.8560  103.3980   39.4540 N.3   460  SER460     -0.1217
     34  CA        17.0080  103.2180   40.3130 C.3   460  SER460      0.1889
     35  C         18.0110  102.2980   39.6120 C.2   460  SER460      0.2288
     36  O         17.6260  101.2730   39.0570 O.2   460  SER460     -0.2866
     37  CB        16.5320  102.6090   41.6380 C.3   460  SER460      0.2089
     38  OG        17.5670  101.9130   42.3070 O.3   460  SER460     -0.2183
     39  N         21.1240   99.5860   39.3900 N.3   462  SER462     -0.1217
     40  CA        21.7060   98.5060   40.1710 C.3   462  SER462      0.1889
     41  C         22.6590   97.6560   39.3490 C.2   462  SER462      0.2288
     42  O         22.3450   97.2390   38.2310 O.2   462  SER462     -0.2866
     43  CB        20.6130   97.6070   40.7330 C.3   462  SER462      0.2089
     44  OG        21.1750   96.4110   41.2330 O.3   462  SER462     -0.2183
     45  N         23.4600   94.6670   39.9270 N.3   464  SER464     -0.1202
     46  CA        22.8470   93.3360   39.7780 C.3   464  SER464      0.2020
     47  C         21.9160   93.3370   38.5780 C.2   464  SER464      0.2618
     48  O         22.0240   92.4890   37.6940 O.2   464  SER464     -0.2717
     49  CB        22.0350   92.9530   41.0150 C.3   464  SER464      0.2103
     50  OG        22.7610   93.1720   42.2080 O.3   464  SER464     -0.2182
     51  N         21.0000   94.2990   38.5490 N.am  465  VAL465     -0.1979
     52  CA        20.0530   94.3900   37.4460 C.3   465  VAL465      0.1595
     53  C         20.7450   94.6130   36.1020 C.2   465  VAL465      0.2287
     54  O         20.3190   94.0550   35.0860 O.2   465  VAL465     -0.2864
     55  CB        19.0230   95.5150   37.6830 C.3   465  VAL465      0.0276
     56  CG1       18.1080   95.6320   36.4850 C.3   465  VAL465      0.0022
     57  CG2       18.2050   95.2080   38.9130 C.3   465  VAL465      0.0022
     58  N         13.9330   93.2410   32.8570 N.3   475  TYR475     -0.1241
     59  CA        13.6290   93.6380   34.2290 C.3   475  TYR475      0.1605
     60  C         12.4490   94.5850   34.1620 C.2   475  TYR475      0.2264
     61  O         12.5360   95.6450   33.5440 O.2   475  TYR475     -0.2867
     62  CB        14.8310   94.3370   34.8720 C.3   475  TYR475      0.0534
     63  CG        14.6580   94.6160   36.3480 C.ar  475  TYR475     -0.0201
     64  CD1       14.4730   93.5760   37.2580 C.ar  475  TYR475     -0.0009
     65  CD2       14.6830   95.9210   36.8370 C.ar  475  TYR475     -0.0009
     66  CE1       14.3200   93.8290   38.6230 C.ar  475  TYR475      0.0417
     67  CE2       14.5300   96.1860   38.1990 C.ar  475  TYR475      0.0417
     68  CZ        14.3490   95.1360   39.0860 C.ar  475  TYR475      0.1957
     69  OH        14.1960   95.3870   40.4390 O.3   475  TYR475     -0.2866
     70  N          9.8750   88.9120   41.8170 N.3   527  ARG527     -0.1245
     71  CA        10.6980   89.3380   42.9350 C.3   527  ARG527      0.1563
     72  C         10.0060   90.4290   43.7500 C.2   527  ARG527      0.2260
     73  O          9.2590   91.2540   43.2070 O.2   527  ARG527     -0.2867
     74  CB        12.0350   89.8560   42.3880 C.3   527  ARG527      0.0307
     75  CG        12.9530   90.5090   43.4040 C.3   527  ARG527      0.0489
     76  CD        13.7880   89.5160   44.1800 C.3   527  ARG527      0.2205
     77  NE        14.5950   90.2260   45.1670 N.pl3 527  ARG527     -0.0865
     78  CZ        15.3280   89.6420   46.1080 C.cat 527  ARG527      0.5346
     79  NH1       15.3690   88.3190   46.2030 N.pl3 527  ARG527      0.1354
     80  NH2       16.0140   90.3870   46.9620 N.pl3 527  ARG527      0.1354
     81  N         10.4220   92.4760   48.0060 N.3   529  GLY529     -0.1210
     82  CA        11.0210   92.5180   49.3380 C.3   529  GLY529      0.1956
     83  C         10.2020   93.2170   50.4180 C.2   529  GLY529      0.2612
     84  O          9.6470   94.2950   50.1760 O.2   529  GLY529     -0.2717
     85  N         10.1560   92.6160   51.6110 N.am  530  SER530     -0.1952
     86  CA         9.3820   93.1410   52.7480 C.3   530  SER530      0.1924
     87  C          7.9640   93.1230   52.4270 C.2   530  SER530      0.2314
     88  O          7.3860   92.0280   52.3170 O.2   530  SER530     -0.2863
     89  CB         9.8560   94.5810   53.1230 C.3   530  SER530      0.2116
     90  OG         9.4810   94.9800   54.4600 O.3   530  SER530     -0.2180
     91  N         10.6290   84.7290   44.1830 N.3   549  LEU549     -0.1245
     92  CA        11.7110   85.1350   45.0710 C.3   549  LEU549      0.1561
     93  C         11.2730   86.1480   46.1260 C.2   549  LEU549      0.2260
     94  O         11.4960   87.3470   45.9780 O.2   549  LEU549     -0.2867
     95  CB        12.8490   85.7320   44.2340 C.3   549  LEU549      0.0270
     96  CG        13.2000   84.9370   42.9680 C.3   549  LEU549      0.0019
     97  CD1       13.8350   85.8560   41.9370 C.3   549  LEU549      0.0001
     98  CD2       14.1070   83.7710   43.3160 C.3   549  LEU549      0.0001
     99  N         11.7230   88.1960   49.3230 N.3   551  ALA551     -0.1231
    100  CA        12.7920   88.5740   50.2390 C.3   551  ALA551      0.1694
    101  C         12.2400   89.2180   51.5080 C.2   551  ALA551      0.2591
    102  O         11.2800   89.9950   51.4500 O.2   551  ALA551     -0.2718
    103  CB        13.7650   89.5270   49.5520 C.3   551  ALA551      0.0304
    104  N         12.8640   88.8840   52.6390 N.am  552  VAL552     -0.1980
    105  CA        12.5060   89.4000   53.9660 C.3   552  VAL552      0.1595
    106  C         11.0270   89.7920   54.0650 C.2   552  VAL552      0.2287
    107  O         10.6840   90.8290   54.6320 O.2   552  VAL552     -0.2864
    108  CB        13.3820   90.6400   54.3210 C.3   552  VAL552      0.0276
    109  CG1       14.8290   90.2180   54.5870 C.3   552  VAL552      0.0022
    110  CG2       13.3270   91.6460   53.1890 C.3   552  VAL552      0.0022
    111  N         17.6800   93.4480   57.7830 N.3   644  HIS644     -0.1226
    112  CA        16.6780   93.7140   56.7620 C.3   644  HIS644      0.1756
    113  C         17.2500   94.1080   55.4080 C.2   644  HIS644      0.2635
    114  O         16.6660   93.7950   54.3740 O.2   644  HIS644     -0.2714
    115  CB        15.7060   94.7940   57.2270 C.3   644  HIS644      0.0759
    116  CG        14.4430   94.8500   56.4230 C.ar  644  HIS644      0.0818
    117  ND1       13.5360   93.8130   56.3920 N.ar  644  HIS644     -0.2268
    118  CD2       13.9270   95.8240   55.6350 C.ar  644  HIS644      0.1154
    119  CE1       12.5140   94.1460   55.6230 C.ar  644  HIS644      0.1986
    120  NE2       12.7270   95.3610   55.1520 N.ar  644  HIS644     -0.2212
    121  N         18.3770   94.8070   55.4030 N.am  645  GLY645     -0.1732
    122  CA        18.9450   95.1770   54.1250 C.2   645  GLY645      0.1340
    123  C         19.9490   96.2990   54.1540 C.2   645  GLY645      0.2521
    124  O         21.1080   96.0950   53.8350 O.2   645  GLY645     -0.2816
    125  N         24.6500   87.1930   47.3070 N.3   656  GLN656     -0.1231
    126  CA        23.1940   87.0990   47.2690 C.3   656  GLN656      0.1698
    127  C         22.6820   87.1020   45.8300 C.2   656  GLN656      0.2592
    128  O         21.9900   86.1760   45.4150 O.2   656  GLN656     -0.2718
    129  CB        22.5670   88.2610   48.0410 C.3   656  GLN656      0.0381
    130  CG        22.5420   88.0580   49.5490 C.3   656  GLN656      0.0905
    131  CD        22.2360   89.3400   50.3110 C.2   656  GLN656      0.2608
    132  OE1       21.5130   90.2130   49.8240 O.2   656  GLN656     -0.2717
    133  NE2       22.7740   89.4480   51.5210 N.am  656  GLN656     -0.0878
    134  N         23.0180   88.1410   45.0710 N.am  657  SER657     -0.1952
    135  CA        22.5830   88.2160   43.6800 C.3   657  SER657      0.1924
    136  C         23.0750   87.0230   42.8720 C.2   657  SER657      0.2314
    137  O         22.3420   86.4760   42.0420 O.2   657  SER657     -0.2863
    138  CB        23.0760   89.5030   43.0260 C.3   657  SER657      0.2116
    139  OG        22.3820   90.6140   43.5450 O.3   657  SER657     -0.2180
    140  N         20.8240   84.1470   43.6520 N.3   660  ILE660     -0.1231
    141  CA        19.5090   84.3510   43.0770 C.3   660  ILE660      0.1692
    142  C         19.5060   84.2390   41.5430 C.2   660  ILE660      0.2592
    143  O         18.6570   83.5550   40.9790 O.2   660  ILE660     -0.2718
    144  CB        18.9360   85.7190   43.5510 C.3   660  ILE660      0.0266
    145  CG1       18.5480   85.5940   45.0290 C.3   660  ILE660      0.0019
    146  CG2       17.7380   86.1380   42.7170 C.3   660  ILE660      0.0020
    147  CD1       18.0910   86.8740   45.6680 C.3   660  ILE660      0.0001
    148  N         20.4510   84.8840   40.8650 N.am  661  TYR661     -0.1976
    149  CA        20.4950   84.8090   39.4040 C.3   661  TYR661      0.1639
    150  C         20.8020   83.3970   38.9080 C.2   661  TYR661      0.2290
    151  O         20.2690   82.9740   37.8910 O.2   661  TYR661     -0.2864
    152  CB        21.5040   85.8050   38.8350 C.3   661  TYR661      0.0560
    153  CG        21.0550   87.2410   38.9660 C.ar  661  TYR661     -0.0198
    154  CD1       19.7230   87.5900   38.7760 C.ar  661  TYR661     -0.0009
    155  CD2       21.9670   88.2570   39.2400 C.ar  661  TYR661     -0.0009
    156  CE1       19.3080   88.9190   38.8550 C.ar  661  TYR661      0.0417
    157  CE2       21.5620   89.5930   39.3190 C.ar  661  TYR661      0.0417
    158  CZ        20.2300   89.9140   39.1240 C.ar  661  TYR661      0.1957
    159  OH        19.8190   91.2270   39.1910 O.3   661  TYR661     -0.2866
@<TRIPOS>BOND
     1    58    59    1
     2    61    60    2
     3    60    59    1
     4    59    62    1
     5    62    63    1
     6     1     2    1
     7    54    53    2
     8    53    52    1
     9     4     3    2
    10    63    65   ar
    11    63    64   ar
    12     2     3    1
    13     2     5    1
    14    56    55    1
    15    65    67   ar
    16     5     6    1
    17     5     7    1
    18     6     8    1
    19    64    66   ar
    20    52    55    1
    21    52    51    1
    22    55    57    1
    23    48    47    2
    24   151   150    2
    25    67    68   ar
    26    42    41    2
    27    51    47   am
    28    47    46    1
    29    66    68   ar
    30   154   156   ar
    31   154   153   ar
    32   152   153    1
    33   152   149    1
    34   156   158   ar
    35   150   149    1
    36   153   155   ar
    37    36    35    2
    38    68    69    1
    39   158   159    1
    40   158   157   ar
    41     9    10    1
    42   155   157   ar
    43    41    40    1
    44    39    40    1
    45   149   148    1
    46    33    34    1
    47    35    34    1
    48    46    45    1
    49    46    49    1
    50    12    11    2
    51    40    43    1
    52    34    37    1
    53    10    13    1
    54    10    11    1
    55    13    14    1
    56    43    44    1
    57   148   142   am
    58   143   142    2
    59    49    50    1
    60   142   141    1
    61    37    38    1
    62    70    71    1
    63    14    16   ar
    64    14    15   ar
    65    97    96    1
    66   137   136    2
    67    16    18   ar
    68    74    71    1
    69    74    75    1
    70   146   144    1
    71    15    17   ar
    72   136   135    1
    73    71    72    1
    74    96    98    1
    75    96    95    1
    76   138   139    1
    77   138   135    1
    78   141   144    1
    79   141   140    1
    80    73    72    2
    81    75    76    1
    82    18    19   ar
    83   144   145    1
    84   135   134    1
    85    17    19   ar
    86    76    77    1
    87    91    92    1
    88    95    92    1
    89    19    20    1
    90    21    22    1
    91   145   147    1
    92   134   127   am
    93    92    93    1
    94    77    78    2
    95   128   127    2
    96   127   126    1
    97    94    93    2
    98    78    79    1
    99    78    80    1
   100    22    23    1
   101    22    25    1
   102    23    24    2
   103    25    26    1
   104   126   125    1
   105   126   129    1
   106    81    82    1
   107   129   130    1
   108    26    28   ar
   109    26    27   ar
   110    28    30   ar
   111    27    29   ar
   112    99   100    1
   113    82    83    1
   114   130   131    1
   115   103   100    1
   116   132   131    2
   117    30    31   ar
   118    29    31   ar
   119    84    83    2
   120   100   101    1
   121   131   133   am
   122    83    85   am
   123    31    32    1
   124   102   101    2
   125   101   104   am
   126    85    86    1
   127    88    87    2
   128    87    86    1
   129   104   105    1
   130    86    89    1
   131    89    90    1
   132   110   108    1
   133   124   123    2
   134   105   106    1
   135   105   108    1
   136   106   107    2
   137   122   123    1
   138   122   121    2
   139   108   109    1
   140   114   113    2
   141   120   119   ar
   142   120   118   ar
   143   121   113    1
   144   113   112    1
   145   119   117   ar
   146   118   116   ar
   147   117   116   ar
   148   116   115    1
   149   112   115    1
   150   112   111    1
