@<TRIPOS>MOLECULE
tmp/3ivqC00.pdb
 170 167 0 0 0
SMALL
GASTEIGER

@<TRIPOS>ATOM
      1  N        -15.5470   27.8260  -31.2770 N.3    42  ARG42      -0.1245
      2  CA       -16.7260   28.2130  -30.5250 C.3    42  ARG42       0.1563
      3  C        -17.3030   26.9340  -30.0130 C.2    42  ARG42       0.2260
      4  O        -17.3440   25.9360  -30.7300 O.2    42  ARG42      -0.2867
      5  CB       -17.7680   28.8930  -31.4030 C.3    42  ARG42       0.0307
      6  CG       -17.2940   30.1470  -32.0310 C.3    42  ARG42       0.0489
      7  CD       -18.1890   30.4650  -33.1870 C.3    42  ARG42       0.2205
      8  NE       -19.0490   31.5990  -32.8960 N.pl3  42  ARG42      -0.0865
      9  CZ       -20.3670   31.5900  -33.0320 C.cat  42  ARG42       0.5346
     10  NH1      -20.9660   30.4950  -33.4520 N.pl3  42  ARG42       0.1354
     11  NH2      -21.0800   32.6770  -32.7540 N.pl3  42  ARG42       0.1354
     12  N        -20.6120   25.3380  -27.4750 N.3    44  ASN44      -0.1240
     13  CA       -21.8680   25.5080  -26.7450 C.3    44  ASN44       0.1653
     14  C        -21.8380   24.3690  -25.7430 C.2    44  ASN44       0.2266
     15  O        -22.1470   23.2140  -26.0700 O.2    44  ASN44      -0.2867
     16  CB       -23.0710   25.3810  -27.6810 C.3    44  ASN44       0.1155
     17  CG       -22.9920   26.3450  -28.8440 C.2    44  ASN44       0.2627
     18  OD1      -22.4940   26.0010  -29.9080 O.2    44  ASN44      -0.2716
     19  ND2      -23.4570   27.5720  -28.6340 N.am   44  ASN44      -0.0877
     20  N        -26.0820   23.9830  -28.7300 N.3    48  LEU48      -0.1245
     21  CA       -26.3460   25.1850  -29.5150 C.3    48  LEU48       0.1561
     22  C        -27.8300   25.5370  -29.4760 C.2    48  LEU48       0.2260
     23  O        -28.2090   26.7070  -29.5570 O.2    48  LEU48      -0.2867
     24  CB       -25.9280   24.9480  -30.9630 C.3    48  LEU48       0.0270
     25  CG       -26.5490   25.9060  -31.9770 C.3    48  LEU48       0.0019
     26  CD1      -25.9680   27.2990  -31.7820 C.3    48  LEU48       0.0001
     27  CD2      -26.2930   25.3940  -33.3850 C.3    48  LEU48       0.0001
     28  N        -17.5850   24.2230  -33.0300 N.3    59  TYR59      -0.1241
     29  CA       -17.3910   24.7240  -34.3830 C.3    59  TYR59       0.1605
     30  C        -16.0630   25.4140  -34.5550 C.2    59  TYR59       0.2264
     31  O        -15.4700   25.9090  -33.5940 O.2    59  TYR59      -0.2867
     32  CB       -18.4990   25.7140  -34.7340 C.3    59  TYR59       0.0534
     33  CG       -19.8640   25.1510  -34.5050 C.ar   59  TYR59      -0.0201
     34  CD1      -20.5560   24.5000  -35.5260 C.ar   59  TYR59      -0.0009
     35  CD2      -20.4460   25.2080  -33.2400 C.ar   59  TYR59      -0.0009
     36  CE1      -21.8050   23.9160  -35.2850 C.ar   59  TYR59       0.0417
     37  CE2      -21.6790   24.6300  -32.9860 C.ar   59  TYR59       0.0417
     38  CZ       -22.3540   23.9870  -34.0060 C.ar   59  TYR59       0.1957
     39  OH       -23.5670   23.4130  -33.7330 O.3    59  TYR59      -0.2866
     40  N        -14.3950   28.5100  -36.4940 N.3    61  LEU61      -0.1245
     41  CA       -14.7430   29.7600  -37.1570 C.3    61  LEU61       0.1561
     42  C        -13.6120   30.4180  -37.9240 C.2    61  LEU61       0.2260
     43  O        -12.5000   30.5900  -37.4050 O.2    61  LEU61      -0.2867
     44  CB       -15.2610   30.7690  -36.1300 C.3    61  LEU61       0.0270
     45  CG       -15.7000   32.1230  -36.6940 C.3    61  LEU61       0.0019
     46  CD1      -17.0090   31.9450  -37.4260 C.3    61  LEU61       0.0001
     47  CD2      -15.8620   33.1380  -35.5670 C.3    61  LEU61       0.0001
     48  N        -11.1530   19.5900  -41.2930 N.3    74  PHE74      -0.1241
     49  CA       -10.9240   19.7700  -39.8690 C.3    74  PHE74       0.1605
     50  C        -11.3300   18.5410  -39.0950 C.2    74  PHE74       0.2264
     51  O        -12.2130   17.7890  -39.5100 O.2    74  PHE74      -0.2867
     52  CB       -11.6710   20.9860  -39.3200 C.3    74  PHE74       0.0534
     53  CG       -13.1560   20.8960  -39.4610 C.ar   74  PHE74      -0.0203
     54  CD1      -13.7860   21.3820  -40.6020 C.ar   74  PHE74      -0.0042
     55  CD2      -13.9280   20.3110  -38.4600 C.ar   74  PHE74      -0.0042
     56  CE1      -15.1650   21.2910  -40.7420 C.ar   74  PHE74      -0.0003
     57  CE2      -15.3160   20.2120  -38.5910 C.ar   74  PHE74      -0.0003
     58  CZ       -15.9340   20.7030  -39.7330 C.ar   74  PHE74      -0.0000
     59  N        -13.9210   13.5150  -34.3850 N.3    89  MET89      -0.1230
     60  CA       -14.9260   13.6750  -35.4200 C.3    89  MET89       0.1702
     61  C        -14.2540   14.5350  -36.4830 C.2    89  MET89       0.2592
     62  O        -13.7400   15.6180  -36.1830 O.2    89  MET89      -0.2718
     63  CB       -16.1800   14.3940  -34.8960 C.3    89  MET89       0.0401
     64  CG       -17.2290   13.4920  -34.2570 C.3    89  MET89       0.0596
     65  SD       -18.8400   14.3200  -34.0030 S.3    89  MET89      -0.1393
     66  CE       -19.6140   14.0330  -35.5990 C.3    89  MET89       0.0692
     67  N        -14.2450   14.0580  -37.7240 N.am   90  GLU90      -0.1966
     68  CA       -13.6120   14.8190  -38.7860 C.3    90  GLU90       0.1733
     69  C        -14.4990   15.0680  -39.9830 C.2    90  GLU90       0.2617
     70  O        -15.3620   14.2630  -40.3170 O.2    90  GLU90      -0.2715
     71  CB       -12.3230   14.1280  -39.2400 C.3    90  GLU90       0.0429
     72  CG       -12.4730   12.6480  -39.5100 C.3    90  GLU90       0.1163
     73  CD       -11.1350   11.9600  -39.7200 C.2    90  GLU90       0.3649
     74  OE1      -10.5080   12.1970  -40.7730 O.co2  90  GLU90      -0.2457
     75  OE2      -10.7070   11.1920  -38.8300 O.co2  90  GLU90      -0.2457
     76  N        -14.2860   16.2210  -40.6010 N.am   91  SER91      -0.1936
     77  CA       -15.0030   16.6050  -41.7990 C.3    91  SER91       0.2055
     78  C        -14.1320   16.0040  -42.8910 C.2    91  SER91       0.2642
     79  O        -13.1140   16.5860  -43.2690 O.2    91  SER91      -0.2714
     80  CB       -15.0130   18.1210  -41.9460 C.3    91  SER91       0.2130
     81  OG       -13.7260   18.5830  -42.3120 O.3    91  SER91      -0.2179
     82  N        -14.5180   14.8350  -43.3820 N.am   92  GLN92      -0.1976
     83  CA       -13.7520   14.1500  -44.4190 C.3    92  GLN92       0.1601
     84  C        -13.2900   15.0540  -45.5520 C.2    92  GLN92       0.2287
     85  O        -12.1270   15.0200  -45.9510 O.2    92  GLN92      -0.2864
     86  CB       -14.5760   13.0120  -45.0130 C.3    92  GLN92       0.0394
     87  CG       -15.0710   12.0040  -44.0020 C.3    92  GLN92       0.0908
     88  CD       -15.5720   10.7470  -44.6710 C.2    92  GLN92       0.2608
     89  OE1      -14.8140   10.0570  -45.3570 O.2    92  GLN92      -0.2717
     90  NE2      -16.8540   10.4420  -44.4850 N.am   92  GLN92      -0.0878
     91  N        -14.3990   21.9380  -46.3440 N.3    95  TYR95      -0.1241
     92  CA       -15.5620   22.8010  -46.4470 C.3    95  TYR95       0.1605
     93  C        -15.1760   24.1860  -46.8730 C.2    95  TYR95       0.2264
     94  O        -14.0390   24.6270  -46.6740 O.2    95  TYR95      -0.2867
     95  CB       -16.3180   22.8650  -45.1200 C.3    95  TYR95       0.0534
     96  CG       -17.2480   21.6950  -44.9480 C.ar   95  TYR95      -0.0201
     97  CD1      -18.6320   21.8540  -45.0440 C.ar   95  TYR95      -0.0009
     98  CD2      -16.7430   20.4160  -44.7440 C.ar   95  TYR95      -0.0009
     99  CE1      -19.4890   20.7570  -44.9490 C.ar   95  TYR95       0.0417
    100  CE2      -17.5790   19.3230  -44.6480 C.ar   95  TYR95       0.0417
    101  CZ       -18.9510   19.4980  -44.7530 C.ar   95  TYR95       0.1957
    102  OH       -19.7690   18.4010  -44.6870 O.3    95  TYR95      -0.2866
    103  N        -16.1150   35.0410  -41.2830 N.3   100  GLY100     -0.1210
    104  CA       -17.2210   35.2020  -40.3610 C.3   100  GLY100      0.1956
    105  C        -18.1290   34.0000  -40.2230 C.2   100  GLY100      0.2612
    106  O        -19.1400   34.0720  -39.5360 O.2   100  GLY100     -0.2717
    107  N        -17.7830   32.8880  -40.8600 N.am  101  LYS101     -0.1965
    108  CA       -18.6230   31.7010  -40.7660 C.3   101  LYS101      0.1728
    109  C        -17.8920   30.4840  -40.2070 C.2   101  LYS101      0.2616
    110  O        -16.6760   30.3430  -40.3680 O.2   101  LYS101     -0.2715
    111  CB       -19.1960   31.3600  -42.1370 C.3   101  LYS101      0.0311
    112  CG       -20.0170   30.0900  -42.1630 C.3   101  LYS101      0.0038
    113  CD       -20.6200   29.9080  -43.5280 C.3   101  LYS101      0.0206
    114  CE       -21.5960   28.7520  -43.5830 C.3   101  LYS101      0.1093
    115  NZ       -22.2080   28.7260  -44.9440 N.3   101  LYS101     -0.1314
    116  N        -18.6390   29.6050  -39.5460 N.am  102  ASP102     -0.1957
    117  CA       -18.0440   28.4030  -38.9820 C.3   102  ASP102      0.1840
    118  C        -18.6960   27.1190  -39.4720 C.2   102  ASP102      0.2622
    119  O        -19.7520   27.1350  -40.1030 O.2   102  ASP102     -0.2715
    120  CB       -18.0770   28.4390  -37.4440 C.3   102  ASP102      0.1450
    121  CG       -19.4910   28.5610  -36.8720 C.2   102  ASP102      0.3671
    122  OD1      -20.4610   28.0820  -37.5000 O.co2 102  ASP102     -0.2456
    123  OD2      -19.6250   29.1220  -35.7640 O.co2 102  ASP102     -0.2456
    124  N        -18.0270   26.0100  -39.1890 N.am  103  TRP103     -0.1960
    125  CA       -18.4890   24.6760  -39.5410 C.3   103  TRP103      0.1771
    126  C        -18.1320   23.8260  -38.3290 C.2   103  TRP103      0.2620
    127  O        -17.1260   24.0830  -37.6680 O.2   103  TRP103     -0.2715
    128  CB       -17.7430   24.1200  -40.7640 C.3   103  TRP103      0.0590
    129  CG       -18.1300   24.7140  -42.0900 C.ar  103  TRP103      0.0006
    130  CD1      -17.3100   25.3600  -42.9660 C.ar  103  TRP103      0.0946
    131  CD2      -19.4230   24.6780  -42.7050 C.ar  103  TRP103      0.0152
    132  NE1      -18.0050   25.7270  -44.0910 N.ar  103  TRP103     -0.2442
    133  CE2      -19.3060   25.3210  -43.9590 C.ar  103  TRP103      0.0810
    134  CE3      -20.6680   24.1640  -42.3200 C.ar  103  TRP103      0.0012
    135  CZ2      -20.3890   25.4670  -44.8320 C.ar  103  TRP103      0.0191
    136  CZ3      -21.7450   24.3100  -43.1890 C.ar  103  TRP103      0.0001
    137  CH2      -21.5950   24.9580  -44.4330 C.ar  103  TRP103      0.0015
    138  N        -18.9390   22.8150  -38.0450 N.am  104  GLY104     -0.1940
    139  CA       -18.6550   21.9710  -36.9060 C.3   104  GLY104      0.2014
    140  C        -19.7150   20.9210  -36.6740 C.2   104  GLY104      0.2639
    141  O        -20.5110   20.6240  -37.5630 O.2   104  GLY104     -0.2714
    142  N        -19.7180   20.3700  -35.4620 N.am  105  PHE105     -0.1959
    143  CA       -20.6470   19.3200  -35.0640 C.3   105  PHE105      0.1771
    144  C        -21.5380   19.7490  -33.8880 C.2   105  PHE105      0.2619
    145  O        -21.0610   19.9790  -32.7710 O.2   105  PHE105     -0.2715
    146  CB       -19.8520   18.0710  -34.6870 C.3   105  PHE105      0.0574
    147  CG       -18.8730   17.6360  -35.7450 C.ar  105  PHE105     -0.0200
    148  CD1      -19.3220   17.1870  -36.9880 C.ar  105  PHE105     -0.0042
    149  CD2      -17.4990   17.6690  -35.5000 C.ar  105  PHE105     -0.0042
    150  CE1      -18.4190   16.7720  -37.9690 C.ar  105  PHE105     -0.0003
    151  CE2      -16.5890   17.2580  -36.4720 C.ar  105  PHE105     -0.0003
    152  CZ       -17.0510   16.8070  -37.7110 C.ar  105  PHE105     -0.0000
    153  N        -22.8390   19.8370  -34.1550 N.am  106  LYS106     -0.1963
    154  CA       -23.8170   20.2490  -33.1540 C.3   106  LYS106      0.1728
    155  C        -23.9310   19.2050  -32.0420 C.2   106  LYS106      0.2616
    156  O        -24.2170   19.5350  -30.8900 O.2   106  LYS106     -0.2715
    157  CB       -25.1750   20.4740  -33.8320 C.3   106  LYS106      0.0311
    158  CG       -26.1270   21.3520  -33.0330 C.3   106  LYS106      0.0038
    159  CD       -27.3410   21.7620  -33.8530 C.3   106  LYS106      0.0206
    160  CE       -28.1100   20.5540  -34.3590 C.3   106  LYS106      0.1093
    161  NZ       -29.3560   20.9710  -35.0520 N.3   106  LYS106     -0.1314
    162  N        -23.7000   17.9450  -32.3910 N.am  107  LYS107     -0.1977
    163  CA       -23.7550   16.8710  -31.4150 C.3   107  LYS107      0.1596
    164  C        -22.3860   16.1990  -31.3820 C.2   107  LYS107      0.2287
    165  O        -22.2330   15.0310  -31.7310 O.2   107  LYS107     -0.2864
    166  CB       -24.8470   15.8820  -31.8100 C.3   107  LYS107      0.0298
    167  CG       -26.1700   16.5840  -32.0530 C.3   107  LYS107      0.0038
    168  CD       -27.1370   15.7100  -32.7950 C.3   107  LYS107      0.0206
    169  CE       -27.7550   14.6680  -31.8970 C.3   107  LYS107      0.1093
    170  NZ       -28.9150   14.0590  -32.6000 N.3   107  LYS107     -0.1314
@<TRIPOS>BOND
     1    93    94    2
     2    93    92    1
     3    92    91    1
     4    92    95    1
     5    85    84    2
     6    84    83    1
     7    89    88    2
     8    95    96    1
     9    97    99   ar
    10    97    96   ar
    11    86    83    1
    12    86    87    1
    13    99   101   ar
    14    96    98   ar
    15   115   114    1
    16   135   137   ar
    17   135   133   ar
    18   101   102    1
    19   101   100   ar
    20    98   100   ar
    21    88    90   am
    22    88    87    1
    23   137   136   ar
    24    83    82    1
    25   132   133   ar
    26   132   130   ar
    27   133   131   ar
    28   114   113    1
    29   113   112    1
    30    82    78   am
    31    79    78    2
    32   136   134   ar
    33   130   129   ar
    34    78    77    1
    35   131   134   ar
    36   131   129   ar
    37    81    80    1
    38   112   111    1
    39   111   108    1
    40   129   128    1
    41    80    77    1
    42    77    76    1
    43    48    49    1
    44   103   104    1
    45   107   108    1
    46   107   105   am
    47    74    73   ar
    48   108   109    1
    49   128   125    1
    50    56    54   ar
    51    56    58   ar
    52    54    53   ar
    53    76    69   am
    54   110   109    2
    55   104   105    1
    56    70    69    2
    57   105   106    2
    58   109   116   am
    59   119   118    2
    60    69    68    1
    61    49    52    1
    62    49    50    1
    63    58    57   ar
    64    73    72    1
    65    73    75   ar
    66   116   117    1
    67   125   124    1
    68   125   126    1
    69    51    50    2
    70    72    71    1
    71   118   124   am
    72   118   117    1
    73    53    52    1
    74    53    55   ar
    75    71    68    1
    76   117   120    1
    77    68    67    1
    78    57    55   ar
    79   126   138   am
    80   126   127    2
    81   138   139    1
    82   150   152   ar
    83   150   148   ar
    84    42    43    2
    85    42    41    1
    86    67    61   am
    87   152   151   ar
    88   141   140    2
    89   122   121   ar
    90   120   121    1
    91    46    45    1
    92    41    40    1
    93    41    44    1
    94   148   147   ar
    95   139   140    1
    96   121   123   ar
    97    45    44    1
    98    45    47    1
    99   140   142   am
   100    61    62    2
   101    61    60    1
   102   151   149   ar
   103   147   149   ar
   104   147   146    1
   105    66    65    1
   106    34    36   ar
   107    34    33   ar
   108   142   143    1
   109    60    63    1
   110    60    59    1
   111    36    38   ar
   112   143   146    1
   113   143   144    1
   114   161   160    1
   115    63    64    1
   116    32    33    1
   117    32    29    1
   118    30    29    1
   119    30    31    2
   120    33    35   ar
   121    29    28    1
   122   160   159    1
   123    64    65    1
   124   153   144   am
   125   153   154    1
   126    38    39    1
   127    38    37   ar
   128   144   145    2
   129   159   158    1
   130   157   154    1
   131   157   158    1
   132    10     9    1
   133    27    25    1
   134    35    37   ar
   135     7     8    1
   136     7     6    1
   137   154   155    1
   138     9     8    2
   139     9    11    1
   140   168   167    1
   141   168   169    1
   142   170   169    1
   143   162   155   am
   144   162   163    1
   145   167   166    1
   146   155   156    2
   147     6     5    1
   148    25    26    1
   149    25    24    1
   150   166   163    1
   151   165   164    2
   152   163   164    1
   153     5     2    1
   154     1     2    1
   155    24    21    1
   156     4     3    2
   157     2     3    1
   158    18    17    2
   159    23    22    2
   160    21    22    1
   161    21    20    1
   162    17    19   am
   163    17    16    1
   164    16    13    1
   165    12    13    1
   166    13    14    1
   167    15    14    2
