@<TRIPOS>MOLECULE
tmp/3ivtB00.pdb
 139 130 0 0 0
SMALL
GASTEIGER

@<TRIPOS>ATOM
      1  N        -15.2820   33.8380  -19.9790 N.3    38  ARG38      -0.1231
      2  CA       -14.3890   34.9640  -20.0680 C.3    38  ARG38       0.1694
      3  C        -13.6930   35.2900  -18.7600 C.2    38  ARG38       0.2591
      4  O        -12.5180   35.0180  -18.6200 O.2    38  ARG38      -0.2718
      5  CB       -15.0090   36.2210  -20.6560 C.3    38  ARG38       0.0321
      6  CG       -13.8640   37.2150  -20.7930 C.3    38  ARG38       0.0489
      7  CD       -14.2400   38.5870  -20.8890 C.3    38  ARG38       0.2205
      8  NE       -14.8170   39.1990  -19.6880 N.pl3  38  ARG38      -0.0865
      9  CZ       -14.1340   39.5720  -18.6120 C.cat  38  ARG38       0.5346
     10  NH1      -12.8320   39.3240  -18.4920 N.pl3  38  ARG38       0.1354
     11  NH2      -14.7700   40.1820  -17.6440 N.pl3  38  ARG38       0.1354
     12  N        -14.4070   35.9120  -17.8290 N.am   39  GLU39      -0.1979
     13  CA       -13.8620   36.2390  -16.5150 C.3    39  GLU39       0.1602
     14  C        -13.3270   34.9760  -15.8480 C.2    39  GLU39       0.2287
     15  O        -12.2690   34.9860  -15.2380 O.2    39  GLU39      -0.2864
     16  CB       -14.9430   36.8810  -15.6580 C.3    39  GLU39       0.0415
     17  CG       -14.5460   37.0840  -14.1880 C.3    39  GLU39       0.1163
     18  CD       -13.7270   38.3590  -13.9750 C.2    39  GLU39       0.3649
     19  OE1      -14.2110   39.4570  -14.3860 O.co2  39  GLU39      -0.2457
     20  OE2      -12.6130   38.2330  -13.3950 O.co2  39  GLU39      -0.2457
     21  N         -9.7490   34.0290  -16.1990 N.3    42  GLN42      -0.1245
     22  CA        -8.8030   34.6620  -15.2850 C.3    42  GLN42       0.1566
     23  C         -8.6680   33.9660  -13.9280 C.2    42  GLN42       0.2260
     24  O         -7.8140   34.3560  -13.1050 O.2    42  GLN42      -0.2867
     25  CB        -9.1420   36.1370  -15.0920 C.3    42  GLN42       0.0367
     26  CG        -8.5030   37.0170  -16.1450 C.3    42  GLN42       0.0905
     27  CD        -9.3130   38.2640  -16.4490 C.2    42  GLN42       0.2608
     28  OE1      -10.3000   38.2350  -17.2370 O.2    42  GLN42      -0.2717
     29  NE2       -8.8810   39.3880  -15.8570 N.am   42  GLN42      -0.0878
     30  N        -15.6860   39.6420  -25.4380 N.3    98  HIS98      -0.1241
     31  CA       -15.2160   40.7840  -24.6800 C.3    98  HIS98       0.1621
     32  C        -13.9680   41.3510  -25.3220 C.2    98  HIS98       0.2264
     33  O        -12.9810   40.6390  -25.4310 O.2    98  HIS98      -0.2867
     34  CB       -14.9200   40.3130  -23.2760 C.3    98  HIS98       0.0745
     35  CG       -14.6090   41.4100  -22.3230 C.ar   98  HIS98       0.0817
     36  ND1      -13.3160   41.7700  -22.0030 N.ar   98  HIS98      -0.2268
     37  CD2      -15.4160   42.2050  -21.5920 C.ar   98  HIS98       0.1154
     38  CE1      -13.3440   42.7550  -21.1260 C.ar   98  HIS98       0.1986
     39  NE2      -14.6060   43.0390  -20.8600 N.ar   98  HIS98      -0.2212
     40  N        -14.5960   47.4420  -23.8350 N.3   120  VAL120     -0.1245
     41  CA       -14.1040   48.2860  -22.7590 C.3   120  VAL120      0.1561
     42  C        -13.3500   49.4660  -23.3700 C.2   120  VAL120      0.2260
     43  O        -12.4360   49.2950  -24.1820 O.2   120  VAL120     -0.2867
     44  CB       -13.1980   47.5190  -21.7620 C.3   120  VAL120      0.0252
     45  CG1      -12.7290   48.4550  -20.6490 C.3   120  VAL120      0.0019
     46  CG2      -13.9480   46.3350  -21.1620 C.3   120  VAL120      0.0019
     47  N        -21.9400   46.8440  -26.6260 N.3   158  ARG158     -0.1245
     48  CA       -21.9230   47.3840  -25.2760 C.3   158  ARG158      0.1563
     49  C        -20.5980   48.0690  -25.0140 C.2   158  ARG158      0.2260
     50  O        -19.5500   47.5890  -25.4540 O.2   158  ARG158     -0.2867
     51  CB       -22.1040   46.2880  -24.2360 C.3   158  ARG158      0.0307
     52  CG       -21.8810   46.8120  -22.8200 C.3   158  ARG158      0.0489
     53  CD       -21.3340   45.7720  -21.9260 C.3   158  ARG158      0.2205
     54  NE       -19.8970   45.8530  -21.7860 N.pl3 158  ARG158     -0.0865
     55  CZ       -19.1500   44.9190  -21.2040 C.cat 158  ARG158      0.5346
     56  NH1      -19.7020   43.8220  -20.7270 N.pl3 158  ARG158      0.1354
     57  NH2      -17.8440   45.0940  -21.1110 N.pl3 158  ARG158      0.1354
     58  N        -18.2450   49.5290  -21.8170 N.3   160  SER160     -0.1202
     59  CA       -17.9140   49.7000  -20.4110 C.3   160  SER160      0.2020
     60  C        -16.6900   50.5630  -20.2220 C.2   160  SER160      0.2619
     61  O        -15.8690   50.7410  -21.1380 O.2   160  SER160     -0.2717
     62  CB       -17.6450   48.3630  -19.7550 C.3   160  SER160      0.2103
     63  OG       -18.8700   47.7460  -19.4200 O.3   160  SER160     -0.2182
     64  N        -16.6000   51.1020  -19.0120 N.am  161  SER161     -0.1937
     65  CA       -15.3730   51.6580  -18.4630 C.3   161  SER161      0.2055
     66  C        -14.9910   50.7840  -17.2530 C.2   161  SER161      0.2642
     67  O        -15.8400   50.3570  -16.4560 O.2   161  SER161     -0.2714
     68  CB       -15.6370   53.0480  -17.9450 C.3   161  SER161      0.2130
     69  OG       -16.5510   52.8930  -16.8520 O.3   161  SER161     -0.2179
     70  N        -13.6960   50.5470  -17.1240 N.am  162  GLU162     -0.1976
     71  CA       -13.1160   49.7630  -16.0650 C.3   162  GLU162      0.1602
     72  C        -13.0680   50.5950  -14.7790 C.2   162  GLU162      0.2287
     73  O        -12.9190   51.8090  -14.8320 O.2   162  GLU162     -0.2864
     74  CB       -11.7160   49.4100  -16.5560 C.3   162  GLU162      0.0415
     75  CG       -10.7950   48.7110  -15.5920 C.3   162  GLU162      0.1163
     76  CD        -9.5690   48.1600  -16.2990 C.2   162  GLU162      0.3649
     77  OE1       -8.4320   48.4420  -15.8540 O.co2 162  GLU162     -0.2457
     78  OE2       -9.7640   47.4480  -17.3160 O.co2 162  GLU162     -0.2457
     79  N        -22.0400   49.4910  -19.6120 N.3   188  GLY188     -0.1210
     80  CA       -21.6980   48.6050  -18.5270 C.3   188  GLY188      0.1956
     81  C        -20.9760   49.3360  -17.4240 C.2   188  GLY188      0.2612
     82  O        -20.2470   50.2790  -17.6760 O.2   188  GLY188     -0.2717
     83  N        -21.2120   48.8970  -16.1970 N.am  189  ILE189     -0.1965
     84  CA       -20.5660   49.4100  -15.0060 C.3   189  ILE189      0.1727
     85  C        -19.7810   48.2360  -14.4800 C.2   189  ILE189      0.2616
     86  O        -20.2930   47.1150  -14.4530 O.2   189  ILE189     -0.2715
     87  CB       -21.6320   49.8330  -13.9490 C.3   189  ILE189      0.0290
     88  CG1      -22.2220   51.1950  -14.2940 C.3   189  ILE189      0.0022
     89  CG2      -21.0330   49.9530  -12.5720 C.3   189  ILE189      0.0023
     90  CD1      -21.2000   52.3130  -14.2650 C.3   189  ILE189      0.0001
     91  N        -18.5450   48.4770  -14.0710 N.am  190  ALA190     -0.1977
     92  CA       -17.7240   47.4030  -13.5460 C.3   190  ALA190      0.1597
     93  C        -17.0250   47.7920  -12.2520 C.2   190  ALA190      0.2287
     94  O        -16.2400   48.7330  -12.2330 O.2   190  ALA190     -0.2864
     95  CB       -16.7090   46.9600  -14.5870 C.3   190  ALA190      0.0319
     96  N        -14.3250   46.5140  -10.8850 N.3   192  THR192     -0.1218
     97  CA       -13.1180   45.7430  -11.1480 C.3   192  THR192      0.1862
     98  C        -12.3270   45.4510   -9.8700 C.2   192  THR192      0.2287
     99  O        -11.6960   44.3990   -9.7570 O.2   192  THR192     -0.2866
    100  CB       -12.1850   46.5630  -12.1110 C.3   192  THR192      0.1770
    101  OG1      -12.9330   47.0030  -13.2440 O.3   192  THR192     -0.2211
    102  CG2      -10.9940   45.7810  -12.5930 C.3   192  THR192      0.0375
    103  N        -25.5930   47.1670  -17.9620 N.3   217  GLU217     -0.1245
    104  CA       -24.9920   45.9070  -17.5670 C.3   217  GLU217      0.1567
    105  C        -24.1090   46.1240  -16.3400 C.2   217  GLU217      0.2260
    106  O        -23.4310   47.1680  -16.2520 O.2   217  GLU217     -0.2867
    107  CB       -24.1470   45.3450  -18.7170 C.3   217  GLU217      0.0388
    108  CG       -23.2920   44.1550  -18.2930 C.3   217  GLU217      0.1160
    109  CD       -22.5560   43.4800  -19.4300 C.2   217  GLU217      0.3649
    110  OE1      -22.6720   43.9260  -20.5870 O.co2 217  GLU217     -0.2457
    111  OE2      -21.8720   42.4700  -19.1670 O.co2 217  GLU217     -0.2457
    112  N        -21.1050   44.5010  -13.4900 N.3   219  HIS219     -0.1241
    113  CA       -20.0560   43.5160  -13.2750 C.3   219  HIS219      0.1621
    114  C        -19.4160   43.8170  -11.9330 C.2   219  HIS219      0.2264
    115  O        -18.8040   44.9050  -11.7550 O.2   219  HIS219     -0.2867
    116  CB       -19.0500   43.6140  -14.4160 C.3   219  HIS219      0.0745
    117  CG       -17.8740   42.6980  -14.2990 C.ar  219  HIS219      0.0817
    118  ND1      -17.7880   41.5080  -14.9890 N.ar  219  HIS219     -0.2268
    119  CD2      -16.6900   42.8430  -13.6540 C.ar  219  HIS219      0.1154
    120  CE1      -16.6140   40.9470  -14.7540 C.ar  219  HIS219      0.1986
    121  NE2      -15.9250   41.7440  -13.9540 N.ar  219  HIS219     -0.2212
    122  N        -16.9460   42.5190   -8.6680 N.3   221  HIS221     -0.1241
    123  CA       -15.9810   41.6330   -8.0100 C.3   221  HIS221      0.1621
    124  C        -16.2720   41.4110   -6.5110 C.2   221  HIS221      0.2264
    125  O        -16.8950   42.2410   -5.8460 O.2   221  HIS221     -0.2867
    126  CB       -14.5370   42.0930   -8.2870 C.3   221  HIS221      0.0745
    127  CG       -14.0020   41.5880   -9.6000 C.ar  221  HIS221      0.0817
    128  ND1      -13.2230   40.4540   -9.7000 N.ar  221  HIS221     -0.2268
    129  CD2      -14.2000   42.0240  -10.8690 C.ar  221  HIS221      0.1154
    130  CE1      -12.9530   40.2240  -10.9720 C.ar  221  HIS221      0.1986
    131  NE2      -13.5370   41.1610  -11.7010 N.ar  221  HIS221     -0.2212
    132  N        -23.5020   40.2280  -15.0500 N.3   243  ASP243     -0.1239
    133  CA       -22.4160   39.2920  -15.3060 C.3   243  ASP243      0.1674
    134  C        -22.3010   38.3280  -14.1380 C.2   243  ASP243      0.2266
    135  O        -22.2670   38.7420  -12.9780 O.2   243  ASP243     -0.2867
    136  CB       -21.0890   40.0350  -15.3700 C.3   243  ASP243      0.1410
    137  CG       -20.9090   40.8260  -16.6500 C.2   243  ASP243      0.3668
    138  OD1      -21.9230   41.1410  -17.3060 O.co2 243  ASP243     -0.2456
    139  OD2      -19.7430   41.1480  -16.9970 O.co2 243  ASP243     -0.2456
@<TRIPOS>BOND
     1    47    48    1
     2    50    49    2
     3    30    31    1
     4    33    32    2
     5    32    31    1
     6    48    49    1
     7    48    51    1
     8    31    34    1
     9    51    52    1
    10    43    42    2
    11    40    41    1
    12    42    41    1
    13    34    35    1
    14    52    53    1
    15    41    44    1
    16    35    36   ar
    17    35    37   ar
    18    36    38   ar
    19    53    54    1
    20    58    59    1
    21    54    55    2
    22    44    46    1
    23    44    45    1
    24    37    39   ar
    25    55    57    1
    26    55    56    1
    27    61    60    2
    28    38    39   ar
    29     7     6    1
    30     7     8    1
    31     6     5    1
    32     5     2    1
    33   110   109   ar
    34    59    60    1
    35    59    62    1
    36    60    64   am
    37     2     1    1
    38     2     3    1
    39    62    63    1
    40     8     9    2
    41    79    80    1
    42   109   111   ar
    43   109   108    1
    44    64    65    1
    45     3     4    2
    46     3    12   am
    47   107   108    1
    48   107   104    1
    49     9    10    1
    50     9    11    1
    51    80    81    1
    52    65    68    1
    53    65    66    1
    54   103   104    1
    55    68    69    1
    56    12    13    1
    57    82    81    2
    58   104   105    1
    59    81    83   am
    60    78    76   ar
    61   138   137   ar
    62    66    70   am
    63    66    67    2
    64    28    27    2
    65    70    71    1
    66   139   137   ar
    67   137   136    1
    68    74    71    1
    69    74    75    1
    70    13    14    1
    71    13    16    1
    72    27    26    1
    73    27    29   am
    74   105   106    2
    75    76    77   ar
    76    76    75    1
    77    21    22    1
    78    83    84    1
    79    26    25    1
    80    71    72    1
    81    14    15    2
    82    16    17    1
    83   136   133    1
    84   133   132    1
    85   133   134    1
    86    22    25    1
    87    22    23    1
    88    84    85    1
    89    84    87    1
    90   118   120   ar
    91   118   117   ar
    92    73    72    2
    93   120   121   ar
    94    95    92    1
    95    85    86    2
    96    85    91   am
    97   116   117    1
    98   116   113    1
    99    19    18   ar
   100   117   119   ar
   101    88    90    1
   102    88    87    1
   103    17    18    1
   104   134   135    2
   105    91    92    1
   106    18    20   ar
   107   121   119   ar
   108    87    89    1
   109    23    24    2
   110    92    93    1
   111   112   113    1
   112   113   114    1
   113   101   100    1
   114   102   100    1
   115    93    94    2
   116   100    97    1
   117   114   115    2
   118   131   130   ar
   119   131   129   ar
   120    97    96    1
   121    97    98    1
   122   130   128   ar
   123   129   127   ar
   124    98    99    2
   125   128   127   ar
   126   127   126    1
   127   122   123    1
   128   126   123    1
   129   123   124    1
   130   124   125    2
