@<TRIPOS>MOLECULE
tmp/3iw1A00.pdb
 157 149 0 0 0
SMALL
GASTEIGER

@<TRIPOS>ATOM
      1  N         23.5890   32.7010    3.9120 N.3    78  ILE78      -0.1245
      2  CA        22.3090   31.9940    3.6810 C.3    78  ILE78       0.1561
      3  C         22.6060   30.5990    3.1490 C.2    78  ILE78       0.2260
      4  O         23.2490   30.4710    2.1180 O.2    78  ILE78      -0.2867
      5  CB        21.3920   32.7690    2.7350 C.3    78  ILE78       0.0252
      6  CG1       20.8310   33.9880    3.4450 C.3    78  ILE78       0.0019
      7  CG2       20.2440   31.9150    2.2530 C.3    78  ILE78       0.0019
      8  CD1       20.1580   34.9600    2.4930 C.3    78  ILE78       0.0001
      9  N         18.9540   28.4320   -1.1190 N.3    81  PHE81      -0.1241
     10  CA        18.2150   29.2300   -2.1080 C.3    81  PHE81       0.1605
     11  C         17.4480   28.2470   -2.9520 C.2    81  PHE81       0.2264
     12  O         17.5760   27.0270   -2.7460 O.2    81  PHE81      -0.2867
     13  CB        19.1880   30.0250   -2.9840 C.3    81  PHE81       0.0534
     14  CG        20.0610   30.9850   -2.2130 C.ar   81  PHE81      -0.0203
     15  CD1       19.5620   32.2200   -1.7840 C.ar   81  PHE81      -0.0042
     16  CD2       21.3710   30.6650   -1.9390 C.ar   81  PHE81      -0.0042
     17  CE1       20.3920   33.1410   -1.1050 C.ar   81  PHE81      -0.0003
     18  CE2       22.1880   31.5360   -1.2620 C.ar   81  PHE81      -0.0003
     19  CZ        21.7180   32.7750   -0.8430 C.ar   81  PHE81      -0.0000
     20  N         24.0400   35.2330   -8.6230 N.3    89  ASP89      -0.1239
     21  CA        22.9690   35.7690   -7.7780 C.3    89  ASP89       0.1674
     22  C         23.2400   35.5260   -6.3010 C.2    89  ASP89       0.2266
     23  O         22.6930   36.2150   -5.4810 O.2    89  ASP89      -0.2867
     24  CB        21.6170   35.1070   -8.1250 C.3    89  ASP89       0.1410
     25  CG        21.0140   35.5830   -9.4260 C.2    89  ASP89       0.3668
     26  OD1       21.5880   36.4080  -10.1490 O.co2  89  ASP89      -0.2456
     27  OD2       19.9070   35.1200   -9.7250 O.co2  89  ASP89      -0.2456
     28  N         26.5360   38.2040   -5.7890 N.3    92  VAL92      -0.1231
     29  CA        26.1430   39.6050   -5.6590 C.3    92  VAL92       0.1692
     30  C         25.7450   39.9840   -4.2050 C.2    92  VAL92       0.2591
     31  O         25.7990   41.1560   -3.8190 O.2    92  VAL92      -0.2718
     32  CB        25.0000   40.0150   -6.6680 C.3    92  VAL92       0.0266
     33  CG1       23.5980   39.5170   -6.1980 C.3    92  VAL92       0.0020
     34  CG2       24.9890   41.5410   -6.8750 C.3    92  VAL92       0.0020
     35  N         25.3600   38.9900   -3.4120 N.am   93  GLN93      -0.1979
     36  CA        24.9840   39.2230   -2.0150 C.3    93  GLN93       0.1601
     37  C         26.2010   39.6050   -1.1670 C.2    93  GLN93       0.2287
     38  O         26.0560   40.0610   -0.0520 O.2    93  GLN93      -0.2864
     39  CB        24.2050   38.0200   -1.4470 C.3    93  GLN93       0.0394
     40  CG        23.0510   37.6030   -2.3810 C.3    93  GLN93       0.0908
     41  CD        22.0770   36.5920   -1.7830 C.2    93  GLN93       0.2608
     42  OE1       22.1390   36.2730   -0.5970 O.2    93  GLN93      -0.2717
     43  NE2       21.1790   36.0580   -2.6370 N.am   93  GLN93      -0.0878
     44  N         27.7610   42.2360   -1.4330 N.3    95  PHE95      -0.1227
     45  CA        27.6880   43.6950   -1.2560 C.3    95  PHE95       0.1736
     46  C         26.9280   44.1760   -0.0190 C.2    95  PHE95       0.2595
     47  O         26.8630   45.3800    0.2270 O.2    95  PHE95      -0.2718
     48  CB        27.1500   44.3800   -2.5280 C.3    95  PHE95       0.0547
     49  CG        28.1030   44.2970   -3.6830 C.ar   95  PHE95      -0.0202
     50  CD1       29.2540   45.0780   -3.6840 C.ar   95  PHE95      -0.0042
     51  CD2       27.8810   43.4100   -4.7310 C.ar   95  PHE95      -0.0042
     52  CE1       30.1750   44.9840   -4.7420 C.ar   95  PHE95      -0.0003
     53  CE2       28.7920   43.2950   -5.8140 C.ar   95  PHE95      -0.0003
     54  CZ        29.9340   44.0780   -5.8170 C.ar   95  PHE95      -0.0000
     55  N         26.3900   43.2370    0.7650 N.am   96  VAL96      -0.1980
     56  CA        25.8550   43.5430    2.0850 C.3    96  VAL96       0.1595
     57  C         26.8570   43.0810    3.1470 C.2    96  VAL96       0.2287
     58  O         27.4900   42.0520    2.9970 O.2    96  VAL96      -0.2864
     59  CB        24.4230   42.9290    2.3390 C.3    96  VAL96       0.0276
     60  CG1       23.3840   43.5500    1.3660 C.3    96  VAL96       0.0022
     61  CG2       24.4550   41.3840    2.2880 C.3    96  VAL96       0.0022
     62  N         27.6210   39.5530    4.5130 N.3    99  ASN99      -0.1240
     63  CA        28.3270   38.6030    3.6670 C.3    99  ASN99       0.1653
     64  C         29.7430   39.0630    3.2830 C.2    99  ASN99       0.2266
     65  O         30.2700   38.7130    2.2080 O.2    99  ASN99      -0.2867
     66  CB        27.5140   38.4060    2.4040 C.3    99  ASN99       0.1155
     67  CG        26.2230   37.6670    2.6610 C.2    99  ASN99       0.2627
     68  OD1       26.2210   36.6850    3.3810 O.2    99  ASN99      -0.2716
     69  ND2       25.1080   38.1440    2.0670 N.am   99  ASN99      -0.0877
     70  N         11.6970   41.2070   -0.1000 N.3   181  MET181     -0.1230
     71  CA        13.1540   41.2770   -0.2010 C.3   181  MET181      0.1702
     72  C         13.8960   40.0070    0.1930 C.2   181  MET181      0.2593
     73  O         15.0020   39.7310   -0.2790 O.2   181  MET181     -0.2718
     74  CB        13.6370   42.4070    0.6990 C.3   181  MET181      0.0401
     75  CG        14.9890   42.9220    0.3630 C.3   181  MET181      0.0596
     76  SD        15.0340   43.7380   -1.2210 S.3   181  MET181     -0.1393
     77  CE        13.8300   45.0740   -0.9880 C.3   181  MET181      0.0692
     78  N         13.3270   39.2350    1.0890 N.am  182  THR182     -0.1939
     79  CA        13.9930   38.0260    1.4730 C.3   182  THR182      0.2028
     80  C         13.4720   36.9060    0.5830 C.2   182  THR182      0.2642
     81  O         12.2590   36.7270    0.4200 O.2   182  THR182     -0.2714
     82  CB        13.6900   37.6790    2.9190 C.3   182  THR182      0.1808
     83  OG1       12.3680   37.1540    2.9830 O.3   182  THR182     -0.2208
     84  CG2       13.7820   38.9040    3.8420 C.3   182  THR182      0.0379
     85  N         14.3680   36.1330    0.0260 N.am  183  GLY183     -0.1954
     86  CA        13.9730   35.0740   -0.8890 C.3   183  GLY183      0.1869
     87  C         13.2920   33.9050   -0.1670 C.2   183  GLY183      0.2309
     88  O         13.6900   33.5060    0.9170 O.2   183  GLY183     -0.2863
     89  N         12.6170   39.2480   -5.4720 N.3   194  PRO194     -0.2102
     90  CA        13.4930   40.0790   -4.6500 C.3   194  PRO194      0.1504
     91  C         14.4710   40.9470   -5.4580 C.2   194  PRO194      0.2575
     92  O         14.8940   41.9790   -4.9410 O.2   194  PRO194     -0.2718
     93  CB        14.2350   39.0500   -3.7730 C.3   194  PRO194      0.0282
     94  CG        13.2950   37.8850   -3.6930 C.3   194  PRO194      0.0208
     95  CD        12.7190   37.8280   -5.0910 C.3   194  PRO194      0.0893
     96  N         14.8050   40.5280   -6.6920 N.am  195  LYS195     -0.1980
     97  CA        15.6230   41.3350   -7.6450 C.3   195  LYS195      0.1596
     98  C         15.0230   42.6870   -8.0300 C.2   195  LYS195      0.2287
     99  O         15.6910   43.7210   -7.9190 O.2   195  LYS195     -0.2864
    100  CB        15.8800   40.5690   -8.9630 C.3   195  LYS195      0.0298
    101  CG        16.7600   39.3320   -8.8600 C.3   195  LYS195      0.0038
    102  CD        18.0090   39.5730   -8.0170 C.3   195  LYS195      0.0206
    103  CE        19.2730   38.8950   -8.6020 C.3   195  LYS195      0.1093
    104  NZ        20.5750   39.5410   -8.1040 N.3   195  LYS195     -0.1314
    105  N         14.6810   44.7650   -4.8160 N.3   198  SER198     -0.1217
    106  CA        15.9690   45.2850   -4.3210 C.3   198  SER198      0.1889
    107  C         16.4460   46.4630   -5.1510 C.2   198  SER198      0.2288
    108  O         16.8690   47.4570   -4.5740 O.2   198  SER198     -0.2866
    109  CB        17.0690   44.1950   -4.2180 C.3   198  SER198      0.2089
    110  OG        17.5340   43.7490   -5.4920 O.3   198  SER198     -0.2183
    111  N         17.0490   50.1360   -3.4840 N.3   202  ILE202     -0.1245
    112  CA        18.3870   50.7800   -3.5820 C.3   202  ILE202      0.1561
    113  C         18.2050   52.1680   -4.2340 C.2   202  ILE202      0.2260
    114  O         18.7590   53.1880   -3.7800 O.2   202  ILE202     -0.2867
    115  CB        19.3750   49.9070   -4.4020 C.3   202  ILE202      0.0252
    116  CG1       19.6930   48.6020   -3.6630 C.3   202  ILE202      0.0019
    117  CG2       20.6980   50.6910   -4.7530 C.3   202  ILE202      0.0019
    118  CD1       20.4160   47.5700   -4.5150 C.3   202  ILE202      0.0001
    119  N         22.8340   49.5960   -0.0860 N.3   232  PHE232     -0.1241
    120  CA        23.0500   48.1970    0.3200 C.3   232  PHE232      0.1605
    121  C         22.7360   47.9830    1.7870 C.2   232  PHE232      0.2264
    122  O         22.2720   46.9010    2.1920 O.2   232  PHE232     -0.2867
    123  CB        24.4820   47.7140   -0.0050 C.3   232  PHE232      0.0534
    124  CG        24.8600   47.8410   -1.4760 C.ar  232  PHE232     -0.0203
    125  CD1       23.9490   47.5780   -2.4820 C.ar  232  PHE232     -0.0042
    126  CD2       26.1390   48.1950   -1.8380 C.ar  232  PHE232     -0.0042
    127  CE1       24.3140   47.6960   -3.8340 C.ar  232  PHE232     -0.0003
    128  CE2       26.5150   48.3230   -3.1600 C.ar  232  PHE232     -0.0003
    129  CZ        25.6100   48.0610   -4.1640 C.ar  232  PHE232     -0.0000
    130  N         18.9110   47.6910    2.0700 N.3   235  VAL235     -0.1245
    131  CA        18.5210   46.3250    1.6600 C.3   235  VAL235      0.1561
    132  C         18.8000   45.3180    2.7850 C.2   235  VAL235      0.2260
    133  O         17.9610   44.4750    3.1080 O.2   235  VAL235     -0.2867
    134  CB        19.2890   45.8810    0.3690 C.3   235  VAL235      0.0252
    135  CG1       19.1270   44.3370    0.0850 C.3   235  VAL235      0.0019
    136  CG2       18.8560   46.7260   -0.8050 C.3   235  VAL235      0.0019
    137  N         16.3410   42.6890    4.9300 N.3   239  VAL239     -0.1245
    138  CA        16.4580   41.2340    5.0410 C.3   239  VAL239      0.1561
    139  C         16.7280   40.7790    6.4940 C.2   239  VAL239      0.2260
    140  O         16.3860   39.6480    6.8940 O.2   239  VAL239     -0.2867
    141  CB        17.5260   40.6440    4.0750 C.3   239  VAL239      0.0252
    142  CG1       17.2410   41.0170    2.6340 C.3   239  VAL239      0.0019
    143  CG2       18.9130   41.0850    4.4370 C.3   239  VAL239      0.0019
    144  N         16.0280   28.2550    5.6190 N.3   386  TRP386     -0.1241
    145  CA        16.8320   28.9700    6.5910 C.3   386  TRP386      0.1605
    146  C         16.0480   29.9150    7.4660 C.2   386  TRP386      0.2264
    147  O         16.4500   30.1620    8.5650 O.2   386  TRP386     -0.2867
    148  CB        18.0000   29.7080    5.8980 C.3   386  TRP386      0.0550
    149  CG        17.5730   30.8840    5.0670 C.ar  386  TRP386      0.0003
    150  CD1       17.1930   30.8650    3.7560 C.ar  386  TRP386      0.0946
    151  CD2       17.4980   32.2460    5.4880 C.ar  386  TRP386      0.0152
    152  NE1       16.8650   32.1110    3.3520 N.ar  386  TRP386     -0.2442
    153  CE2       17.0510   32.9880    4.3880 C.ar  386  TRP386      0.0810
    154  CE3       17.7730   32.9130    6.7030 C.ar  386  TRP386      0.0012
    155  CZ2       16.8690   34.3610    4.4400 C.ar  386  TRP386      0.0191
    156  CZ3       17.5560   34.2700    6.7690 C.ar  386  TRP386      0.0001
    157  CH2       17.1100   34.9900    5.6390 C.ar  386  TRP386      0.0015
@<TRIPOS>BOND
     1    26    25   ar
     2    27    25   ar
     3    25    24    1
     4   100   101    1
     5   100    97    1
     6   101   102    1
     7    20    21    1
     8   103   104    1
     9   103   102    1
    10    24    21    1
    11    98    99    2
    12    98    97    1
    13    21    22    1
    14    97    96    1
    15    34    32    1
    16    96    91   am
    17    32    33    1
    18    32    29    1
    19    22    23    2
    20    54    53   ar
    21    54    52   ar
    22    53    51   ar
    23    28    29    1
    24    29    30    1
    25   110   109    1
    26    89    95    1
    27    89    90    1
    28    91    92    2
    29    91    90    1
    30   107   108    2
    31   107   106    1
    32    95    94    1
    33   105   106    1
    34   117   115    1
    35    52    50   ar
    36    51    49   ar
    37    90    93    1
    38   118   116    1
    39   115   116    1
    40   115   112    1
    41   106   109    1
    42   113   114    2
    43   113   112    1
    44    30    31    2
    45    30    35   am
    46   129   127   ar
    47   129   128   ar
    48   127   125   ar
    49    93    94    1
    50    50    49   ar
    51    49    48    1
    52   112   111    1
    53    35    36    1
    54   128   126   ar
    55    13    14    1
    56    13    10    1
    57    11    12    2
    58    11    10    1
    59    43    41   am
    60    48    45    1
    61   125   124   ar
    62    40    41    1
    63    40    39    1
    64    14    16   ar
    65    14    15   ar
    66    10     9    1
    67    36    39    1
    68    36    37    1
    69    16    18   ar
    70   126   124   ar
    71    15    17   ar
    72    41    42    2
    73   124   123    1
    74    44    45    1
    75    18    19   ar
    76    45    46    1
    77    76    77    1
    78    76    75    1
    79    37    38    2
    80    17    19   ar
    81    86    87    1
    82    86    85    1
    83   136   134    1
    84    73    72    2
    85    71    70    1
    86    71    72    1
    87    71    74    1
    88    87    88    2
    89   119   120    1
    90    46    47    2
    91    46    55   am
    92   123   120    1
    93    85    80   am
    94   135   134    1
    95    72    78   am
    96   120   121    1
    97    75    74    1
    98   134   131    1
    99    81    80    2
   100    80    79    1
   101    55    56    1
   102    78    79    1
   103    60    59    1
   104    79    82    1
   105   131   130    1
   106   131   132    1
   107   121   122    2
   108    69    67   am
   109    56    59    1
   110    56    57    1
   111     4     3    2
   112    65    64    2
   113     7     5    1
   114    61    59    1
   115    66    67    1
   116    66    63    1
   117     8     6    1
   118   142   141    1
   119    67    68    2
   120     5     6    1
   121     5     2    1
   122   132   133    2
   123    82    83    1
   124    82    84    1
   125    58    57    2
   126     3     2    1
   127    64    63    1
   128   152   150   ar
   129   152   153   ar
   130    63    62    1
   131     2     1    1
   132   150   149   ar
   133   141   143    1
   134   141   138    1
   135   153   155   ar
   136   153   151   ar
   137   155   157   ar
   138   137   138    1
   139   138   139    1
   140   149   151   ar
   141   149   148    1
   142   151   154   ar
   143   144   145    1
   144   157   156   ar
   145   148   145    1
   146   139   140    2
   147   145   146    1
   148   154   156   ar
   149   146   147    2
