@<TRIPOS>MOLECULE
tmp/3iw2A00.pdb
 147 138 0 0 0
SMALL
GASTEIGER

@<TRIPOS>ATOM
      1  N         23.7250   32.8220    3.8590 N.3    78  ILE78      -0.1245
      2  CA        22.4410   32.1360    3.6380 C.3    78  ILE78       0.1561
      3  C         22.7310   30.7640    3.0840 C.2    78  ILE78       0.2260
      4  O         23.4280   30.6620    2.0750 O.2    78  ILE78      -0.2867
      5  CB        21.4190   32.9410    2.7600 C.3    78  ILE78       0.0252
      6  CG1       20.8900   34.1520    3.5260 C.3    78  ILE78       0.0019
      7  CG2       20.2700   32.0690    2.3830 C.3    78  ILE78       0.0019
      8  CD1       20.1360   35.1410    2.5160 C.3    78  ILE78       0.0001
      9  N         24.0030   35.3230   -8.5640 N.3    89  ASP89      -0.1239
     10  CA        22.9470   35.8450   -7.6850 C.3    89  ASP89       0.1674
     11  C         23.2450   35.6010   -6.2160 C.2    89  ASP89       0.2266
     12  O         22.6570   36.2280   -5.4030 O.2    89  ASP89      -0.2867
     13  CB        21.5910   35.2260   -8.0420 C.3    89  ASP89       0.1410
     14  CG        20.9660   35.8610   -9.2310 C.2    89  ASP89       0.3668
     15  OD1       21.5140   36.7560   -9.8120 O.co2  89  ASP89      -0.2456
     16  OD2       19.8870   35.4710   -9.6150 O.co2  89  ASP89      -0.2456
     17  N         26.5310   38.2790   -5.6260 N.3    92  VAL92      -0.1231
     18  CA        26.1620   39.6680   -5.4660 C.3    92  VAL92       0.1692
     19  C         25.7900   39.9850   -3.9990 C.2    92  VAL92       0.2591
     20  O         25.7870   41.1410   -3.5880 O.2    92  VAL92      -0.2718
     21  CB        25.0000   40.1020   -6.4270 C.3    92  VAL92       0.0266
     22  CG1       23.6260   39.5820   -5.9030 C.3    92  VAL92       0.0020
     23  CG2       25.0100   41.6100   -6.5750 C.3    92  VAL92       0.0020
     24  N         25.4670   38.9690   -3.2090 N.am   93  GLN93      -0.1979
     25  CA        25.0690   39.2370   -1.8350 C.3    93  GLN93       0.1601
     26  C         26.2940   39.5780   -0.9610 C.2    93  GLN93       0.2287
     27  O         26.1420   39.9140    0.1930 O.2    93  GLN93      -0.2864
     28  CB        24.2650   38.0680   -1.2640 C.3    93  GLN93       0.0394
     29  CG        23.2100   37.5200   -2.2290 C.3    93  GLN93       0.0908
     30  CD        22.2200   36.5540   -1.5880 C.2    93  GLN93       0.2608
     31  OE1       22.1420   36.4240   -0.3520 O.2    93  GLN93      -0.2717
     32  NE2       21.4470   35.8480   -2.4580 N.am   93  GLN93      -0.0878
     33  N         27.8580   42.2110   -1.3340 N.3    95  PHE95      -0.1227
     34  CA        27.8560   43.6500   -1.2670 C.3    95  PHE95       0.1736
     35  C         27.1440   44.1380   -0.0210 C.2    95  PHE95       0.2595
     36  O         27.1980   45.3200    0.2550 O.2    95  PHE95      -0.2718
     37  CB        27.2710   44.2860   -2.5300 C.3    95  PHE95       0.0547
     38  CG        28.2100   44.2580   -3.7100 C.ar   95  PHE95      -0.0202
     39  CD1       29.3570   45.0660   -3.7230 C.ar   95  PHE95      -0.0042
     40  CD2       27.9760   43.4220   -4.7800 C.ar   95  PHE95      -0.0042
     41  CE1       30.2440   45.0180   -4.8120 C.ar   95  PHE95      -0.0003
     42  CE2       28.8540   43.3660   -5.8480 C.ar   95  PHE95      -0.0003
     43  CZ        29.9690   44.1710   -5.8810 C.ar   95  PHE95      -0.0000
     44  N         26.5140   43.2500    0.7480 N.am   96  VAL96      -0.1980
     45  CA        26.0260   43.6350    2.0770 C.3    96  VAL96       0.1595
     46  C         27.0240   43.2040    3.1860 C.2    96  VAL96       0.2287
     47  O         27.6540   42.1840    3.0970 O.2    96  VAL96      -0.2864
     48  CB        24.5840   43.0860    2.3780 C.3    96  VAL96       0.0276
     49  CG1       23.5330   43.6730    1.3860 C.3    96  VAL96       0.0022
     50  CG2       24.5920   41.6130    2.3540 C.3    96  VAL96       0.0022
     51  N         26.8210   41.8930    6.1090 N.3    98  LEU98      -0.1231
     52  CA        26.6240   40.5390    6.5750 C.3    98  LEU98       0.1693
     53  C         27.5100   39.4730    5.8960 C.2    98  LEU98       0.2592
     54  O         27.8730   38.4910    6.5200 O.2    98  LEU98      -0.2718
     55  CB        25.1490   40.1910    6.3360 C.3    98  LEU98       0.0284
     56  CG        24.6390   38.8420    6.7920 C.3    98  LEU98       0.0019
     57  CD1       24.6790   38.7140    8.3740 C.3    98  LEU98       0.0001
     58  CD2       23.1860   38.6400    6.2320 C.3    98  LEU98       0.0001
     59  N         27.7810   39.6340    4.6090 N.am   99  ASN99      -0.1974
     60  CA        28.4700   38.6580    3.8020 C.3    99  ASN99       0.1688
     61  C         29.8770   39.1410    3.3760 C.2    99  ASN99       0.2292
     62  O         30.4230   38.7850    2.3010 O.2    99  ASN99      -0.2864
     63  CB        27.6550   38.3800    2.5600 C.3    99  ASN99       0.1181
     64  CG        26.3520   37.6130    2.8440 C.2    99  ASN99       0.2629
     65  OD1       26.3500   36.6210    3.5690 O.2    99  ASN99      -0.2716
     66  ND2       25.2590   38.0520    2.2230 N.am   99  ASN99      -0.0877
     67  N         11.5830   41.0930   -0.4460 N.3   181  MET181     -0.1245
     68  CA        13.0500   41.0830   -0.5230 C.3   181  MET181      0.1570
     69  C         13.7820   39.8740    0.0960 C.2   181  MET181      0.2261
     70  O         14.9060   39.5590   -0.2870 O.2   181  MET181     -0.2867
     71  CB        13.5030   42.3160    0.2220 C.3   181  MET181      0.0387
     72  CG        14.6260   43.0040   -0.3350 C.3   181  MET181      0.0595
     73  SD        14.3930   44.7080   -0.8430 S.3   181  MET181     -0.1393
     74  CE        13.2270   45.5120    0.0760 C.3   181  MET181      0.0692
     75  N         12.1100   39.6220   -5.5420 N.3   194  PRO194     -0.2102
     76  CA        13.4140   39.9160   -4.9840 C.3   194  PRO194      0.1504
     77  C         14.2870   40.8740   -5.7420 C.2   194  PRO194      0.2575
     78  O         14.7080   41.8590   -5.1240 O.2   194  PRO194     -0.2718
     79  CB        14.0220   38.5340   -4.7500 C.3   194  PRO194      0.0282
     80  CG        12.9800   37.8260   -4.2950 C.3   194  PRO194      0.0208
     81  CD        11.7530   38.2720   -5.0720 C.3   194  PRO194      0.0893
     82  N         14.5500   40.5760   -7.0170 N.am  195  LYS195     -0.1980
     83  CA        15.4830   41.3550   -7.8460 C.3   195  LYS195      0.1596
     84  C         14.9590   42.7490   -8.1030 C.2   195  LYS195      0.2287
     85  O         15.6700   43.7250   -7.8440 O.2   195  LYS195     -0.2864
     86  CB        15.7710   40.6440   -9.1970 C.3   195  LYS195      0.0298
     87  CG        16.5900   39.3600   -9.0220 C.3   195  LYS195      0.0038
     88  CD        16.7900   38.6490  -10.3370 C.3   195  LYS195      0.0206
     89  CE        17.9800   37.7130  -10.3050 C.3   195  LYS195      0.1093
     90  NZ        18.1530   36.9640  -11.6230 N.3   195  LYS195     -0.1314
     91  N         14.6270   44.7780   -4.8240 N.3   198  SER198     -0.1202
     92  CA        15.9560   45.1690   -4.3510 C.3   198  SER198      0.2020
     93  C         16.4650   46.3850   -5.1360 C.2   198  SER198      0.2618
     94  O         16.9300   47.3480   -4.5310 O.2   198  SER198     -0.2717
     95  CB        16.9510   43.9940   -4.4420 C.3   198  SER198      0.2103
     96  OG        16.5630   42.9550   -3.5250 O.3   198  SER198     -0.2182
     97  N         16.3480   46.3350   -6.4620 N.am  199  ALA199     -0.1979
     98  CA        16.8060   47.4360   -7.3500 C.3   199  ALA199      0.1597
     99  C         16.0540   48.7020   -7.0210 C.2   199  ALA199      0.2287
    100  O         16.6270   49.7700   -6.8840 O.2   199  ALA199     -0.2864
    101  CB        16.6110   47.0810   -8.7970 C.3   199  ALA199      0.0319
    102  N         17.0790   50.0830   -3.5150 N.3   202  ILE202     -0.1245
    103  CA        18.4230   50.6600   -3.5160 C.3   202  ILE202      0.1561
    104  C         18.3360   51.9880   -4.2350 C.2   202  ILE202      0.2260
    105  O         18.9860   52.9610   -3.8280 O.2   202  ILE202     -0.2867
    106  CB        19.5410   49.7200   -4.0880 C.3   202  ILE202      0.0252
    107  CG1       20.9210   50.1790   -3.5960 C.3   202  ILE202      0.0019
    108  CG2       19.5630   49.6640   -5.6190 C.3   202  ILE202      0.0019
    109  CD1       22.0060   49.1480   -3.7170 C.3   202  ILE202      0.0001
    110  N         23.3150   49.6960   -0.1070 N.3   232  PHE232     -0.1241
    111  CA        23.5310   48.3220    0.3520 C.3   232  PHE232      0.1605
    112  C         23.1670   48.1620    1.8270 C.2   232  PHE232      0.2264
    113  O         22.6020   47.1280    2.1930 O.2   232  PHE232     -0.2867
    114  CB        24.9580   47.8010    0.0570 C.3   232  PHE232      0.0534
    115  CG        25.2600   47.6410   -1.4390 C.ar  232  PHE232     -0.0203
    116  CD1       24.4820   46.8080   -2.2380 C.ar  232  PHE232     -0.0042
    117  CD2       26.3170   48.3250   -2.0350 C.ar  232  PHE232     -0.0042
    118  CE1       24.7520   46.6720   -3.6310 C.ar  232  PHE232     -0.0003
    119  CE2       26.5870   48.2040   -3.4360 C.ar  232  PHE232     -0.0003
    120  CZ        25.7890   47.3830   -4.2180 C.ar  232  PHE232     -0.0000
    121  N         19.2060   48.0430    2.0120 N.3   235  VAL235     -0.1231
    122  CA        18.7300   46.7870    1.4460 C.3   235  VAL235      0.1692
    123  C         18.9610   45.6100    2.4330 C.2   235  VAL235      0.2591
    124  O         18.0890   44.7470    2.6560 O.2   235  VAL235     -0.2718
    125  CB        19.3920   46.6030    0.0260 C.3   235  VAL235      0.0266
    126  CG1       19.4020   45.1890   -0.3660 C.3   235  VAL235      0.0020
    127  CG2       18.6840   47.4200   -0.9990 C.3   235  VAL235      0.0020
    128  N         20.1310   45.6250    3.0660 N.am  236  MET236     -0.1979
    129  CA        20.4690   44.7010    4.1640 C.3   236  MET236      0.1605
    130  C         19.4690   44.7620    5.3210 C.2   236  MET236      0.2287
    131  O         19.0280   43.7370    5.8350 O.2   236  MET236     -0.2864
    132  CB        21.8590   45.0410    4.6840 C.3   236  MET236      0.0413
    133  CG        22.4640   44.0350    5.6630 C.3   236  MET236      0.0598
    134  SD        23.9590   44.6790    6.4690 S.3   236  MET236     -0.1393
    135  CE        23.4450   46.2320    7.1780 C.3   236  MET236      0.0692
    136  N         15.9940   43.1220    4.8330 N.3   239  VAL239     -0.1231
    137  CA        16.0200   41.6730    5.1380 C.3   239  VAL239      0.1692
    138  C         16.3810   41.3260    6.6330 C.2   239  VAL239      0.2591
    139  O         15.7040   40.5260    7.3020 O.2   239  VAL239     -0.2718
    140  CB        16.9880   40.9560    4.1640 C.3   239  VAL239      0.0266
    141  CG1       17.0300   39.4470    4.4370 C.3   239  VAL239      0.0020
    142  CG2       16.5300   41.1640    2.7470 C.3   239  VAL239      0.0020
    143  N         17.4290   41.9550    7.1480 N.am  240  ALA240     -0.1980
    144  CA        17.9730   41.6420    8.4910 C.3   240  ALA240      0.1597
    145  C         16.9480   41.8950    9.6130 C.2   240  ALA240      0.2287
    146  O         16.8800   41.1370   10.5610 O.2   240  ALA240     -0.2864
    147  CB        19.2750   42.4850    8.7850 C.3   240  ALA240      0.0319
@<TRIPOS>BOND
     1    90    89    1
     2    88    89    1
     3    88    87    1
     4    15    14   ar
     5    16    14   ar
     6    14    13    1
     7    86    87    1
     8    86    83    1
     9   101    98    1
    10     9    10    1
    11    84    83    1
    12    84    85    2
    13    13    10    1
    14    83    82    1
    15    10    11    1
    16    98    99    1
    17    98    97    1
    18    99   100    2
    19    82    77   am
    20    23    21    1
    21    97    93   am
    22    21    22    1
    23    21    18    1
    24    11    12    2
    25    43    42   ar
    26    43    41   ar
    27    42    40   ar
    28    77    78    2
    29    77    76    1
    30    17    18    1
    31   108   106    1
    32    75    81    1
    33    75    76    1
    34    18    19    1
    35    93    94    2
    36    93    92    1
    37    81    80    1
    38    76    79    1
    39    91    92    1
    40    41    39   ar
    41    40    38   ar
    42    79    80    1
    43    95    92    1
    44    95    96    1
    45   104   105    2
    46   104   103    1
    47   120   118   ar
    48   120   119   ar
    49   106   107    1
    50   106   103    1
    51    19    20    2
    52    19    24   am
    53    39    38   ar
    54   109   107    1
    55    38    37    1
    56   118   116   ar
    57   103   102    1
    58   119   117   ar
    59    24    25    1
    60    37    34    1
    61    32    30   am
    62   116   115   ar
    63    29    30    1
    64    29    28    1
    65   117   115   ar
    66    25    28    1
    67    25    26    1
    68    30    31    2
    69   115   114    1
    70    33    34    1
    71    34    35    1
    72   127   125    1
    73    26    27    2
    74    73    72    1
    75    73    74    1
    76    68    67    1
    77    68    69    1
    78    68    71    1
    79   126   125    1
    80    72    71    1
    81    70    69    2
    82   110   111    1
    83    35    36    2
    84    35    44   am
    85   125   122    1
    86   114   111    1
    87   111   112    1
    88    44    45    1
    89    49    48    1
    90   122   121    1
    91   122   123    1
    92   112   113    2
    93     4     3    2
    94    45    48    1
    95    45    46    1
    96    66    64   am
    97    62    61    2
    98    50    48    1
    99     7     5    1
   100   123   124    2
   101   123   128   am
   102     8     6    1
   103    63    64    1
   104    63    60    1
   105   142   140    1
   106     5     6    1
   107     5     2    1
   108    64    65    2
   109   128   129    1
   110     3     2    1
   111    47    46    2
   112    61    60    1
   113     2     1    1
   114    60    59    1
   115   140   141    1
   116   140   137    1
   117   129   132    1
   118   129   130    1
   119    59    53   am
   120   132   133    1
   121   136   137    1
   122   137   138    1
   123   130   131    2
   124   133   134    1
   125    53    54    2
   126    53    52    1
   127    51    52    1
   128    58    56    1
   129    55    52    1
   130    55    56    1
   131   134   135    1
   132   138   143   am
   133   138   139    2
   134    56    57    1
   135   143   144    1
   136   144   147    1
   137   144   145    1
   138   145   146    2
