@<TRIPOS>MOLECULE
tmp/3iw5A01.pdb
 190 178 0 0 0
SMALL
GASTEIGER

@<TRIPOS>ATOM
      1  N         26.5350    7.8520  -21.9350 N.3    27  VAL27      -0.1245
      2  CA        25.1230    8.1760  -22.1780 C.3    27  VAL27       0.1561
      3  C         24.3130    8.2490  -20.8820 C.2    27  VAL27       0.2260
      4  O         23.1820    8.7340  -20.8840 O.2    27  VAL27      -0.2867
      5  CB        24.4700    7.2400  -23.1500 C.3    27  VAL27       0.0252
      6  CG1       25.0540    7.4380  -24.5490 C.3    27  VAL27       0.0019
      7  CG2       24.6200    5.8170  -22.6850 C.3    27  VAL27       0.0019
      8  N         27.2130    3.7190  -18.5650 N.3    33  VAL33      -0.1245
      9  CA        26.9200    3.2140  -19.8690 C.3    33  VAL33       0.1561
     10  C         27.5630    4.1820  -20.8460 C.2    33  VAL33       0.2260
     11  O         27.4750    5.3950  -20.6920 O.2    33  VAL33      -0.2867
     12  CB        25.3640    3.1000  -20.0920 C.3    33  VAL33       0.0252
     13  CG1       25.0570    2.4530  -21.4040 C.3    33  VAL33       0.0019
     14  CG2       24.7040    2.3040  -18.9670 C.3    33  VAL33       0.0019
     15  N         25.8290   -0.5330  -26.6660 N.3    46  ALA46      -0.1245
     16  CA        25.8870    0.1630  -25.3950 C.3    46  ALA46       0.1562
     17  C         26.7160   -0.7610  -24.5470 C.2    46  ALA46       0.2260
     18  O         26.6450   -1.9800  -24.7360 O.2    46  ALA46      -0.2867
     19  CB        24.5020    0.3550  -24.8230 C.3    46  ALA46       0.0290
     20  N         28.0910   -1.4660  -20.4770 N.3    48  LYS48      -0.1245
     21  CA        27.8680   -1.1050  -19.0990 C.3    48  LYS48       0.1561
     22  C         28.9820   -1.6220  -18.2310 C.2    48  LYS48       0.2260
     23  O         29.3790   -2.7660  -18.3290 O.2    48  LYS48      -0.2867
     24  CB        26.4880   -1.5760  -18.6140 C.3    48  LYS48       0.0271
     25  CG        26.0580   -0.9310  -17.3000 C.3    48  LYS48       0.0035
     26  CD        24.8900   -1.6570  -16.7610 C.3    48  LYS48       0.0206
     27  CE        24.2980   -1.0340  -15.5010 C.3    48  LYS48       0.1093
     28  NZ        22.9470   -1.7050  -15.2240 N.3    48  LYS48      -0.1314
     29  N         22.3760  -10.4230  -12.0870 N.3    66  GLU66      -0.1245
     30  CA        22.1810   -9.7240  -13.3300 C.3    66  GLU66       0.1567
     31  C         22.8390  -10.5530  -14.4500 C.2    66  GLU66       0.2260
     32  O         22.2260  -10.7780  -15.4820 O.2    66  GLU66      -0.2867
     33  CB        22.6320   -8.2470  -13.3060 C.3    66  GLU66       0.0388
     34  CG        22.4250   -7.5880  -14.6920 C.3    66  GLU66       0.1160
     35  CD        22.3240   -6.0660  -14.6790 C.2    66  GLU66       0.3649
     36  OE1       21.2330   -5.5740  -15.0560 O.co2  66  GLU66      -0.2457
     37  OE2       23.3060   -5.3560  -14.3290 O.co2  66  GLU66      -0.2457
     38  N         20.7420  -12.2240  -17.6930 N.3    70  LEU70      -0.1245
     39  CA        20.9000  -11.7190  -19.0610 C.3    70  LEU70       0.1561
     40  C         21.4090  -12.7970  -20.0150 C.2    70  LEU70       0.2260
     41  O         21.0880  -12.8080  -21.2180 O.2    70  LEU70      -0.2867
     42  CB        21.8070  -10.5020  -19.0900 C.3    70  LEU70       0.0270
     43  CG        21.1910   -9.3030  -18.3970 C.3    70  LEU70       0.0019
     44  CD1       22.2220   -8.2070  -18.3850 C.3    70  LEU70       0.0001
     45  CD2       19.9690   -8.8400  -19.0940 C.3    70  LEU70       0.0001
     46  N         15.9160   -7.5900  -23.4420 N.3    79  ILE79      -0.1231
     47  CA        17.3350   -7.2720  -23.5220 C.3    79  ILE79       0.1692
     48  C         18.1780   -8.5240  -23.2760 C.2    79  ILE79       0.2593
     49  O         17.8390   -9.3500  -22.4400 O.2    79  ILE79      -0.2718
     50  CB        17.7180   -6.1210  -22.5460 C.3    79  ILE79       0.0266
     51  CG1       19.0960   -5.5720  -22.9010 C.3    79  ILE79       0.0019
     52  CG2       17.5430   -6.5230  -21.0090 C.3    79  ILE79       0.0020
     53  CD1       19.3830   -4.2270  -22.2780 C.3    79  ILE79       0.0001
     54  N         19.2770   -8.6320  -24.0160 N.am   80  GLY80      -0.1942
     55  CA        20.1760   -9.7720  -24.0160 C.3    80  GLY80       0.2014
     56  C         21.6260   -9.3190  -24.1200 C.2    80  GLY80       0.2638
     57  O         21.9020   -8.1340  -24.1150 O.2    80  GLY80      -0.2714
     58  N         22.5720  -10.2460  -24.1850 N.am   81  LEU81      -0.1977
     59  CA        23.9740   -9.8510  -24.3580 C.3    81  LEU81       0.1596
     60  C         24.5750  -10.2140  -25.6900 C.2    81  LEU81       0.2287
     61  O         24.3330  -11.3200  -26.1960 O.2    81  LEU81      -0.2864
     62  CB        24.8550  -10.4630  -23.2910 C.3    81  LEU81       0.0297
     63  CG        24.3530  -10.1860  -21.9160 C.3    81  LEU81       0.0022
     64  CD1       24.8880  -11.2860  -21.0610 C.3    81  LEU81       0.0001
     65  CD2       24.8760   -8.7970  -21.5840 C.3    81  LEU81       0.0001
     66  N         29.1350   -5.3370  -19.4280 N.3    99  LEU99      -0.1245
     67  CA        28.1210   -6.0020  -20.2120 C.3    99  LEU99       0.1561
     68  C         27.9060   -5.2740  -21.5530 C.2    99  LEU99       0.2260
     69  O         27.9000   -4.0470  -21.6060 O.2    99  LEU99      -0.2867
     70  CB        26.8660   -6.0990  -19.3710 C.3    99  LEU99       0.0270
     71  CG        27.0320   -6.7510  -17.9740 C.3    99  LEU99       0.0019
     72  CD1       25.7090   -6.7530  -17.2190 C.3    99  LEU99       0.0001
     73  CD2       27.5720   -8.1480  -18.0020 C.3    99  LEU99       0.0001
     74  N         25.4650   -4.8400  -25.0240 N.3   101  THR101     -0.1203
     75  CA        24.1990   -5.0700  -25.7100 C.3   101  THR101      0.1994
     76  C         24.0860   -4.1520  -26.9280 C.2   101  THR101      0.2618
     77  O         24.7480   -3.1320  -26.9980 O.2   101  THR101     -0.2717
     78  CB        22.9630   -4.8280  -24.7250 C.3   101  THR101      0.1784
     79  OG1       21.7390   -5.2710  -25.3310 O.3   101  THR101     -0.2211
     80  CG2       22.8310   -3.3500  -24.3610 C.3   101  THR101      0.0376
     81  N         23.2000   -4.4860  -27.8490 N.am  102  HIS102     -0.1961
     82  CA        22.9640   -3.6870  -29.0570 C.3   102  HIS102      0.1787
     83  C         22.4910   -2.2670  -28.7150 C.2   102  HIS102      0.2620
     84  O         21.6390   -2.0870  -27.8230 O.2   102  HIS102     -0.2715
     85  CB        21.9010   -4.4090  -29.8990 C.3   102  HIS102      0.0785
     86  CG        21.7940   -3.9130  -31.3090 C.ar  102  HIS102      0.0821
     87  ND1       22.3460   -4.5860  -32.3800 N.ar  102  HIS102     -0.2267
     88  CD2       21.1650   -2.8270  -31.8310 C.ar  102  HIS102      0.1154
     89  CE1       22.0600   -3.9330  -33.4980 C.ar  102  HIS102      0.1986
     90  NE2       21.3480   -2.8590  -33.1920 N.ar  102  HIS102     -0.2212
     91  N         23.0330   -1.2510  -29.3850 N.am  103  LEU103     -0.1963
     92  CA        22.5630    0.1190  -29.1160 C.3   103  LEU103      0.1728
     93  C         21.0900    0.2670  -29.5830 C.2   103  LEU103      0.2616
     94  O         20.7500   -0.1240  -30.7270 O.2   103  LEU103     -0.2715
     95  CB        23.4060    1.1370  -29.8490 C.3   103  LEU103      0.0311
     96  CG        23.1810    2.6330  -29.5600 C.3   103  LEU103      0.0022
     97  CD1       23.6470    3.0080  -28.1220 C.3   103  LEU103      0.0001
     98  CD2       23.9910    3.4290  -30.5400 C.3   103  LEU103      0.0001
     99  N         20.2560    0.8110  -28.6920 N.am  104  MET104     -0.1963
    100  CA        18.8700    1.1260  -28.9760 C.3   104  MET104      0.1736
    101  C         18.6370    2.6570  -28.9710 C.2   104  MET104      0.2617
    102  O         17.8880    3.1770  -29.8060 O.2   104  MET104     -0.2715
    103  CB        17.9290    0.4160  -28.0000 C.3   104  MET104      0.0427
    104  CG        18.0520   -1.1340  -28.0460 C.3   104  MET104      0.0599
    105  SD        17.3230   -1.7750  -29.5780 S.3   104  MET104     -0.1393
    106  CE        18.6150   -2.8870  -30.0280 C.3   104  MET104      0.0692
    107  N         19.2900    3.3640  -28.0480 N.am  105  GLY105     -0.1940
    108  CA        19.4050    4.7940  -28.1580 C.3   105  GLY105      0.2014
    109  C         18.3780    5.5390  -27.3470 C.2   105  GLY105      0.2639
    110  O         18.6540    6.6380  -26.8510 O.2   105  GLY105     -0.2714
    111  N         17.2130    4.9210  -27.1800 N.am  106  ALA106     -0.1963
    112  CA        16.0650    5.5880  -26.6490 C.3   106  ALA106      0.1728
    113  C         15.1130    4.6300  -25.9310 C.2   106  ALA106      0.2616
    114  O         15.0780    3.4210  -26.2040 O.2   106  ALA106     -0.2715
    115  CB        15.3460    6.2740  -27.7740 C.3   106  ALA106      0.0334
    116  N         14.3480    5.1750  -24.9950 N.am  107  ASP107     -0.1971
    117  CA        13.3050    4.4130  -24.3760 C.3   107  ASP107      0.1709
    118  C         11.9780    4.8450  -24.9670 C.2   107  ASP107      0.2293
    119  O         11.9380    5.7320  -25.8290 O.2   107  ASP107     -0.2864
    120  CB        13.3520    4.5210  -22.8390 C.3   107  ASP107      0.1436
    121  CG        13.0070    5.8910  -22.3230 C.2   107  ASP107      0.3671
    122  OD1       13.0810    6.1020  -21.0940 O.co2 107  ASP107     -0.2456
    123  OD2       12.6650    6.7650  -23.1320 O.co2 107  ASP107     -0.2456
    124  N         11.0220    8.5950  -25.2030 N.3   110  ASN110     -0.1240
    125  CA        11.8150    9.2920  -26.2170 C.3   110  ASN110      0.1653
    126  C         11.1580    9.1680  -27.5830 C.2   110  ASN110      0.2266
    127  O         11.1080   10.1450  -28.3340 O.2   110  ASN110     -0.2867
    128  CB        13.2590    8.7890  -26.2600 C.3   110  ASN110      0.1155
    129  CG        13.9690    8.8860  -24.9070 C.2   110  ASN110      0.2627
    130  OD1       14.8850    8.1010  -24.6050 O.2   110  ASN110     -0.2716
    131  ND2       13.5560    9.8500  -24.0880 N.am  110  ASN110     -0.0877
    132  N         10.0130    3.7930  -19.3830 N.3   149  SER149     -0.1217
    133  CA        11.4520    3.8780  -19.1310 C.3   149  SER149      0.1889
    134  C         12.1240    2.5160  -18.9940 C.2   149  SER149      0.2288
    135  O         13.3660    2.4500  -18.9780 O.2   149  SER149     -0.2866
    136  CB        11.8370    4.7880  -17.9380 C.3   149  SER149      0.2089
    137  OG        11.1960    4.4440  -16.7180 O.3   149  SER149     -0.2183
    138  N         13.2650   -0.2910  -24.1930 N.3   152  ALA152     -0.1245
    139  CA        14.1700    0.2300  -25.2010 C.3   152  ALA152      0.1562
    140  C         13.5080    0.1650  -26.5820 C.2   152  ALA152      0.2260
    141  O         12.8570   -0.8250  -26.9330 O.2   152  ALA152     -0.2867
    142  CB        15.5400   -0.5400  -25.1670 C.3   152  ALA152      0.0290
    143  N         12.4190   -3.5970  -26.9340 N.3   160  LYS160     -0.1245
    144  CA        12.9150   -4.6150  -25.9870 C.3   160  LYS160      0.1561
    145  C         12.5500   -4.2730  -24.5490 C.2   160  LYS160      0.2260
    146  O         12.5790   -3.1250  -24.1690 O.2   160  LYS160     -0.2867
    147  CB        14.4470   -4.7160  -26.0470 C.3   160  LYS160      0.0271
    148  CG        14.9860   -5.1680  -27.3490 C.3   160  LYS160      0.0035
    149  CD        16.4740   -5.0690  -27.3940 C.3   160  LYS160      0.0206
    150  CE        16.9980   -5.6810  -28.7240 C.3   160  LYS160      0.1093
    151  NZ        18.4620   -5.7960  -28.6420 N.3   160  LYS160     -0.1314
    152  N         13.3670   -4.2140  -20.5090 N.3   162  LEU162     -0.1231
    153  CA        14.5610   -4.0200  -19.7170 C.3   162  LEU162      0.1693
    154  C         14.3890   -4.4860  -18.2880 C.2   162  LEU162      0.2592
    155  O         13.3020   -4.5170  -17.7440 O.2   162  LEU162     -0.2718
    156  CB        14.9760   -2.5620  -19.7270 C.3   162  LEU162      0.0284
    157  CG        15.0770   -1.8550  -21.0720 C.3   162  LEU162      0.0019
    158  CD1       15.4860   -0.3600  -20.8720 C.3   162  LEU162      0.0001
    159  CD2       16.0550   -2.5670  -21.9130 C.3   162  LEU162      0.0001
    160  N         15.5000   -4.8840  -17.7040 N.am  163  ASP163     -0.1960
    161  CA        15.5630   -5.3720  -16.3620 C.3   163  ASP163      0.1840
    162  C         15.4500   -4.1530  -15.4410 C.2   163  ASP163      0.2622
    163  O         14.6240   -4.1530  -14.5150 O.2   163  ASP163     -0.2715
    164  CB        16.9140   -6.0990  -16.1640 C.3   163  ASP163      0.1450
    165  CG        18.1280   -5.3220  -16.8010 C.2   163  ASP163      0.3671
    166  OD1       19.2960   -5.7580  -16.5900 O.co2 163  ASP163     -0.2456
    167  OD2       17.9160   -4.2890  -17.5190 O.co2 163  ASP163     -0.2456
    168  N         16.2950   -3.1440  -15.6990 N.am  164  PHE164     -0.1960
    169  CA        16.3400   -1.8750  -14.9450 C.3   164  PHE164      0.1771
    170  C         16.6120   -0.7530  -15.9380 C.2   164  PHE164      0.2620
    171  O         17.3170   -0.9740  -16.9270 O.2   164  PHE164     -0.2715
    172  CB        17.4670   -1.8430  -13.9000 C.3   164  PHE164      0.0574
    173  CG        17.3990   -2.9310  -12.8760 C.ar  164  PHE164     -0.0200
    174  CD1       16.3740   -2.9570  -11.9250 C.ar  164  PHE164     -0.0042
    175  CD2       18.3970   -3.9240  -12.8310 C.ar  164  PHE164     -0.0042
    176  CE1       16.3210   -3.9920  -10.9480 C.ar  164  PHE164     -0.0003
    177  CE2       18.3540   -4.9590  -11.8690 C.ar  164  PHE164     -0.0003
    178  CZ        17.3130   -4.9910  -10.9240 C.ar  164  PHE164     -0.0000
    179  N         16.0890    0.4480  -15.6650 N.am  165  GLY165     -0.1940
    180  CA        16.1010    1.5490  -16.6440 C.3   165  GLY165      0.2014
    181  C         17.2090    2.5910  -16.5160 C.2   165  GLY165      0.2638
    182  O         18.0760    2.4990  -15.6330 O.2   165  GLY165     -0.2714
    183  N         17.1550    3.5770  -17.4270 N.am  166  LEU166     -0.1977
    184  CA        18.0480    4.7660  -17.4830 C.3   166  LEU166      0.1596
    185  C         17.3540    5.8030  -18.3750 C.2   166  LEU166      0.2287
    186  O         17.7220    6.9840  -18.4270 O.2   166  LEU166     -0.2864
    187  CB        19.4190    4.4010  -18.0710 C.3   166  LEU166      0.0297
    188  CG        20.5930    5.3850  -18.1850 C.3   166  LEU166      0.0022
    189  CD1       21.8600    4.5920  -18.4040 C.3   166  LEU166      0.0001
    190  CD2       20.4560    6.4260  -19.2880 C.3   166  LEU166      0.0001
@<TRIPOS>BOND
     1    89    90   ar
     2    89    87   ar
     3    90    88   ar
     4    87    86   ar
     5    88    86   ar
     6    86    85    1
     7    94    93    2
     8    98    96    1
     9   106   105    1
    10    85    82    1
    11    95    96    1
    12    95    92    1
    13   102   101    2
    14    93    92    1
    15    93    99   am
    16   105   104    1
    17    96    97    1
    18    91    92    1
    19    91    83   am
    20    82    83    1
    21    82    81    1
    22   100   101    1
    23   100    99    1
    24   100   103    1
    25   101   107   am
    26   150   151    1
    27   150   149    1
    28    83    84    2
    29   127   126    2
    30   108   107    1
    31   108   109    1
    32   104   103    1
    33    81    76   am
    34   115   112    1
    35   126   125    1
    36   149   148    1
    37   148   147    1
    38   109   111   am
    39   109   110    2
    40   111   112    1
    41    77    76    2
    42   143   144    1
    43   141   140    2
    44    76    75    1
    45    15    16    1
    46   112   113    1
    47   140   139    1
    48   128   125    1
    49   128   129    1
    50   125   124    1
    51   114   113    2
    52    61    60    2
    53   147   144    1
    54   144   145    1
    55   113   116   am
    56   119   118    2
    57    75    74    1
    58    75    78    1
    59    60    59    1
    60    16    19    1
    61    16    17    1
    62    79    78    1
    63   139   142    1
    64   139   138    1
    65   116   117    1
    66   118   117    1
    67   129   130    2
    68   129   131   am
    69    18    17    2
    70    78    80    1
    71   145   146    2
    72     6     5    1
    73   117   120    1
    74    59    58    1
    75    59    62    1
    76    58    56   am
    77    56    57    2
    78    56    55    1
    79    55    54    1
    80    54    48   am
    81    47    46    1
    82    47    48    1
    83    47    50    1
    84    62    63    1
    85    48    49    2
    86     5     7    1
    87     5     2    1
    88   123   121   ar
    89    51    50    1
    90    51    53    1
    91   120   121    1
    92    50    52    1
    93   121   122   ar
    94     2     1    1
    95     2     3    1
    96    63    65    1
    97    63    64    1
    98   159   157    1
    99    69    68    2
   100    68    67    1
   101    13    12    1
   102    41    40    2
   103   157   158    1
   104   157   156    1
   105     4     3    2
   106    10    11    2
   107    10     9    1
   108   152   153    1
   109    20    21    1
   110    67    66    1
   111    67    70    1
   112    12     9    1
   113    12    14    1
   114    40    39    1
   115     9     8    1
   116   156   153    1
   117   153   154    1
   118   132   133    1
   119    70    71    1
   120   190   188    1
   121   133   134    1
   122   133   136    1
   123    21    24    1
   124    21    22    1
   125    45    43    1
   126    42    39    1
   127    42    43    1
   128    39    38    1
   129   134   135    2
   130    24    25    1
   131   186   185    2
   132   189   188    1
   133    43    44    1
   134   185   184    1
   135    23    22    2
   136   154   155    2
   137   154   160   am
   138   188   187    1
   139   187   184    1
   140    73    71    1
   141    71    72    1
   142   136   137    1
   143   160   161    1
   144   167   165   ar
   145   184   183    1
   146   183   181   am
   147    25    26    1
   148   171   170    2
   149   165   166   ar
   150   165   164    1
   151    26    27    1
   152   180   181    1
   153   180   179    1
   154   181   182    2
   155   161   164    1
   156   161   162    1
   157   170   179   am
   158   170   169    1
   159   168   162   am
   160   168   169    1
   161    27    28    1
   162    32    31    2
   163   162   163    2
   164    36    35   ar
   165   169   172    1
   166    34    35    1
   167    34    33    1
   168    35    37   ar
   169    31    30    1
   170   172   173    1
   171    30    33    1
   172    30    29    1
   173   173   175   ar
   174   173   174   ar
   175   175   177   ar
   176   174   176   ar
   177   177   178   ar
   178   176   178   ar
