@<TRIPOS>MOLECULE
tmp/3iw6A00.pdb
 180 168 0 0 0
SMALL
GASTEIGER

@<TRIPOS>ATOM
      1  N        -25.1710   -8.5700    3.4160 N.3    27  VAL27      -0.1245
      2  CA       -25.3970   -7.1550    3.6720 C.3    27  VAL27       0.1561
      3  C        -25.4190   -6.3480    2.3590 C.2    27  VAL27       0.2260
      4  O        -26.1110   -5.3350    2.2500 O.2    27  VAL27      -0.2867
      5  CB       -24.3510   -6.5760    4.6610 C.3    27  VAL27       0.0252
      6  CG1      -24.6920   -6.9230    6.1100 C.3    27  VAL27       0.0019
      7  CG2      -22.9520   -7.0460    4.3190 C.3    27  VAL27       0.0019
      8  N        -20.9620   -9.1760   -0.2070 N.3    33  VAL33      -0.1245
      9  CA       -20.4900   -9.0190    1.1730 C.3    33  VAL33       0.1561
     10  C        -21.4660   -9.6340    2.2020 C.2    33  VAL33       0.2260
     11  O        -22.6670   -9.3440    2.2040 O.2    33  VAL33      -0.2867
     12  CB       -20.2370   -7.5160    1.4750 C.3    33  VAL33       0.0252
     13  CG1      -19.7470   -7.2860    2.9040 C.3    33  VAL33       0.0019
     14  CG2      -19.2620   -6.8780    0.4320 C.3    33  VAL33       0.0019
     15  N        -16.7450   -8.2360    8.1490 N.3    46  ALA46      -0.1231
     16  CA       -17.3480   -8.2360    6.8230 C.3    46  ALA46       0.1694
     17  C        -16.4790   -9.1290    5.9560 C.2    46  ALA46       0.2592
     18  O        -15.2480   -9.0070    5.9690 O.2    46  ALA46      -0.2718
     19  CB       -17.4250   -6.8180    6.2770 C.3    46  ALA46       0.0304
     20  N        -17.1170  -10.0580    5.2540 N.am   47  VAL47      -0.1966
     21  CA       -16.4320  -10.9650    4.3360 C.3    47  VAL47       0.1727
     22  C        -16.8700  -10.6560    2.8870 C.2    47  VAL47       0.2616
     23  O        -18.0630  -10.6610    2.5770 O.2    47  VAL47      -0.2715
     24  CB       -16.7150  -12.4470    4.6580 C.3    47  VAL47       0.0290
     25  CG1      -15.8610  -13.3800    3.7520 C.3    47  VAL47       0.0023
     26  CG2      -16.3970  -12.7330    6.1190 C.3    47  VAL47       0.0023
     27  N        -15.9010  -10.3730    2.0200 N.am   48  LYS48      -0.1977
     28  CA       -16.2140  -10.0570    0.6320 C.3    48  LYS48       0.1596
     29  C        -15.7240  -11.1610   -0.2770 C.2    48  LYS48       0.2287
     30  O        -14.5330  -11.4940   -0.2870 O.2    48  LYS48      -0.2864
     31  CB       -15.6050   -8.7170    0.2340 C.3    48  LYS48       0.0298
     32  CG       -15.9210   -8.2470   -1.2350 C.3    48  LYS48       0.0038
     33  CD       -15.4310   -6.7970   -1.3550 C.3    48  LYS48       0.0206
     34  CE       -15.6200   -6.2330   -2.7370 C.3    48  LYS48       0.1093
     35  NZ       -14.6230   -5.0850   -2.9280 N.3    48  LYS48      -0.1314
     36  N         -7.0260   -4.9950   -6.1640 N.3    66  GLU66      -0.1245
     37  CA        -7.7250   -4.8730   -4.8970 C.3    66  GLU66       0.1567
     38  C         -6.9690   -5.5970   -3.7750 C.2    66  GLU66       0.2260
     39  O         -6.7520   -5.0230   -2.7200 O.2    66  GLU66      -0.2867
     40  CB        -9.1920   -5.3240   -4.9370 C.3    66  GLU66       0.0388
     41  CG        -9.9050   -4.9210   -3.5870 C.3    66  GLU66       0.1160
     42  CD       -11.4150   -4.9750   -3.6510 C.2    66  GLU66       0.3649
     43  OE1      -12.0660   -4.2110   -2.8790 O.co2  66  GLU66      -0.2457
     44  OE2      -11.9540   -5.7820   -4.4510 O.co2  66  GLU66      -0.2457
     45  N         -5.3570   -3.4320   -0.6670 N.3    70  LEU70      -0.1245
     46  CA        -5.8180   -3.7180    0.6780 C.3    70  LEU70       0.1561
     47  C         -4.7370   -4.2930    1.6220 C.2    70  LEU70       0.2260
     48  O         -4.7670   -4.0200    2.8140 O.2    70  LEU70      -0.2867
     49  CB        -7.0340   -4.6360    0.6320 C.3    70  LEU70       0.0270
     50  CG        -8.3450   -3.9540    0.2450 C.3    70  LEU70       0.0019
     51  CD1       -9.4870   -4.9170    0.5440 C.3    70  LEU70       0.0001
     52  CD2       -8.5490   -2.6660    0.9960 C.3    70  LEU70       0.0001
     53  N         -9.7000    1.2990    5.1760 N.3    79  ILE79      -0.1245
     54  CA       -10.0420   -0.1130    5.2370 C.3    79  ILE79       0.1561
     55  C         -8.8120   -1.0010    4.9720 C.2    79  ILE79       0.2260
     56  O         -8.0020   -0.7310    4.0890 O.2    79  ILE79      -0.2867
     57  CB       -11.2580   -0.4470    4.3510 C.3    79  ILE79       0.0252
     58  CG1      -11.8920   -1.7710    4.7780 C.3    79  ILE79       0.0019
     59  CG2      -10.9390   -0.3740    2.8940 C.3    79  ILE79       0.0019
     60  CD1      -12.8990   -1.5690    5.9180 C.3    79  ILE79       0.0001
     61  N         -7.0830   -5.3260    5.7790 N.3    81  LEU81      -0.1245
     62  CA        -7.4670   -6.7170    5.7820 C.3    81  LEU81       0.1561
     63  C         -7.2040   -7.4080    7.1000 C.2    81  LEU81       0.2260
     64  O         -6.0970   -7.2990    7.6530 O.2    81  LEU81      -0.2867
     65  CB        -6.6950   -7.4610    4.6820 C.3    81  LEU81       0.0270
     66  CG        -7.2120   -7.2580    3.2850 C.3    81  LEU81       0.0019
     67  CD1       -6.1680   -7.8530    2.3110 C.3    81  LEU81       0.0001
     68  CD2       -8.5770   -7.9660    3.2210 C.3    81  LEU81       0.0001
     69  N        -12.0970  -11.7360    1.0080 N.3    99  LEU99      -0.1245
     70  CA       -11.3680  -10.7550    1.8180 C.3    99  LEU99       0.1561
     71  C        -12.1390  -10.5370    3.1260 C.2    99  LEU99       0.2260
     72  O        -13.3510  -10.5240    3.1110 O.2    99  LEU99      -0.2867
     73  CB       -11.2590   -9.4360    1.0510 C.3    99  LEU99       0.0270
     74  CG       -10.7450   -9.5370   -0.4050 C.3    99  LEU99       0.0019
     75  CD1      -10.9350   -8.2280   -1.0890 C.3    99  LEU99       0.0001
     76  CD2       -9.2430   -9.9550   -0.4500 C.3    99  LEU99       0.0001
     77  N        -12.4970   -8.0640    6.6360 N.3   101  THR101     -0.1203
     78  CA       -12.1430   -6.8540    7.3900 C.3   101  THR101      0.1994
     79  C        -13.1090   -6.6630    8.5510 C.2   101  THR101      0.2618
     80  O        -14.1350   -7.3510    8.6170 O.2   101  THR101     -0.2717
     81  CB       -12.1070   -5.5760    6.4680 C.3   101  THR101      0.1784
     82  OG1      -11.5360   -4.4680    7.1900 O.3   101  THR101     -0.2211
     83  CG2      -13.4820   -5.2040    5.9810 C.3   101  THR101      0.0376
     84  N        -12.7630   -5.7420    9.4600 N.am  102  HIS102     -0.1961
     85  CA       -13.6170   -5.3360   10.5890 C.3   102  HIS102      0.1787
     86  C        -14.9750   -4.8900   10.0880 C.2   102  HIS102      0.2620
     87  O        -15.0270   -4.0640    9.1850 O.2   102  HIS102     -0.2715
     88  CB       -12.9980   -4.1340   11.3080 C.3   102  HIS102      0.0785
     89  CG       -11.8810   -4.4780   12.2360 C.ar  102  HIS102      0.0821
     90  ND1      -12.0900   -5.0930   13.4530 N.ar  102  HIS102     -0.2267
     91  CD2      -10.5480   -4.2420   12.1540 C.ar  102  HIS102      0.1154
     92  CE1      -10.9290   -5.2480   14.0680 C.ar  102  HIS102      0.1986
     93  NE2       -9.9790   -4.7370   13.3050 N.ar  102  HIS102     -0.2212
     94  N        -16.0620   -5.4220   10.6660 N.am  103  LEU103     -0.1963
     95  CA       -17.4190   -5.0020   10.3330 C.3   103  LEU103      0.1728
     96  C        -17.6310   -3.6330   10.9750 C.2   103  LEU103      0.2616
     97  O        -17.5700   -3.4960   12.2130 O.2   103  LEU103     -0.2715
     98  CB       -18.4770   -5.9770   10.9090 C.3   103  LEU103      0.0311
     99  CG       -19.9430   -5.6870   10.4990 C.3   103  LEU103      0.0022
    100  CD1      -20.1300   -5.8860    9.0180 C.3   103  LEU103      0.0001
    101  CD2      -20.9590   -6.5390   11.2570 C.3   103  LEU103      0.0001
    102  N        -17.8630   -2.6200   10.1510 N.am  104  MET104     -0.1963
    103  CA       -18.1710   -1.3040   10.7000 C.3   104  MET104      0.1736
    104  C        -19.6830   -1.2010   10.8980 C.2   104  MET104      0.2617
    105  O        -20.1370   -0.7040   11.9250 O.2   104  MET104     -0.2715
    106  CB       -17.6050   -0.1820    9.8200 C.3   104  MET104      0.0427
    107  CG       -16.0700   -0.2960    9.5770 C.3   104  MET104      0.0599
    108  SD       -15.1190   -0.0900   11.0920 S.3   104  MET104     -0.1393
    109  CE       -15.5410    1.5600   11.5710 C.3   104  MET104      0.0692
    110  N        -20.4460   -1.6680    9.9110 N.am  105  GLY105     -0.1940
    111  CA       -21.8970   -1.8660   10.0700 C.3   105  GLY105      0.2014
    112  C        -22.7530   -0.7780    9.4620 C.2   105  GLY105      0.2639
    113  O        -23.9490   -0.9580    9.2550 O.2   105  GLY105     -0.2714
    114  N        -22.1270    0.3580    9.1690 N.am  106  ALA106     -0.1963
    115  CA       -22.8140    1.5400    8.6990 C.3   106  ALA106      0.1728
    116  C        -21.8650    2.3760    7.8380 C.2   106  ALA106      0.2616
    117  O        -20.6280    2.2310    7.8990 O.2   106  ALA106     -0.2715
    118  CB       -23.3020    2.3670    9.9030 C.3   106  ALA106      0.0334
    119  N        -22.4470    3.2290    7.0160 N.am  107  ASP107     -0.1971
    120  CA       -21.6750    4.2730    6.3680 C.3   107  ASP107      0.1709
    121  C        -22.2500    5.6370    6.6820 C.2   107  ASP107      0.2293
    122  O        -23.2410    5.7520    7.4310 O.2   107  ASP107     -0.2864
    123  CB       -21.5250    4.0590    4.8690 C.3   107  ASP107      0.1436
    124  CG       -22.8300    3.9300    4.1620 C.2   107  ASP107      0.3671
    125  OD1      -22.9730    2.9130    3.4810 O.co2 107  ASP107     -0.2456
    126  OD2      -23.7060    4.8210    4.2560 O.co2 107  ASP107     -0.2456
    127  N        -25.9450    6.5930    7.0200 N.3   110  ASN110     -0.1240
    128  CA       -26.6170    5.8180    8.1010 C.3   110  ASN110      0.1653
    129  C        -26.5480    6.4470    9.4800 C.2   110  ASN110      0.2266
    130  O        -27.5590    6.5240   10.1960 O.2   110  ASN110     -0.2867
    131  CB       -26.0380    4.4070    8.2180 C.3   110  ASN110      0.1155
    132  CG       -26.1750    3.6130    6.9510 C.2   110  ASN110      0.2627
    133  OD1      -27.2310    3.5970    6.3230 O.2   110  ASN110     -0.2716
    134  ND2      -25.1100    2.9390    6.5680 N.am  110  ASN110     -0.0877
    135  N        -21.0900    7.0420    0.9700 N.3   149  SER149     -0.1217
    136  CA       -21.1380    5.5600    0.9280 C.3   149  SER149      0.1889
    137  C        -19.7580    4.9050    0.9580 C.2   149  SER149      0.2288
    138  O        -19.6570    3.7100    1.2540 O.2   149  SER149     -0.2866
    139  CB       -21.9360    5.0060   -0.2520 C.3   149  SER149      0.2089
    140  OG       -21.5770    5.6540   -1.4600 O.3   149  SER149     -0.2183
    141  N        -17.0360    4.0430    5.8710 N.3   152  ALA152     -0.1245
    142  CA       -17.6870    3.1530    6.8160 C.3   152  ALA152      0.1562
    143  C        -17.4760    3.7410    8.2020 C.2   152  ALA152      0.2260
    144  O        -16.4250    4.3390    8.4770 O.2   152  ALA152     -0.2867
    145  CB       -17.1400    1.7410    6.7010 C.3   152  ALA152      0.0290
    146  N        -13.1870    3.6830    2.4710 N.3   162  LEU162     -0.1231
    147  CA       -13.3320    2.4300    1.6970 C.3   162  LEU162      0.1693
    148  C        -12.8340    2.6590    0.2970 C.2   162  LEU162      0.2592
    149  O        -13.0140    3.7550   -0.2230 O.2   162  LEU162     -0.2718
    150  CB       -14.8050    2.0340    1.5880 C.3   162  LEU162      0.0284
    151  CG       -15.5520    1.8300    2.8970 C.3   162  LEU162      0.0019
    152  CD1      -16.9730    1.2890    2.6220 C.3   162  LEU162      0.0001
    153  CD2      -14.7500    0.8530    3.7340 C.3   162  LEU162      0.0001
    154  N        -12.2400    1.6340   -0.3100 N.am  163  ASP163     -0.1960
    155  CA       -11.9740    1.6310   -1.7690 C.3   163  ASP163      0.1840
    156  C        -13.2570    1.7020   -2.5750 C.2   163  ASP163      0.2622
    157  O        -13.3900    2.5410   -3.4800 O.2   163  ASP163     -0.2715
    158  CB       -11.1380    0.4060   -2.2480 C.3   163  ASP163      0.1450
    159  CG       -11.6350   -0.9700   -1.6830 C.2   163  ASP163      0.3671
    160  OD1      -12.5890   -1.0460   -0.8750 O.co2 163  ASP163     -0.2456
    161  OD2      -11.0250   -2.0100   -2.0510 O.co2 163  ASP163     -0.2456
    162  N        -14.1730    0.7780   -2.2650 N.am  164  PHE164     -0.1974
    163  CA       -15.4930    0.7120   -2.8840 C.3   164  PHE164      0.1639
    164  C        -16.4860    0.4660   -1.7570 C.2   164  PHE164      0.2290
    165  O        -16.2000   -0.2980   -0.8250 O.2   164  PHE164     -0.2864
    166  CB       -15.5880   -0.4370   -3.9060 C.3   164  PHE164      0.0560
    167  CG       -14.5240   -0.4190   -4.9520 C.ar  164  PHE164     -0.0200
    168  CD1      -14.6510    0.3790   -6.0930 C.ar  164  PHE164     -0.0042
    169  CD2      -13.3870   -1.2210   -4.8150 C.ar  164  PHE164     -0.0042
    170  CE1      -13.6460    0.3810   -7.0860 C.ar  164  PHE164     -0.0003
    171  CE2      -12.3780   -1.2250   -5.8030 C.ar  164  PHE164     -0.0003
    172  CZ       -12.5080   -0.4200   -6.9370 C.ar  164  PHE164     -0.0000
    173  N        -20.7720   -0.0770   -0.3910 N.3   166  LEU166     -0.1245
    174  CA       -21.9360   -0.9020   -0.6990 C.3   166  LEU166      0.1561
    175  C        -23.0130   -0.1850   -1.5330 C.2   166  LEU166      0.2260
    176  O        -22.7440    0.8280   -2.1890 O.2   166  LEU166     -0.2867
    177  CB       -22.5330   -1.4510    0.5870 C.3   166  LEU166      0.0270
    178  CG       -21.7150   -2.5470    1.2480 C.3   166  LEU166      0.0019
    179  CD1      -22.5620   -3.1250    2.3350 C.3   166  LEU166      0.0001
    180  CD2      -21.3220   -3.6180    0.2280 C.3   166  LEU166      0.0001
@<TRIPOS>BOND
     1   170   172   ar
     2   170   168   ar
     3   172   171   ar
     4    36    37    1
     5   168   167   ar
     6   171   169   ar
     7   167   169   ar
     8   167   166    1
     9    40    37    1
    10    40    41    1
    11    37    38    1
    12    44    42   ar
    13   166   163    1
    14    38    39    2
    15    42    41    1
    16    42    43   ar
    17   157   156    2
    18    35    34    1
    19   163   162    1
    20   163   164    1
    21    34    33    1
    22   156   162   am
    23   156   155    1
    24   158   155    1
    25   158   159    1
    26   176   175    2
    27   161   159   ar
    28   155   154    1
    29   164   165    2
    30   159   160   ar
    31   175   174    1
    32   140   139    1
    33    33    32    1
    34    32    31    1
    35    75    74    1
    36   174   173    1
    37   174   177    1
    38    45    46    1
    39    76    74    1
    40    74    73    1
    41   154   148   am
    42    30    29    2
    43    29    28    1
    44   139   136    1
    45   149   148    2
    46     8     9    1
    47   180   178    1
    48    31    28    1
    49    50    51    1
    50    50    49    1
    51    50    52    1
    52   148   147    1
    53    14    12    1
    54   177   178    1
    55    49    46    1
    56    28    27    1
    57    46    47    1
    58   136   137    1
    59   136   135    1
    60   137   138    2
    61    69    70    1
    62    73    70    1
    63     9    12    1
    64     9    10    1
    65   178   179    1
    66    12    13    1
    67   150   147    1
    68   150   151    1
    69    47    48    2
    70   147   146    1
    71    70    71    1
    72    27    22   am
    73    10    11    2
    74     4     3    2
    75    67    66    1
    76     3     2    1
    77    23    22    2
    78   152   151    1
    79    22    21    1
    80    59    57    1
    81   151   153    1
    82    72    71    2
    83    68    66    1
    84    66    65    1
    85     1     2    1
    86   125   124   ar
    87     2     5    1
    88    25    24    1
    89    56    55    2
    90   124   126   ar
    91   124   123    1
    92     7     5    1
    93    21    24    1
    94    21    20    1
    95    57    58    1
    96    57    54    1
    97    24    26    1
    98     5     6    1
    99    65    62    1
   100    58    60    1
   101   123   120    1
   102    55    54    1
   103    53    54    1
   104    20    17   am
   105    61    62    1
   106    62    63    1
   107   141   142    1
   108    17    18    2
   109    17    16    1
   110    83    81    1
   111    19    16    1
   112   133   132    2
   113   120   121    1
   114   120   119    1
   115    81    82    1
   116    81    78    1
   117   134   132   am
   118    77    78    1
   119   121   122    2
   120   145   142    1
   121   142   143    1
   122    16    15    1
   123   132   131    1
   124   119   116   am
   125   127   128    1
   126    63    64    2
   127    78    79    1
   128   116   117    2
   129   116   115    1
   130   128   131    1
   131   128   129    1
   132   143   144    2
   133    79    80    2
   134    79    84   am
   135   115   114    1
   136   115   118    1
   137   100    99    1
   138   114   112   am
   139    87    86    2
   140   113   112    2
   141    84    85    1
   142   112   111    1
   143   129   130    2
   144   107   106    1
   145   107   108    1
   146   106   103    1
   147   110   111    1
   148   110   104   am
   149    86    85    1
   150    86    94   am
   151   102   103    1
   152   102    96   am
   153    95    94    1
   154    95    98    1
   155    95    96    1
   156    99    98    1
   157    99   101    1
   158    85    88    1
   159   103   104    1
   160   104   105    2
   161    96    97    2
   162   108   109    1
   163    88    89    1
   164    91    89   ar
   165    91    93   ar
   166    89    90   ar
   167    93    92   ar
   168    90    92   ar
