@<TRIPOS>MOLECULE
tmp/3iw7A01.pdb
 158 147 0 0 0
SMALL
GASTEIGER

@<TRIPOS>ATOM
      1  N         26.1180    7.3180  -22.1270 N.3    27  VAL27      -0.1245
      2  CA        24.6820    7.5560  -22.3470 C.3    27  VAL27       0.1561
      3  C         23.8640    7.6410  -21.0510 C.2    27  VAL27       0.2260
      4  O         22.6780    7.9750  -21.0850 O.2    27  VAL27      -0.2867
      5  CB        24.0310    6.5770  -23.3700 C.3    27  VAL27       0.0252
      6  CG1       24.6770    6.7250  -24.7410 C.3    27  VAL27       0.0019
      7  CG2       24.0950    5.1510  -22.8970 C.3    27  VAL27       0.0019
      8  N         26.7560    3.2870  -18.5110 N.3    33  VAL33      -0.1245
      9  CA        26.5650    2.7390  -19.8290 C.3    33  VAL33       0.1561
     10  C         27.2090    3.6750  -20.8490 C.2    33  VAL33       0.2260
     11  O         26.9620    4.8810  -20.8220 O.2    33  VAL33      -0.2867
     12  CB        25.0370    2.5170  -20.1200 C.3    33  VAL33       0.0252
     13  CG1       24.8030    1.9340  -21.4880 C.3    33  VAL33       0.0019
     14  CG2       24.3970    1.6240  -19.0430 C.3    33  VAL33       0.0019
     15  N         25.5710   -0.9290  -26.7410 N.3    46  ALA46      -0.1245
     16  CA        25.6240   -0.3580  -25.4150 C.3    46  ALA46       0.1562
     17  C         26.4500   -1.2950  -24.5370 C.2    46  ALA46       0.2260
     18  O         26.2460   -2.5160  -24.5410 O.2    46  ALA46      -0.2867
     19  CB        24.2370   -0.1560  -24.8550 C.3    46  ALA46       0.0290
     20  N         27.7910   -1.8330  -20.6720 N.3    48  LYS48      -0.1245
     21  CA        27.5290   -1.4870  -19.2840 C.3    48  LYS48       0.1561
     22  C         28.6370   -2.0120  -18.3880 C.2    48  LYS48       0.2260
     23  O         28.9730   -3.1790  -18.4390 O.2    48  LYS48      -0.2867
     24  CB        26.1700   -2.0200  -18.8100 C.3    48  LYS48       0.0271
     25  CG        25.8900   -1.7520  -17.2960 C.3    48  LYS48       0.0035
     26  CD        24.7050   -2.5110  -16.7330 C.3    48  LYS48       0.0206
     27  CE        23.3490   -1.8630  -17.0620 C.3    48  LYS48       0.1093
     28  NZ        22.1780   -2.4950  -16.3270 N.3    48  LYS48      -0.1314
     29  N         20.4980  -12.1820  -18.0520 N.3    70  LEU70      -0.1245
     30  CA        20.8610  -11.7320  -19.3880 C.3    70  LEU70       0.1561
     31  C         21.4060  -12.8430  -20.2480 C.2    70  LEU70       0.2260
     32  O         21.1700  -12.8370  -21.4500 O.2    70  LEU70      -0.2867
     33  CB        21.8340  -10.5440  -19.3360 C.3    70  LEU70       0.0270
     34  CG        21.1840   -9.2220  -18.9100 C.3    70  LEU70       0.0019
     35  CD1       22.0900   -8.0680  -19.1740 C.3    70  LEU70       0.0001
     36  CD2       19.9420   -8.9790  -19.6630 C.3    70  LEU70       0.0001
     37  N         16.0430   -7.7660  -23.9570 N.3    79  ILE79      -0.1245
     38  CA        17.4580   -7.4630  -23.9570 C.3    79  ILE79       0.1561
     39  C         18.2530   -8.7130  -23.5840 C.2    79  ILE79       0.2260
     40  O         17.9220   -9.3990  -22.6120 O.2    79  ILE79      -0.2867
     41  CB        17.8280   -6.2880  -23.0210 C.3    79  ILE79       0.0252
     42  CG1       19.1190   -5.6270  -23.4990 C.3    79  ILE79       0.0019
     43  CG2       17.9280   -6.7310  -21.5640 C.3    79  ILE79       0.0019
     44  CD1       18.8710   -4.6180  -24.6830 C.3    79  ILE79       0.0001
     45  N         22.5210  -10.6370  -24.2950 N.3    81  LEU81      -0.1245
     46  CA        23.9500  -10.3420  -24.3500 C.3    81  LEU81       0.1561
     47  C         24.6000  -10.5770  -25.7200 C.2    81  LEU81       0.2260
     48  O         24.4860  -11.6650  -26.2750 O.2    81  LEU81      -0.2867
     49  CB        24.6840  -11.1580  -23.2770 C.3    81  LEU81       0.0270
     50  CG        24.4320  -10.7640  -21.8410 C.3    81  LEU81       0.0019
     51  CD1       25.3170  -11.5830  -20.9500 C.3    81  LEU81       0.0001
     52  CD2       24.7340   -9.2710  -21.6940 C.3    81  LEU81       0.0001
     53  N         29.1420   -5.5990  -19.6090 N.3    99  LEU99      -0.1245
     54  CA        28.0770   -6.2680  -20.3780 C.3    99  LEU99       0.1561
     55  C         27.8430   -5.5340  -21.6980 C.2    99  LEU99       0.2260
     56  O         27.8930   -4.2940  -21.7640 O.2    99  LEU99      -0.2867
     57  CB        26.7790   -6.3510  -19.5530 C.3    99  LEU99       0.0270
     58  CG        26.7430   -6.9840  -18.1450 C.3    99  LEU99       0.0019
     59  CD1       25.3610   -6.7630  -17.5240 C.3    99  LEU99       0.0001
     60  CD2       27.0970   -8.5150  -18.1270 C.3    99  LEU99       0.0001
     61  N         25.4190   -5.2110  -25.3110 N.3   101  THR101     -0.1203
     62  CA        24.2170   -5.4920  -26.0900 C.3   101  THR101      0.1994
     63  C         24.0260   -4.4580  -27.2020 C.2   101  THR101      0.2618
     64  O         24.6830   -3.4270  -27.2170 O.2   101  THR101     -0.2717
     65  CB        22.9520   -5.5610  -25.1630 C.3   101  THR101      0.1784
     66  OG1       21.8210   -6.0130  -25.9110 O.3   101  THR101     -0.2211
     67  CG2       22.6410   -4.1970  -24.5520 C.3   101  THR101      0.0376
     68  N         23.1250   -4.7420  -28.1320 N.am  102  HIS102     -0.1961
     69  CA        22.6920   -3.7960  -29.1840 C.3   102  HIS102      0.1787
     70  C         22.3710   -2.4360  -28.6280 C.2   102  HIS102      0.2620
     71  O         21.6910   -2.3360  -27.5980 O.2   102  HIS102     -0.2715
     72  CB        21.4080   -4.3010  -29.8410 C.3   102  HIS102      0.0785
     73  CG        21.5840   -5.5620  -30.6160 C.ar  102  HIS102      0.0821
     74  ND1       22.3410   -5.6240  -31.7690 N.ar  102  HIS102     -0.2267
     75  CD2       21.0970   -6.8120  -30.4130 C.ar  102  HIS102      0.1154
     76  CE1       22.3190   -6.8630  -32.2410 C.ar  102  HIS102      0.1986
     77  NE2       21.5720   -7.6020  -31.4370 N.ar  102  HIS102     -0.2212
     78  N         22.8420   -1.3840  -29.2990 N.am  103  LEU103     -0.1963
     79  CA        22.4210   -0.0250  -28.9440 C.3   103  LEU103      0.1728
     80  C         21.0740    0.1650  -29.5960 C.2   103  LEU103      0.2616
     81  O         20.9310    0.0080  -30.8210 O.2   103  LEU103     -0.2715
     82  CB        23.4080    1.0170  -29.4580 C.3   103  LEU103      0.0311
     83  CG        23.2640    2.5200  -29.1180 C.3   103  LEU103      0.0022
     84  CD1       23.2900    2.8110  -27.6190 C.3   103  LEU103      0.0001
     85  CD2       24.3960    3.3000  -29.8110 C.3   103  LEU103      0.0001
     86  N         20.0640    0.4380  -28.7820 N.am  104  MET104     -0.1963
     87  CA        18.7390    0.7210  -29.3240 C.3   104  MET104      0.1736
     88  C         18.6080    2.2220  -29.5780 C.2   104  MET104      0.2617
     89  O         18.1320    2.6480  -30.6260 O.2   104  MET104     -0.2715
     90  CB        17.6560    0.1710  -28.4040 C.3   104  MET104      0.0427
     91  CG        17.7630   -1.3580  -28.2280 C.3   104  MET104      0.0599
     92  SD        17.4790   -2.2700  -29.7720 S.3   104  MET104     -0.1393
     93  CE        15.7670   -1.9050  -30.1000 C.3   104  MET104      0.0692
     94  N         19.0630    3.0130  -28.6230 N.am  105  GLY105     -0.1940
     95  CA        19.2800    4.4340  -28.8640 C.3   105  GLY105      0.2014
     96  C         18.2330    5.3210  -28.2360 C.2   105  GLY105      0.2639
     97  O         18.4870    6.4990  -27.9950 O.2   105  GLY105     -0.2714
     98  N         17.0780    4.7310  -27.9320 N.am  106  ALA106     -0.1963
     99  CA        15.9180    5.4210  -27.3930 C.3   106  ALA106      0.1728
    100  C         15.0980    4.4770  -26.4970 C.2   106  ALA106      0.2616
    101  O         15.1030    3.2550  -26.6870 O.2   106  ALA106     -0.2715
    102  CB        15.0540    5.8930  -28.5470 C.3   106  ALA106      0.0334
    103  N         14.3710    5.0410  -25.5350 N.am  107  ASP107     -0.1971
    104  CA        13.3220    4.2870  -24.8370 C.3   107  ASP107      0.1709
    105  C         11.9370    4.7930  -25.2460 C.2   107  ASP107      0.2293
    106  O         11.8290    5.6700  -26.0830 O.2   107  ASP107     -0.2864
    107  CB        13.5600    4.2520  -23.3240 C.3   107  ASP107      0.1436
    108  CG        13.5000    5.6200  -22.6840 C.2   107  ASP107      0.3671
    109  OD1       14.3340    5.8660  -21.7820 O.co2 107  ASP107     -0.2456
    110  OD2       12.6390    6.4480  -23.0760 O.co2 107  ASP107     -0.2456
    111  N         11.3170    8.8550  -25.7520 N.3   110  ASN110     -0.1240
    112  CA        12.0160    9.4730  -26.8940 C.3   110  ASN110      0.1653
    113  C         11.3250    9.1600  -28.2250 C.2   110  ASN110      0.2266
    114  O         11.2550   10.0170  -29.1170 O.2   110  ASN110     -0.2867
    115  CB        13.4840    9.0080  -26.9790 C.3   110  ASN110      0.1155
    116  CG        14.1610    8.8950  -25.6190 C.2   110  ASN110      0.2627
    117  OD1       14.7010    7.8440  -25.2780 O.2   110  ASN110     -0.2716
    118  ND2       14.1410    9.9830  -24.8400 N.am  110  ASN110     -0.0877
    119  N         13.3080   -0.4790  -24.6000 N.3   152  ALA152     -0.1245
    120  CA        14.2440    0.0910  -25.5720 C.3   152  ALA152      0.1562
    121  C         13.6840   -0.0010  -26.9830 C.2   152  ALA152      0.2260
    122  O         13.1580   -1.0440  -27.3920 O.2   152  ALA152     -0.2867
    123  CB        15.6060   -0.5710  -25.4790 C.3   152  ALA152      0.0290
    124  N         13.7480   -4.2110  -21.1840 N.3   162  LEU162     -0.1231
    125  CA        14.9820   -3.9960  -20.4210 C.3   162  LEU162      0.1693
    126  C         14.7890   -4.4760  -19.0170 C.2   162  LEU162      0.2592
    127  O         13.7140   -4.3210  -18.4510 O.2   162  LEU162     -0.2718
    128  CB        15.3310   -2.4990  -20.3520 C.3   162  LEU162      0.0284
    129  CG        15.5930   -1.7200  -21.6400 C.3   162  LEU162      0.0019
    130  CD1       15.9070   -0.2420  -21.3610 C.3   162  LEU162      0.0001
    131  CD2       16.7140   -2.3810  -22.4380 C.3   162  LEU162      0.0001
    132  N         15.8390   -5.0630  -18.4620 N.am  163  ASP163     -0.1960
    133  CA        15.8560   -5.4620  -17.0520 C.3   163  ASP163      0.1840
    134  C         15.7610   -4.2030  -16.2150 C.2   163  ASP163      0.2622
    135  O         14.8490   -4.0750  -15.3940 O.2   163  ASP163     -0.2715
    136  CB        17.1430   -6.2530  -16.6880 C.3   163  ASP163      0.1450
    137  CG        18.4470   -5.5320  -17.1170 C.2   163  ASP163      0.3671
    138  OD1       19.5050   -5.8080  -16.5170 O.co2 163  ASP163     -0.2456
    139  OD2       18.4250   -4.6980  -18.0470 O.co2 163  ASP163     -0.2456
    140  N         16.7220   -3.3020  -16.4460 N.am  164  PHE164     -0.1974
    141  CA        16.7760   -1.9770  -15.8550 C.3   164  PHE164      0.1639
    142  C         17.0610   -0.9350  -16.9220 C.2   164  PHE164      0.2290
    143  O         18.0030   -1.0790  -17.7210 O.2   164  PHE164     -0.2864
    144  CB        17.8660   -1.8930  -14.7940 C.3   164  PHE164      0.0560
    145  CG        17.7540   -2.9340  -13.7370 C.ar  164  PHE164     -0.0200
    146  CD1       16.8240   -2.7900  -12.7000 C.ar  164  PHE164     -0.0042
    147  CD2       18.5900   -4.0580  -13.7630 C.ar  164  PHE164     -0.0042
    148  CE1       16.7130   -3.7630  -11.7050 C.ar  164  PHE164     -0.0003
    149  CE2       18.4920   -5.0410  -12.7630 C.ar  164  PHE164     -0.0003
    150  CZ        17.5480   -4.8920  -11.7380 C.ar  164  PHE164     -0.0000
    151  N         17.5530    3.2580  -18.1860 N.3   166  LEU166     -0.1245
    152  CA        18.3700    4.4070  -17.8130 C.3   166  LEU166      0.1561
    153  C         17.5650    5.4310  -16.9890 C.2   166  LEU166      0.2260
    154  O         16.3220    5.4400  -17.0140 O.2   166  LEU166     -0.2867
    155  CB        18.9710    5.0670  -19.0660 C.3   166  LEU166      0.0270
    156  CG        19.8200    4.2400  -20.0420 C.3   166  LEU166      0.0019
    157  CD1       20.1380    5.0690  -21.2760 C.3   166  LEU166      0.0001
    158  CD2       21.1100    3.6920  -19.4140 C.3   166  LEU166      0.0001
@<TRIPOS>BOND
     1    76    74   ar
     2    76    77   ar
     3    74    73   ar
     4    77    75   ar
     5    81    80    2
     6    89    88    2
     7    73    75   ar
     8    73    72    1
     9    93    92    1
    10    72    69    1
    11    85    83    1
    12    92    91    1
    13    80    79    1
    14    80    86   am
    15    88    87    1
    16    88    94   am
    17    82    83    1
    18    82    79    1
    19    87    86    1
    20    87    90    1
    21    78    79    1
    22    78    70   am
    23    69    70    1
    24    69    68    1
    25    83    84    1
    26   114   113    2
    27    95    94    1
    28    95    96    1
    29    70    71    2
    30   102    99    1
    31    90    91    1
    32    96    97    2
    33    96    98   am
    34   113   112    1
    35    68    63   am
    36    98    99    1
    37    99   100    1
    38   122   121    2
    39    64    63    2
    40    63    62    1
    41   121   120    1
    42   115   112    1
    43   115   116    1
    44   112   111    1
    45    15    16    1
    46   101   100    2
    47   100   103   am
    48    48    47    2
    49    62    61    1
    50    62    65    1
    51   106   105    2
    52    66    65    1
    53    47    46    1
    54   116   117    2
    55   116   118   am
    56   120   123    1
    57   120   119    1
    58   103   104    1
    59    16    19    1
    60    16    17    1
    61   105   104    1
    62    65    67    1
    63   104   107    1
    64     6     5    1
    65    44    42    1
    66    18    17    2
    67    46    45    1
    68    46    49    1
    69    37    38    1
    70    38    39    1
    71    38    41    1
    72    39    40    2
    73    42    41    1
    74     5     7    1
    75     5     2    1
    76   107   108    1
    77    49    50    1
    78   110   108   ar
    79    41    43    1
    80   108   109   ar
    81   131   129    1
    82     2     1    1
    83     2     3    1
    84    50    52    1
    85    50    51    1
    86    56    55    2
    87    55    54    1
    88   129   130    1
    89   129   128    1
    90    13    12    1
    91    32    31    2
    92   157   156    1
    93   124   125    1
    94     4     3    2
    95    10    11    2
    96    10     9    1
    97    20    21    1
    98   125   128    1
    99   125   126    1
   100    54    53    1
   101    54    57    1
   102    31    30    1
   103    12     9    1
   104    12    14    1
   105   156   158    1
   106   156   155    1
   107     9     8    1
   108    36    34    1
   109    57    58    1
   110    30    33    1
   111    30    29    1
   112    33    34    1
   113    21    24    1
   114    21    22    1
   115    35    34    1
   116   155   152    1
   117   126   132   am
   118   126   127    2
   119    24    25    1
   120   132   133    1
   121    23    22    2
   122   151   152    1
   123    58    60    1
   124    58    59    1
   125   139   137   ar
   126   152   153    1
   127   143   142    2
   128    25    26    1
   129   137   136    1
   130   137   138   ar
   131    27    26    1
   132    27    28    1
   133   133   136    1
   134   133   134    1
   135   154   153    2
   136   142   141    1
   137   140   134   am
   138   140   141    1
   139   134   135    2
   140   141   144    1
   141   144   145    1
   142   147   145   ar
   143   147   149   ar
   144   145   146   ar
   145   149   150   ar
   146   146   148   ar
   147   150   148   ar
