@<TRIPOS>MOLECULE
tmp/3iw8A00.pdb
 180 168 0 0 0
SMALL
GASTEIGER

@<TRIPOS>ATOM
      1  N         25.2580   -1.4060    9.7690 N.3    30  TYR30      -0.1227
      2  CA        25.0590   -0.1820   10.5460 C.3    30  TYR30       0.1736
      3  C         26.1860    0.0890   11.5600 C.2    30  TYR30       0.2596
      4  O         26.7230    1.1980   11.5950 O.2    30  TYR30      -0.2718
      5  CB        23.6880   -0.1860   11.2330 C.3    30  TYR30       0.0548
      6  CG        22.5320    0.1220   10.2930 C.ar   30  TYR30      -0.0200
      7  CD1       22.5940    1.2070    9.4130 C.ar   30  TYR30      -0.0009
      8  CD2       21.3930   -0.6910   10.2560 C.ar   30  TYR30      -0.0009
      9  CE1       21.5540    1.4710    8.5130 C.ar   30  TYR30       0.0417
     10  CE2       20.3480   -0.4330    9.3550 C.ar   30  TYR30       0.0417
     11  CZ        20.4390    0.6480    8.4910 C.ar   30  TYR30       0.1957
     12  OH        19.4070    0.8960    7.6130 O.3    30  TYR30      -0.2866
     13  N         26.5320   -0.9150   12.3750 N.am   31  GLY31      -0.1957
     14  CA        27.6760   -0.8310   13.3050 C.3    31  GLY31       0.1869
     15  C         27.7210   -1.9470   14.3430 C.2    31  GLY31       0.2309
     16  O         26.6800   -2.5060   14.6950 O.2    31  GLY31      -0.2863
     17  N         28.5740   -3.4380   18.2840 N.3    33  VAL33      -0.1245
     18  CA        28.3630   -2.9750   19.6640 C.3    33  VAL33       0.1561
     19  C         29.0480   -3.8860   20.6970 C.2    33  VAL33       0.2260
     20  O         28.9840   -5.1180   20.5950 O.2    33  VAL33      -0.2867
     21  CB        26.8350   -2.8900   19.9810 C.3    33  VAL33       0.0252
     22  CG1       26.5770   -2.3810   21.3900 C.3    33  VAL33       0.0019
     23  CG2       26.1320   -2.0150   18.9800 C.3    33  VAL33       0.0019
     24  N         26.6340    0.6970   26.5410 N.3    46  ALA46      -0.1245
     25  CA        26.7540    0.1340   25.2220 C.3    46  ALA46       0.1562
     26  C         27.6140    1.1150   24.4220 C.2    46  ALA46       0.2260
     27  O         27.3240    2.3170   24.4030 O.2    46  ALA46      -0.2867
     28  CB        25.3540   -0.0190   24.5980 C.3    46  ALA46       0.0290
     29  N         28.9750    1.7690   20.6830 N.3    48  LYS48      -0.1245
     30  CA        28.7770    1.4180   19.2610 C.3    48  LYS48       0.1561
     31  C         29.8940    2.0380   18.4140 C.2    48  LYS48       0.2260
     32  O         30.0890    3.2710   18.4480 O.2    48  LYS48      -0.2867
     33  CB        27.4180    1.9050   18.7810 C.3    48  LYS48       0.0271
     34  CG        27.0410    1.5060   17.3600 C.3    48  LYS48       0.0035
     35  CD        25.6170    1.9210   17.1080 C.3    48  LYS48       0.0206
     36  CE        25.2100    1.6990   15.6750 C.3    48  LYS48       0.1093
     37  NZ        24.1720    2.6920   15.2330 N.3    48  LYS48      -0.1314
     38  N         23.2060   12.4810   10.4970 N.3    65  ARG65      -0.1231
     39  CA        21.8250   12.5130   10.9910 C.3    65  ARG65       0.1694
     40  C         21.7090   11.8010   12.3370 C.2    65  ARG65       0.2591
     41  O         21.0360   12.2950   13.2450 O.2    65  ARG65      -0.2718
     42  CB        20.8700   11.9100    9.9610 C.3    65  ARG65       0.0321
     43  CG        19.4680   11.5500   10.4800 C.3    65  ARG65       0.0489
     44  CD        18.6730   10.9240    9.3440 C.3    65  ARG65       0.2205
     45  NE        17.2610   10.7330    9.6700 N.pl3  65  ARG65      -0.0865
     46  CZ        16.7580    9.6890   10.3310 C.cat  65  ARG65       0.5346
     47  NH1       17.5470    8.7210   10.7820 N.pl3  65  ARG65       0.1354
     48  NH2       15.4520    9.6230   10.5510 N.pl3  65  ARG65       0.1354
     49  N         22.4070   10.6830   12.4690 N.am   66  GLU66      -0.1979
     50  CA        22.3090    9.8000   13.6480 C.3    66  GLU66       0.1602
     51  C         22.9470   10.4840   14.8420 C.2    66  GLU66       0.2287
     52  O         22.3770   10.5300   15.9220 O.2    66  GLU66      -0.2864
     53  CB        22.9950    8.4510   13.3560 C.3    66  GLU66       0.0415
     54  CG        23.4050    7.5960   14.6000 C.3    66  GLU66       0.1163
     55  CD        22.3250    6.6360   15.0880 C.2    66  GLU66       0.3649
     56  OE1       22.6980    5.5020   15.4920 O.co2  66  GLU66      -0.2457
     57  OE2       21.1170    6.9970   15.0820 O.co2  66  GLU66      -0.2457
     58  N         20.8160   13.7260   15.7840 N.3    69  LEU69      -0.1231
     59  CA        19.5950   13.2720   16.4390 C.3    69  LEU69       0.1693
     60  C         19.8430   12.8410   17.8850 C.2    69  LEU69       0.2591
     61  O         19.1580   13.2910   18.8060 O.2    69  LEU69      -0.2718
     62  CB        18.9940   12.1010   15.6470 C.3    69  LEU69       0.0284
     63  CG        17.5050   11.8080   15.6100 C.3    69  LEU69       0.0019
     64  CD1       16.6830   13.0820   15.5140 C.3    69  LEU69       0.0001
     65  CD2       17.1910   10.8420   14.3950 C.3    69  LEU69       0.0001
     66  N         20.8320   11.9770   18.0890 N.am   70  LEU70      -0.1980
     67  CA        21.1440   11.5110   19.4490 C.3    70  LEU70       0.1596
     68  C         21.6450   12.6040   20.3760 C.2    70  LEU70       0.2287
     69  O         21.3580   12.5780   21.5860 O.2    70  LEU70      -0.2864
     70  CB        22.1290   10.3410   19.4110 C.3    70  LEU70       0.0297
     71  CG        21.5490    8.9710   19.0130 C.3    70  LEU70       0.0022
     72  CD1       22.6800    7.9900   18.7190 C.3    70  LEU70       0.0001
     73  CD2       20.6280    8.4470   20.1130 C.3    70  LEU70       0.0001
     74  N         18.4580   14.6150   21.5670 N.3    73  MET73      -0.1245
     75  CA        17.4960   13.9190   22.4550 C.3    73  MET73       0.1570
     76  C         17.9250   13.9050   23.9260 C.2    73  MET73       0.2261
     77  O         18.8260   13.1430   24.3040 O.2    73  MET73      -0.2867
     78  CB        17.2630   12.4540   21.9890 C.3    73  MET73       0.0387
     79  CG        16.5630   12.2870   20.6370 C.3    73  MET73       0.0595
     80  SD        14.9800   13.1650   20.5850 S.3    73  MET73      -0.1393
     81  CE        15.3970   14.5620   19.5930 C.3    73  MET73       0.0692
     82  N         13.5760    8.7120   26.3400 N.3    78  VAL78      -0.1231
     83  CA        14.1660    8.6120   25.0080 C.3    78  VAL78       0.1692
     84  C         15.6300    8.2670   25.1530 C.2    78  VAL78       0.2591
     85  O         16.3150    8.8020   26.0380 O.2    78  VAL78      -0.2718
     86  CB        14.0110    9.9480   24.2010 C.3    78  VAL78       0.0266
     87  CG1       14.3890    9.7310   22.7170 C.3    78  VAL78       0.0020
     88  CG2       12.5590   10.4600   24.3430 C.3    78  VAL78       0.0020
     89  N         16.1450    7.4550   24.2380 N.am   79  ILE79      -0.1980
     90  CA        17.5850    7.1750   24.2400 C.3    79  ILE79       0.1595
     91  C         18.4080    8.4690   24.0500 C.2    79  ILE79       0.2287
     92  O         18.0450    9.3610   23.2520 O.2    79  ILE79      -0.2864
     93  CB        17.9470    6.1280   23.1700 C.3    79  ILE79       0.0276
     94  CG1       19.4190    5.7400   23.2620 C.3    79  ILE79       0.0022
     95  CG2       17.5720    6.6240   21.7610 C.3    79  ILE79       0.0022
     96  CD1       19.8380    4.7180   22.2300 C.3    79  ILE79       0.0001
     97  N         22.6820   10.2720   24.4900 N.3    81  LEU81      -0.1245
     98  CA        24.0920    9.9990   24.3550 C.3    81  LEU81       0.1561
     99  C         24.8030   10.2530   25.6580 C.2    81  LEU81       0.2260
    100  O         24.7800   11.3770   26.1810 O.2    81  LEU81      -0.2867
    101  CB        24.7100   10.8900   23.2810 C.3    81  LEU81       0.0270
    102  CG        24.7110   10.3450   21.8650 C.3    81  LEU81       0.0019
    103  CD1       25.3510   11.4170   20.9670 C.3    81  LEU81       0.0001
    104  CD2       25.4840    9.0660   21.8140 C.3    81  LEU81       0.0001
    105  N         29.7980    5.8100   19.6490 N.3    99  LEU99      -0.1245
    106  CA        28.6960    6.4040   20.3770 C.3    99  LEU99       0.1561
    107  C         28.4930    5.5920   21.6530 C.2    99  LEU99       0.2260
    108  O         28.6050    4.3690   21.6300 O.2    99  LEU99      -0.2867
    109  CB        27.4370    6.3290   19.5260 C.3    99  LEU99       0.0270
    110  CG        27.5580    6.8080   18.0820 C.3    99  LEU99       0.0019
    111  CD1       26.2210    6.6500   17.3860 C.3    99  LEU99       0.0001
    112  CD2       28.0110    8.2230   18.0810 C.3    99  LEU99       0.0001
    113  N         25.9880    4.8970   25.0960 N.3   101  THR101     -0.1218
    114  CA        24.6880    5.0740   25.7190 C.3   101  THR101      0.1862
    115  C         24.5440    4.1010   26.9100 C.2   101  THR101      0.2287
    116  O         25.3830    3.2560   27.0890 O.2   101  THR101     -0.2866
    117  CB        23.5720    4.8530   24.6810 C.3   101  THR101      0.1770
    118  OG1       22.3800    5.4790   25.1600 O.3   101  THR101     -0.2211
    119  CG2       23.3540    3.3210   24.4140 C.3   101  THR101      0.0375
    120  N          9.4830   13.8390   21.6560 N.3   136  ILE136     -0.1245
    121  CA         9.8970   13.6270   20.2650 C.3   136  ILE136      0.1561
    122  C          9.0390   14.4470   19.2970 C.2   136  ILE136      0.2260
    123  O          9.5860   15.1570   18.4440 O.2   136  ILE136     -0.2867
    124  CB         9.8840   12.0930   19.8970 C.3   136  ILE136      0.0252
    125  CG1       10.9290   11.3730   20.7440 C.3   136  ILE136      0.0019
    126  CG2       10.1880   11.8630   18.4100 C.3   136  ILE136      0.0019
    127  CD1       10.9690    9.8440   20.5600 C.3   136  ILE136      0.0001
    128  N          9.5490   15.6730   15.0910 N.3   141  ILE141     -0.1245
    129  CA        10.0700   14.3830   14.6080 C.3   141  ILE141      0.1561
    130  C          8.9640   13.3070   14.7020 C.2   141  ILE141      0.2260
    131  O          8.2300   13.2870   15.6750 O.2   141  ILE141     -0.2867
    132  CB        11.3150   13.9300   15.4670 C.3   141  ILE141      0.0252
    133  CG1       12.4740   14.8950   15.2380 C.3   141  ILE141      0.0019
    134  CG2       11.7170   12.4420   15.1910 C.3   141  ILE141      0.0019
    135  CD1       13.4910   14.9990   16.3530 C.3   141  ILE141      0.0001
    136  N          8.4570    9.2020   14.7850 N.3   143  HIS143     -0.1241
    137  CA         9.3060    8.0130   14.9140 C.3   143  HIS143      0.1621
    138  C          9.0660    7.0990   13.6890 C.2   143  HIS143      0.2264
    139  O         10.0240    6.7380   12.9890 O.2   143  HIS143     -0.2867
    140  CB         9.0730    7.3170   16.2510 C.3   143  HIS143      0.0745
    141  CG         9.9580    6.1440   16.4920 C.ar  143  HIS143      0.0817
    142  ND1       10.8990    6.1300   17.4960 N.ar  143  HIS143     -0.2268
    143  CD2       10.0610    4.9540   15.8570 C.ar  143  HIS143      0.1154
    144  CE1       11.5220    4.9660   17.4870 C.ar  143  HIS143      0.1986
    145  NE2       11.0470    4.2430   16.4920 N.ar  143  HIS143     -0.2212
    146  N         12.3940    4.9870   24.5800 N.3   161  ILE161     -0.1231
    147  CA        12.2450    4.8670   23.1420 C.3   161  ILE161      0.1692
    148  C         13.6030    4.9640   22.4220 C.2   161  ILE161      0.2592
    149  O         14.4160    5.8730   22.6940 O.2   161  ILE161     -0.2718
    150  CB        11.3190    5.9740   22.5950 C.3   161  ILE161      0.0266
    151  CG1        9.9560    5.9650   23.3340 C.3   161  ILE161      0.0019
    152  CG2       11.1580    5.8240   21.0830 C.3   161  ILE161      0.0020
    153  CD1        9.0140    7.2030   23.0130 C.3   161  ILE161      0.0001
    154  N         13.7910    4.0350   21.4890 N.am  162  LEU162     -0.1966
    155  CA        15.0200    3.8170   20.7010 C.3   162  LEU162      0.1728
    156  C         14.6150    3.7750   19.2200 C.2   162  LEU162      0.2616
    157  O         13.4320    3.7380   18.9010 O.2   162  LEU162     -0.2715
    158  CB        15.6080    2.4210   21.0210 C.3   162  LEU162      0.0311
    159  CG        15.6090    1.7260   22.3970 C.3   162  LEU162      0.0022
    160  CD1       15.5580    0.1780   22.2690 C.3   162  LEU162      0.0001
    161  CD2       16.8120    2.1230   23.2310 C.3   162  LEU162      0.0001
    162  N         15.5900    3.7260   18.3170 N.am  163  ASP163     -0.1957
    163  CA        15.3110    3.4010   16.9080 C.3   163  ASP163      0.1840
    164  C         16.4640    2.5850   16.3370 C.2   163  ASP163      0.2622
    165  O         17.4800    3.1400   15.9080 O.2   163  ASP163     -0.2715
    166  CB        15.0580    4.6630   16.0750 C.3   163  ASP163      0.1450
    167  CG        14.5140    4.3660   14.6640 C.2   163  ASP163      0.3671
    168  OD1       14.4230    5.3330   13.8700 O.co2 163  ASP163     -0.2456
    169  OD2       14.1640    3.1970   14.3300 O.co2 163  ASP163     -0.2456
    170  N         16.2890    1.2640   16.3420 N.am  164  PHE164     -0.1974
    171  CA        17.2640    0.3210   15.7870 C.3   164  PHE164      0.1639
    172  C         17.3610    0.3980   14.2590 C.2   164  PHE164      0.2290
    173  O         18.4100    0.0790   13.6690 O.2   164  PHE164     -0.2864
    174  CB        16.8670   -1.1010   16.1720 C.3   164  PHE164      0.0560
    175  CG        17.5570   -1.6210   17.3920 C.ar  164  PHE164     -0.0200
    176  CD1       18.8280   -2.2020   17.2960 C.ar  164  PHE164     -0.0042
    177  CD2       16.9390   -1.5630   18.6330 C.ar  164  PHE164     -0.0042
    178  CE1       19.4670   -2.7100   18.4220 C.ar  164  PHE164     -0.0003
    179  CE2       17.5700   -2.0700   19.7650 C.ar  164  PHE164     -0.0003
    180  CZ        18.8320   -2.6390   19.6690 C.ar  164  PHE164     -0.0000
@<TRIPOS>BOND
     1    12    11    1
     2    11     9   ar
     3    11    10   ar
     4     9     7   ar
     5    44    45    1
     6    44    43    1
     7    10     8   ar
     8     7     6   ar
     9    45    46    2
    10     1     2    1
    11    42    43    1
    12    42    39    1
    13     8     6   ar
    14     6     5    1
    15    46    48    1
    16    46    47    1
    17    38    39    1
    18     2     5    1
    19     2     3    1
    20    39    40    1
    21     3     4    2
    22     3    13   am
    23    40    49   am
    24    40    41    2
    25    13    14    1
    26    49    50    1
    27   139   138    2
    28    14    15    1
    29    53    50    1
    30    53    54    1
    31    50    51    1
    32   173   172    2
    33   138   137    1
    34   168   167   ar
    35   172   171    1
    36   169   167   ar
    37    15    16    2
    38    65    63    1
    39    54    55    1
    40   129   130    1
    41   129   128    1
    42   129   132    1
    43   167   166    1
    44   130   131    2
    45   136   137    1
    46    51    52    2
    47   137   140    1
    48    57    55   ar
    49    55    56   ar
    50   134   132    1
    51    37    36    1
    52   133   132    1
    53   133   135    1
    54    64    63    1
    55    63    62    1
    56    62    59    1
    57    36    35    1
    58    58    59    1
    59   171   174    1
    60   171   170    1
    61   143   145   ar
    62   143   141   ar
    63   165   164    2
    64   166   163    1
    65   174   175    1
    66   140   141    1
    67   164   170   am
    68   164   163    1
    69    59    60    1
    70   145   144   ar
    71   141   142   ar
    72   163   162    1
    73    35    34    1
    74   176   175   ar
    75   176   178   ar
    76    34    33    1
    77   111   110    1
    78   175   177   ar
    79   144   142   ar
    80    60    66   am
    81    60    61    2
    82   112   110    1
    83   110   109    1
    84    66    67    1
    85    17    18    1
    86   162   156   am
    87   126   124    1
    88    31    32    2
    89    31    30    1
    90   178   180   ar
    91   123   122    2
    92   177   179   ar
    93    72    71    1
    94    33    30    1
    95   157   156    2
    96    23    21    1
    97    71    70    1
    98    71    73    1
    99   156   155    1
   100    30    29    1
   101   122   121    1
   102    70    67    1
   103    67    68    1
   104   109   106    1
   105    81    80    1
   106   105   106    1
   107    18    21    1
   108    18    19    1
   109   180   179   ar
   110   124   121    1
   111   124   125    1
   112    21    22    1
   113   121   120    1
   114    68    69    2
   115   106   107    1
   116   127   125    1
   117    80    79    1
   118    20    19    2
   119    79    78    1
   120   155   158    1
   121   155   154    1
   122   103   102    1
   123   158   159    1
   124   152   150    1
   125   154   148   am
   126    74    75    1
   127   108   107    2
   128    95    93    1
   129   104   102    1
   130   102   101    1
   131    78    75    1
   132    96    94    1
   133   160   159    1
   134   159   161    1
   135   148   149    2
   136   148   147    1
   137    75    76    1
   138   150   147    1
   139   150   151    1
   140    87    86    1
   141   153   151    1
   142   147   146    1
   143    93    94    1
   144    93    90    1
   145    92    91    2
   146   101    98    1
   147    76    77    2
   148    91    90    1
   149    86    88    1
   150    86    83    1
   151    89    90    1
   152    89    84   am
   153    98    97    1
   154    98    99    1
   155    27    26    2
   156   119   117    1
   157    26    25    1
   158    28    25    1
   159   117   118    1
   160   117   114    1
   161    83    84    1
   162    83    82    1
   163   113   114    1
   164    84    85    2
   165    25    24    1
   166    99   100    2
   167   114   115    1
   168   115   116    2
