@<TRIPOS>MOLECULE
tmp/3iwjB00.pdb
 167 165 0 0 0
SMALL
GASTEIGER

@<TRIPOS>ATOM
      1  N          8.1420    5.6980   20.7540 N.3   155  ILE155     -0.1231
      2  CA         7.7370    6.7780   21.6410 C.3   155  ILE155      0.1692
      3  C          6.5910    6.3280   22.5310 C.2   155  ILE155      0.2593
      4  O          5.5090    6.0070   22.0440 O.2   155  ILE155     -0.2718
      5  CB         7.3680    8.0580   20.8550 C.3   155  ILE155      0.0266
      6  CG1        8.5570    8.5230   20.0100 C.3   155  ILE155      0.0019
      7  CG2        6.9540    9.1440   21.8120 C.3   155  ILE155      0.0020
      8  CD1        8.2430    9.6310   19.0260 C.3   155  ILE155      0.0001
      9  N          6.8350    6.3080   23.8380 N.am  156  THR156     -0.1940
     10  CA         5.9570    5.5980   24.7660 C.3   156  THR156      0.2013
     11  C          5.4420    6.4670   25.9230 C.2   156  THR156      0.2484
     12  O          6.0270    7.5150   26.2130 O.2   156  THR156     -0.2729
     13  CB         6.6380    4.3220   25.3250 C.3   156  THR156      0.1807
     14  OG1        7.8170    4.6860   26.0540 O.3   156  THR156     -0.2208
     15  CG2        7.0130    3.3650   24.2050 C.3   156  THR156      0.0379
     16  N          4.3370    6.0300   26.5680 N.am  157  PRO157     -0.2715
     17  CA         3.6640    6.7370   27.6500 C.3   157  PRO157      0.1536
     18  C          4.0840    6.2590   29.0470 C.2   157  PRO157      0.2598
     19  O          4.8390    5.2850   29.1760 O.2   157  PRO157     -0.2715
     20  CB         2.1950    6.3870   27.4010 C.3   157  PRO157      0.0310
     21  CG         2.2590    4.9400   26.9660 C.3   157  PRO157      0.0237
     22  CD         3.5920    4.7990   26.2100 C.3   157  PRO157      0.0939
     23  N          3.5560    6.9190   30.0740 N.am  158  TRP158     -0.1974
     24  CA         3.9880    6.7170   31.4650 C.3   158  TRP158      0.1640
     25  C          3.1310    5.7700   32.3010 C.2   158  TRP158      0.2290
     26  O          3.5320    5.4040   33.4080 O.2   158  TRP158     -0.2864
     27  CB         4.0500    8.0660   32.1920 C.3   158  TRP158      0.0576
     28  CG         2.8280    8.8960   31.9290 C.ar  158  TRP158      0.0006
     29  CD1        2.7240    9.9330   31.0550 C.ar  158  TRP158      0.0946
     30  CD2        1.5260    8.7280   32.5140 C.ar  158  TRP158      0.0152
     31  NE1        1.4450   10.4320   31.0660 N.ar  158  TRP158     -0.2442
     32  CE2        0.6890    9.7140   31.9520 C.ar  158  TRP158      0.0810
     33  CE3        0.9910    7.8480   33.4640 C.ar  158  TRP158      0.0012
     34  CZ2       -0.6530    9.8480   32.3070 C.ar  158  TRP158      0.0191
     35  CZ3       -0.3470    7.9700   33.8050 C.ar  158  TRP158      0.0001
     36  CH2       -1.1520    8.9720   33.2340 C.ar  158  TRP158      0.0015
     37  N         12.1690    6.5350   23.2000 N.3   182  LYS182     -0.1231
     38  CA        11.9510    7.8280   23.8070 C.3   182  LYS182      0.1678
     39  C         10.8030    7.6850   24.8050 C.2   182  LYS182      0.2434
     40  O          9.6330    7.8110   24.4440 O.2   182  LYS182     -0.2733
     41  CB        11.6240    8.8640   22.7370 C.3   182  LYS182      0.0284
     42  CG        12.0140   10.3120   23.0670 C.3   182  LYS182      0.0035
     43  CD        11.4820   10.8250   24.4030 C.3   182  LYS182      0.0206
     44  CE        10.0410   11.2990   24.3090 C.3   182  LYS182      0.1093
     45  NZ         9.5550   11.7950   25.6220 N.3   182  LYS182     -0.1314
     46  N         11.1340    7.4130   26.0770 N.am  183  PRO183     -0.2718
     47  CA        10.1280    7.1810   27.1120 C.3   183  PRO183      0.1535
     48  C          9.5080    8.4930   27.5580 C.2   183  PRO183      0.2599
     49  O         10.0390    9.5610   27.2490 O.2   183  PRO183     -0.2715
     50  CB        10.9450    6.5690   28.2630 C.3   183  PRO183      0.0310
     51  CG        12.3470    6.3500   27.7050 C.3   183  PRO183      0.0237
     52  CD        12.4970    7.3420   26.6280 C.3   183  PRO183      0.0939
     53  N          8.3960    8.4100   28.2730 N.am  184  SER184     -0.1936
     54  CA         7.7520    9.5930   28.8150 C.3   184  SER184      0.2055
     55  C          8.6510   10.2960   29.8310 C.2   184  SER184      0.2643
     56  O          9.2950    9.6470   30.6690 O.2   184  SER184     -0.2714
     57  CB         6.4270    9.2220   29.4730 C.3   184  SER184      0.2130
     58  OG         5.8140   10.3690   30.0350 O.3   184  SER184     -0.2179
     59  N          8.6750   11.6240   29.7550 N.am  185  GLU185     -0.1963
     60  CA         9.4160   12.4470   30.7070 C.3   185  GLU185      0.1733
     61  C          8.8360   12.3610   32.1260 C.2   185  GLU185      0.2616
     62  O          9.5260   12.6410   33.1000 O.2   185  GLU185     -0.2715
     63  CB         9.5070   13.9060   30.2240 C.3   185  GLU185      0.0429
     64  CG         8.1700   14.6290   30.0640 C.3   185  GLU185      0.1163
     65  CD         7.5770   14.5020   28.6650 C.2   185  GLU185      0.3649
     66  OE1        7.2300   15.5410   28.0810 O.co2 185  GLU185     -0.2457
     67  OE2        7.4580   13.3780   28.1380 O.co2 185  GLU185     -0.2457
     68  N          7.5800   11.9430   32.2340 N.am  186  LEU186     -0.1977
     69  CA         6.9440   11.7560   33.5340 C.3   186  LEU186      0.1596
     70  C          7.3440   10.4450   34.2170 C.2   186  LEU186      0.2287
     71  O          7.0880   10.2670   35.4080 O.2   186  LEU186     -0.2864
     72  CB         5.4130   11.8230   33.4160 C.3   186  LEU186      0.0297
     73  CG         4.7380   13.0980   32.9020 C.3   186  LEU186      0.0022
     74  CD1        3.2370   13.0110   33.1630 C.3   186  LEU186      0.0001
     75  CD2        5.3190   14.3760   33.5290 C.3   186  LEU186      0.0001
     76  N          8.8170   15.6650   24.9390 N.3   215  GLY215     -0.1210
     77  CA         8.2250   15.1920   23.6860 C.3   215  GLY215      0.1940
     78  C          8.6390   15.9650   22.4460 C.2   215  GLY215      0.2453
     79  O          9.1890   15.3810   21.5170 O.2   215  GLY215     -0.2732
     80  N          8.3880   17.2910   22.4240 N.am  216  PRO216     -0.2728
     81  CA         8.7770   18.0970   21.2610 C.3   216  PRO216      0.1401
     82  C         10.2890   18.1660   21.0320 C.2   216  PRO216      0.2269
     83  O         10.7280   18.3420   19.8930 O.2   216  PRO216     -0.2865
     84  CB         8.2170   19.4840   21.5890 C.3   216  PRO216      0.0296
     85  CG         7.0900   19.2240   22.5570 C.3   216  PRO216      0.0237
     86  CD         7.5770   18.0650   23.3830 C.3   216  PRO216      0.0939
     87  N         11.2080   13.5220   21.1730 N.3   219  GLY219     -0.1210
     88  CA        10.3230   12.6620   20.3920 C.3   219  GLY219      0.1956
     89  C         10.1620   13.1770   18.9770 C.2   219  GLY219      0.2611
     90  O         10.4070   12.4570   18.0160 O.2   219  GLY219     -0.2717
     91  N          9.7700   14.4450   18.8630 N.am  220  ALA220     -0.1979
     92  CA         9.4680   15.0800   17.5800 C.3   220  ALA220      0.1597
     93  C         10.5020   14.8310   16.4790 C.2   220  ALA220      0.2287
     94  O         10.1140   14.5090   15.3530 O.2   220  ALA220     -0.2864
     95  CB         9.2110   16.5820   17.7640 C.3   220  ALA220      0.0319
     96  N          4.2680    4.5280   18.0910 N.3   233  PHE233     -0.1227
     97  CA         3.8170    5.4380   19.1250 C.3   233  PHE233      0.1736
     98  C          2.6100    4.9450   19.9180 C.2   233  PHE233      0.2596
     99  O          1.6410    4.4350   19.3500 O.2   233  PHE233     -0.2718
    100  CB         3.4980    6.8050   18.5050 C.3   233  PHE233      0.0547
    101  CG         2.8070    7.7480   19.4440 C.ar  233  PHE233     -0.0202
    102  CD1        3.5460    8.5490   20.3090 C.ar  233  PHE233     -0.0042
    103  CD2        1.4180    7.8200   19.4780 C.ar  233  PHE233     -0.0042
    104  CE1        2.9200    9.4200   21.1830 C.ar  233  PHE233     -0.0003
    105  CE2        0.7750    8.6860   20.3460 C.ar  233  PHE233     -0.0003
    106  CZ         1.5300    9.4920   21.2030 C.ar  233  PHE233     -0.0000
    107  N          2.6880    5.1110   21.2370 N.am  234  THR234     -0.1939
    108  CA         1.5450    4.9520   22.1250 C.3   234  THR234      0.2028
    109  C          1.4310    6.2080   22.9920 C.2   234  THR234      0.2643
    110  O          2.4290    6.6670   23.5610 O.2   234  THR234     -0.2714
    111  CB         1.6880    3.7150   23.0280 C.3   234  THR234      0.1808
    112  OG1        1.8690    2.5570   22.2150 O.3   234  THR234     -0.2208
    113  CG2        0.4310    3.5190   23.9110 C.3   234  THR234      0.0379
    114  N          0.2180    6.7510   23.0830 N.am  235  GLY235     -0.1939
    115  CA        -0.0650    7.9230   23.9030 C.3   235  GLY235      0.2014
    116  C         -1.3510    8.5910   23.4640 C.2   235  GLY235      0.2639
    117  O         -2.2370    7.9300   22.9230 O.2   235  GLY235     -0.2714
    118  N         -1.4450    9.9030   23.6750 N.am  236  SER236     -0.1949
    119  CA        -2.6610   10.6380   23.3480 C.3   236  SER236      0.1924
    120  C         -2.9150   10.7270   21.8440 C.2   236  SER236      0.2314
    121  O         -1.9720   10.7490   21.0390 O.2   236  SER236     -0.2863
    122  CB        -2.6340   12.0420   23.9490 C.3   236  SER236      0.2116
    123  OG        -1.6120   12.8200   23.3580 O.3   236  SER236     -0.2180
    124  N         -1.2160   13.8490   20.4030 N.3   239  THR239     -0.1218
    125  CA         0.2080   13.7160   20.0880 C.3   239  THR239      0.1862
    126  C          0.3950   12.8040   18.8770 C.2   239  THR239      0.2287
    127  O          1.2890   13.0320   18.0600 O.2   239  THR239     -0.2866
    128  CB         1.0260   13.2190   21.2920 C.3   239  THR239      0.1770
    129  OG1        0.8650   14.1360   22.3770 O.3   239  THR239     -0.2211
    130  CG2        2.5010   13.1230   20.9530 C.3   239  THR239      0.0375
    131  N          0.0630   14.8160   15.7050 N.3   242  LYS242     -0.1231
    132  CA         1.2270   15.6670   15.4570 C.3   242  LYS242      0.1693
    133  C          2.3700   14.8650   14.8590 C.2   242  LYS242      0.2591
    134  O          3.0090   15.2920   13.9000 O.2   242  LYS242     -0.2718
    135  CB         1.6750   16.3750   16.7460 C.3   242  LYS242      0.0285
    136  CG         0.7270   17.4890   17.2100 C.3   242  LYS242      0.0035
    137  CD         1.2650   18.2630   18.4290 C.3   242  LYS242      0.0206
    138  CE         2.4980   19.1140   18.0810 C.3   242  LYS242      0.1093
    139  NZ         2.2260   20.1940   17.0670 N.3   242  LYS242     -0.1314
    140  N          2.6100   13.6940   15.4310 N.am  243  ILE243     -0.1980
    141  CA         3.6440   12.7950   14.9340 C.3   243  ILE243      0.1595
    142  C          3.3060   12.2910   13.5240 C.2   243  ILE243      0.2287
    143  O          4.1810   12.2610   12.6520 O.2   243  ILE243     -0.2864
    144  CB         3.8930   11.6270   15.9070 C.3   243  ILE243      0.0276
    145  CG1        4.4100   12.1720   17.2440 C.3   243  ILE243      0.0022
    146  CG2        4.8790   10.6120   15.3010 C.3   243  ILE243      0.0022
    147  CD1        4.4850   11.1550   18.3570 C.3   243  ILE243      0.0001
    148  N         -2.3060   16.2920   35.6970 N.3   338  GLN338     -0.1245
    149  CA        -3.3590   15.2950   35.5400 C.3   338  GLN338      0.1566
    150  C         -4.3470   15.3310   36.7000 C.2   338  GLN338      0.2260
    151  O         -5.5620   15.2880   36.4910 O.2   338  GLN338     -0.2867
    152  CB        -2.7430   13.8990   35.4020 C.3   338  GLN338      0.0367
    153  CG        -1.9470   13.7100   34.1220 C.3   338  GLN338      0.0905
    154  CD        -2.8310   13.7670   32.8920 C.2   338  GLN338      0.2608
    155  OE1       -3.6180   12.8520   32.6350 O.2   338  GLN338     -0.2717
    156  NE2       -2.7170   14.8490   32.1300 N.am  338  GLN338     -0.0878
    157  N         -8.9980    9.5450   32.0340 N.3   392  PHE392     -0.1241
    158  CA        -7.6830    8.9710   32.3810 C.3   392  PHE392      0.1605
    159  C         -7.3920    9.1010   33.8790 C.2   392  PHE392      0.2264
    160  O         -6.2670    9.3990   34.2900 O.2   392  PHE392     -0.2867
    161  CB        -6.5580    9.5860   31.5280 C.3   392  PHE392      0.0534
    162  CG        -5.5570    8.5810   31.0120 C.ar  392  PHE392     -0.0203
    163  CD1       -5.9490    7.5720   30.1240 C.ar  392  PHE392     -0.0042
    164  CD2       -4.2190    8.6590   31.3830 C.ar  392  PHE392     -0.0042
    165  CE1       -5.0260    6.6510   29.6320 C.ar  392  PHE392     -0.0003
    166  CE2       -3.2860    7.7460   30.8880 C.ar  392  PHE392     -0.0003
    167  CZ        -3.6890    6.7410   30.0160 C.ar  392  PHE392     -0.0000
@<TRIPOS>BOND
     1   143   142    2
     2   142   141    1
     3   134   133    2
     4   133   140   am
     5   133   132    1
     6   141   140    1
     7   141   144    1
     8   146   144    1
     9    94    93    2
    10   132   131    1
    11   132   135    1
    12   144   145    1
    13    93    92    1
    14   135   136    1
    15   139   138    1
    16   136   137    1
    17   145   147    1
    18    92    95    1
    19    92    91    1
    20    90    89    2
    21   127   126    2
    22   138   137    1
    23    96    97    1
    24   100    97    1
    25   100   101    1
    26    91    89   am
    27   126   125    1
    28    89    88    1
    29     8     6    1
    30    97    98    1
    31    99    98    2
    32   101   103   ar
    33   101   102   ar
    34   103   105   ar
    35    83    82    2
    36    98   107   am
    37     6     5    1
    38   125   124    1
    39   125   128    1
    40   102   104   ar
    41   105   106   ar
    42    88    87    1
    43     1     2    1
    44     5     2    1
    45     5     7    1
    46   130   128    1
    47    82    81    1
    48   121   120    2
    49   104   106   ar
    50   107   108    1
    51    81    84    1
    52    81    80    1
    53   128   129    1
    54    79    78    2
    55    84    85    1
    56     2     3    1
    57   120   119    1
    58     4     3    2
    59   108   109    1
    60   108   111    1
    61   112   111    1
    62    80    78   am
    63    80    86    1
    64    78    77    1
    65     3     9   am
    66    85    86    1
    67    41    42    1
    68    41    38    1
    69   117   116    2
    70   109   114   am
    71   109   110    2
    72   111   113    1
    73    42    43    1
    74   114   115    1
    75    37    38    1
    76   119   118    1
    77   119   122    1
    78   123   122    1
    79   116   118   am
    80   116   115    1
    81    77    76    1
    82    38    39    1
    83     9    10    1
    84    15    13    1
    85    44    43    1
    86    44    45    1
    87    40    39    2
    88    10    13    1
    89    10    11    1
    90    39    46   am
    91    13    14    1
    92    11    12    2
    93    11    16   am
    94    46    52    1
    95    46    47    1
    96    22    16    1
    97    22    21    1
    98    16    17    1
    99    52    51    1
   100    21    20    1
   101    47    48    1
   102    47    50    1
   103    49    48    2
   104    20    17    1
   105    48    53   am
   106    17    18    1
   107    51    50    1
   108    66    65   ar
   109    67    65   ar
   110    53    54    1
   111    65    64    1
   112    54    57    1
   113    54    55    1
   114    18    19    2
   115    18    23   am
   116    57    58    1
   117   165   167   ar
   118   165   163   ar
   119    59    55   am
   120    59    60    1
   121    55    56    2
   122   167   166   ar
   123    64    63    1
   124    23    24    1
   125   163   162   ar
   126    63    60    1
   127    60    61    1
   128   166   164   ar
   129   162   164   ar
   130   162   161    1
   131    29    31   ar
   132    29    28   ar
   133    31    32   ar
   134    24    27    1
   135    24    25    1
   136   161   158    1
   137    28    27    1
   138    28    30   ar
   139    32    34   ar
   140    32    30   ar
   141   157   158    1
   142    61    68   am
   143    61    62    2
   144   156   154   am
   145    68    69    1
   146    25    26    2
   147    34    36   ar
   148   158   159    1
   149    30    33   ar
   150   155   154    2
   151   154   153    1
   152    73    74    1
   153    73    72    1
   154    73    75    1
   155    36    35   ar
   156    72    69    1
   157    33    35   ar
   158    69    70    1
   159   159   160    2
   160   153   152    1
   161    70    71    2
   162   152   149    1
   163   149   148    1
   164   149   150    1
   165   151   150    2
