@<TRIPOS>MOLECULE
tmp/3iwkD01.pdb
 126 122 0 0 0
SMALL
GASTEIGER

@<TRIPOS>ATOM
      1  N         60.0880  -42.4500  114.4820 N.3   156  ASN156     -0.1225
      2  CA        61.1590  -42.1290  115.4240 C.3   156  ASN156      0.1785
      3  C         61.9320  -43.3360  115.9510 C.2   156  ASN156      0.2597
      4  O         63.1550  -43.2830  116.0730 O.2   156  ASN156     -0.2718
      5  CB        60.6440  -41.2440  116.5660 C.3   156  ASN156      0.1169
      6  CG        59.5890  -41.9270  117.4270 C.2   156  ASN156      0.2627
      7  OD1       58.7570  -42.7000  116.9420 O.2   156  ASN156     -0.2716
      8  ND2       59.6170  -41.6290  118.7160 N.am  156  ASN156     -0.0877
      9  N         61.2180  -44.4170  116.2570 N.am  157  TYR157     -0.1976
     10  CA        61.8520  -45.6960  116.5730 C.3   157  TYR157      0.1639
     11  C         61.2910  -46.7640  115.6340 C.2   157  TYR157      0.2290
     12  O         60.5390  -47.6370  116.0640 O.2   157  TYR157     -0.2864
     13  CB        61.6060  -46.0790  118.0360 C.3   157  TYR157      0.0560
     14  CG        62.3300  -45.2160  119.0410 C.ar  157  TYR157     -0.0198
     15  CD1       63.5730  -45.6040  119.5540 C.ar  157  TYR157     -0.0009
     16  CD2       61.7740  -44.0230  119.4900 C.ar  157  TYR157     -0.0009
     17  CE1       64.2480  -44.8170  120.4840 C.ar  157  TYR157      0.0417
     18  CE2       62.4430  -43.2230  120.4160 C.ar  157  TYR157      0.0417
     19  CZ        63.6740  -43.6270  120.9110 C.ar  157  TYR157      0.1957
     20  OH        64.3260  -42.8400  121.8360 O.3   157  TYR157     -0.2866
     21  N         61.7880  -50.6590  116.4790 N.3   160  LEU160     -0.1231
     22  CA        61.3870  -50.9540  117.8490 C.3   160  LEU160      0.1693
     23  C         59.8900  -50.7500  118.0980 C.2   160  LEU160      0.2591
     24  O         59.2640  -51.5610  118.7750 O.2   160  LEU160     -0.2718
     25  CB        62.2290  -50.1500  118.8510 C.3   160  LEU160      0.0284
     26  CG        62.0030  -50.4330  120.3430 C.3   160  LEU160      0.0019
     27  CD1       62.2260  -51.9040  120.6760 C.3   160  LEU160      0.0001
     28  CD2       62.8720  -49.5510  121.2150 C.3   160  LEU160      0.0001
     29  N         59.3260  -49.6700  117.5620 N.am  161  MET161     -0.1979
     30  CA        57.8940  -49.3960  117.7120 C.3   161  MET161      0.1605
     31  C         57.0470  -50.4390  116.9920 C.2   161  MET161      0.2287
     32  O         56.0200  -50.8760  117.5170 O.2   161  MET161     -0.2864
     33  CB        57.5270  -47.9910  117.2240 C.3   161  MET161      0.0413
     34  CG        57.9320  -46.8430  118.1500 C.3   161  MET161      0.0598
     35  SD        57.5520  -47.1340  119.8940 S.3   161  MET161     -0.1393
     36  CE        59.1550  -47.6560  120.5050 C.3   161  MET161      0.0692
     37  N         57.2840  -53.4700  119.2870 N.3   164  TRP164     -0.1241
     38  CA        56.4430  -53.3110  120.4770 C.3   164  TRP164      0.1605
     39  C         55.0180  -53.7850  120.2330 C.2   164  TRP164      0.2264
     40  O         54.3400  -54.2100  121.1640 O.2   164  TRP164     -0.2867
     41  CB        56.3890  -51.8490  120.9110 C.3   164  TRP164      0.0550
     42  CG        57.5430  -51.3940  121.7380 C.ar  164  TRP164      0.0003
     43  CD1       58.7630  -52.0070  121.8780 C.ar  164  TRP164      0.0946
     44  CD2       57.6040  -50.1990  122.5150 C.ar  164  TRP164      0.0152
     45  NE1       59.5670  -51.2730  122.7130 N.ar  164  TRP164     -0.2442
     46  CE2       58.8840  -50.1550  123.1150 C.ar  164  TRP164      0.0810
     47  CE3       56.6960  -49.1600  122.7700 C.ar  164  TRP164      0.0012
     48  CZ2       59.2830  -49.1100  123.9560 C.ar  164  TRP164      0.0191
     49  CZ3       57.0900  -48.1200  123.6070 C.ar  164  TRP164      0.0001
     50  CH2       58.3760  -48.1040  124.1900 C.ar  164  TRP164      0.0015
     51  N         50.5770  -45.6060  117.4350 N.3   231  THR231     -0.1218
     52  CA        51.5040  -44.6280  118.0060 C.3   231  THR231      0.1862
     53  C         51.7870  -43.5540  116.9560 C.2   231  THR231      0.2287
     54  O         52.1820  -43.8630  115.8330 O.2   231  THR231     -0.2866
     55  CB        52.8370  -45.2600  118.4700 C.3   231  THR231      0.1770
     56  OG1       52.5740  -46.4050  119.2880 O.3   231  THR231     -0.2211
     57  CG2       53.6570  -44.2570  119.2870 C.3   231  THR231      0.0375
     58  N         48.8090  -44.2710  121.7340 N.3   254  GLU254     -0.1245
     59  CA        49.9420  -43.6550  122.4050 C.3   254  GLU254      0.1567
     60  C         50.3000  -42.4410  121.5680 C.2   254  GLU254      0.2260
     61  O         50.8450  -42.5610  120.4720 O.2   254  GLU254     -0.2867
     62  CB        51.1120  -44.6310  122.5350 C.3   254  GLU254      0.0388
     63  CG        50.6980  -46.0110  123.0680 C.3   254  GLU254      0.1160
     64  CD        51.7880  -46.7080  123.8800 C.2   254  GLU254      0.3649
     65  OE1       51.4480  -47.2910  124.9370 O.co2 254  GLU254     -0.2457
     66  OE2       52.9760  -46.6750  123.4640 O.co2 254  GLU254     -0.2457
     67  N         67.8960  -36.8260  123.2210 N.3   282  PHE282     -0.1241
     68  CA        68.0400  -38.1910  122.7080 C.3   282  PHE282      0.1605
     69  C         67.1210  -38.3940  121.5030 C.2   282  PHE282      0.2264
     70  O         66.0490  -37.7920  121.4310 O.2   282  PHE282     -0.2867
     71  CB        67.7180  -39.1900  123.8200 C.3   282  PHE282      0.0534
     72  CG        68.1350  -40.6020  123.5240 C.ar  282  PHE282     -0.0203
     73  CD1       67.1780  -41.6090  123.4040 C.ar  282  PHE282     -0.0042
     74  CD2       69.4790  -40.9360  123.3850 C.ar  282  PHE282     -0.0042
     75  CE1       67.5530  -42.9270  123.1400 C.ar  282  PHE282     -0.0003
     76  CE2       69.8640  -42.2500  123.1250 C.ar  282  PHE282     -0.0003
     77  CZ        68.8970  -43.2470  122.9990 C.ar  282  PHE282     -0.0000
     78  N         61.1780  -37.7720  120.7390 N.3   287  ILE287     -0.1231
     79  CA        60.7000  -38.7900  121.6640 C.3   287  ILE287      0.1692
     80  C         59.2900  -38.4220  122.0910 C.2   287  ILE287      0.2592
     81  O         59.0290  -37.2730  122.4410 O.2   287  ILE287     -0.2718
     82  CB        61.5920  -38.8890  122.9300 C.3   287  ILE287      0.0266
     83  CG1       63.0400  -38.4890  122.6350 C.3   287  ILE287      0.0019
     84  CG2       61.5240  -40.2840  123.5280 C.3   287  ILE287      0.0020
     85  CD1       63.9090  -38.3600  123.8770 C.3   287  ILE287      0.0001
     86  N         58.3830  -39.3940  122.0480 N.am  288  CYS288     -0.1956
     87  CA        57.0150  -39.2070  122.5430 C.3   288  CYS288      0.1843
     88  C         57.0170  -38.7570  124.0030 C.2   288  CYS288      0.2626
     89  O         56.2660  -37.8610  124.3850 O.2   288  CYS288     -0.2714
     90  CB        56.1970  -40.5010  122.4020 C.3   288  CYS288      0.0997
     91  SG        55.4750  -40.8160  120.7610 S.3   288  CYS288     -0.0797
     92  N         57.8710  -39.3850  124.8070 N.am  289  SER289     -0.1950
     93  CA        57.9610  -39.0970  126.2370 C.3   289  SER289      0.1924
     94  C         59.0930  -38.1280  126.5860 C.2   289  SER289      0.2314
     95  O         59.5930  -38.1340  127.7140 O.2   289  SER289     -0.2863
     96  CB        58.1390  -40.3970  127.0190 C.3   289  SER289      0.2116
     97  OG        59.3740  -41.0110  126.6960 O.3   289  SER289     -0.2180
     98  N         63.6750  -41.2900  130.6840 N.3   445  GLN445     -0.1245
     99  CA        63.5830  -41.9720  129.3610 C.3   445  GLN445      0.1566
    100  C         63.6490  -43.5160  129.2560 C.2   445  GLN445      0.2260
    101  O         63.0560  -44.0660  128.3290 O.2   445  GLN445     -0.2867
    102  CB        64.4710  -41.3220  128.2790 C.3   445  GLN445      0.0367
    103  CG        64.1490  -39.8540  127.9640 C.3   445  GLN445      0.0905
    104  CD        62.6580  -39.5540  127.8850 C.2   445  GLN445      0.2608
    105  OE1       61.9170  -40.1990  127.1420 O.2   445  GLN445     -0.2717
    106  NE2       62.2160  -38.5560  128.6470 N.am  445  GLN445     -0.0878
    107  N         63.0290  -47.2530  128.8330 N.3   447  SER447     -0.1217
    108  CA        61.7930  -48.0180  128.6340 C.3   447  SER447      0.1889
    109  C         62.0210  -49.5290  128.6580 C.2   447  SER447      0.2288
    110  O         62.3570  -50.1430  127.6370 O.2   447  SER447     -0.2866
    111  CB        61.0870  -47.5970  127.3380 C.3   447  SER447      0.2089
    112  OG        61.9350  -47.7360  126.2130 O.3   447  SER447     -0.2183
    113  N         53.9860  -49.4260  129.4890 N.3   453  TRP453     -0.1241
    114  CA        54.2400  -48.1280  128.8760 C.3   453  TRP453      0.1605
    115  C         52.9660  -47.5590  128.2590 C.2   453  TRP453      0.2264
    116  O         52.2470  -48.2570  127.5500 O.2   453  TRP453     -0.2867
    117  CB        55.3240  -48.2600  127.8020 C.3   453  TRP453      0.0550
    118  CG        55.7110  -46.9600  127.1530 C.ar  453  TRP453      0.0003
    119  CD1       55.0670  -46.3260  126.1210 C.ar  453  TRP453      0.0946
    120  CD2       56.8400  -46.1440  127.4820 C.ar  453  TRP453      0.0152
    121  NE1       55.7230  -45.1610  125.7980 N.ar  453  TRP453     -0.2442
    122  CE2       56.8160  -45.0270  126.6150 C.ar  453  TRP453      0.0810
    123  CE3       57.8690  -46.2450  128.4290 C.ar  453  TRP453      0.0012
    124  CZ2       57.7810  -44.0140  126.6710 C.ar  453  TRP453      0.0191
    125  CZ3       58.8300  -45.2340  128.4830 C.ar  453  TRP453      0.0001
    126  CH2       58.7800  -44.1370  127.6050 C.ar  453  TRP453      0.0015
@<TRIPOS>BOND
     1     1     2    1
     2     2     3    1
     3     2     5    1
     4    11    12    2
     5    11    10    1
     6    54    53    2
     7     3     4    2
     8     3     9   am
     9     9    10    1
    10    21    22    1
    11     5     6    1
    12    10    13    1
    13     7     6    2
    14    53    52    1
    15    31    32    2
    16    31    30    1
    17    33    30    1
    18    33    34    1
    19     6     8   am
    20    51    52    1
    21    29    30    1
    22    29    23   am
    23    22    23    1
    24    22    25    1
    25    52    55    1
    26    13    14    1
    27    23    24    2
    28    34    35    1
    29    55    57    1
    30    55    56    1
    31    25    26    1
    32    14    16   ar
    33    14    15   ar
    34    37    38    1
    35    16    18   ar
    36    15    17   ar
    37    35    36    1
    38    39    38    1
    39    39    40    2
    40    26    27    1
    41    26    28    1
    42    18    19   ar
    43    61    60    2
    44    38    41    1
    45    17    19   ar
    46    78    79    1
    47    91    90    1
    48    41    42    1
    49    19    20    1
    50    70    69    2
    51    69    68    1
    52    60    59    1
    53    79    80    1
    54    79    82    1
    55    58    59    1
    56    42    43   ar
    57    42    44   ar
    58    43    45   ar
    59    86    80   am
    60    86    87    1
    61    80    81    2
    62    90    87    1
    63    59    62    1
    64    44    47   ar
    65    44    46   ar
    66    62    63    1
    67    87    88    1
    68    83    82    1
    69    83    85    1
    70    68    67    1
    71    68    71    1
    72    45    46   ar
    73    47    49   ar
    74    82    84    1
    75    77    76   ar
    76    77    75   ar
    77    63    64    1
    78    46    48   ar
    79    76    74   ar
    80    75    73   ar
    81    74    72   ar
    82    73    72   ar
    83    66    64   ar
    84    72    71    1
    85    49    50   ar
    86    64    65   ar
    87    48    50   ar
    88    88    89    2
    89    88    92   am
    90    92    93    1
    91   121   119   ar
    92   121   122   ar
    93   119   118   ar
    94   112   111    1
    95    93    94    1
    96    93    96    1
    97    94    95    2
    98   122   124   ar
    99   122   120   ar
   100   124   126   ar
   101    97    96    1
   102   105   104    2
   103   118   120   ar
   104   118   117    1
   105   111   108    1
   106   120   123   ar
   107   116   115    2
   108   126   125   ar
   109   110   109    2
   110   117   114    1
   111   104   103    1
   112   104   106   am
   113   103   102    1
   114   115   114    1
   115   102    99    1
   116   101   100    2
   117   123   125   ar
   118   108   109    1
   119   108   107    1
   120   114   113    1
   121   100    99    1
   122    99    98    1
