@<TRIPOS>MOLECULE
tmp/3iwkK00.pdb
 202 190 0 0 0
SMALL
GASTEIGER

@<TRIPOS>ATOM
      1  N         60.6490  -53.0170   -2.8650 N.3   152  ILE152     -0.1245
      2  CA        61.0140  -54.0970   -3.7950 C.3   152  ILE152      0.1561
      3  C         61.2690  -53.5360   -5.1950 C.2   152  ILE152      0.2260
      4  O         60.3590  -53.0210   -5.8530 O.2   152  ILE152     -0.2867
      5  CB        59.9450  -55.2230   -3.8230 C.3   152  ILE152      0.0252
      6  CG1       59.6820  -55.7420   -2.4040 C.3   152  ILE152      0.0019
      7  CG2       60.3760  -56.3750   -4.7460 C.3   152  ILE152      0.0019
      8  CD1       58.3960  -56.5180   -2.2580 C.3   152  ILE152      0.0001
      9  N         63.6250  -53.2140   -9.1480 N.3   154  PRO154     -0.2102
     10  CA        63.9940  -54.0150  -10.3130 C.3   154  PRO154      0.1504
     11  C         65.4650  -53.9160  -10.6990 C.2   154  PRO154      0.2576
     12  O         66.1780  -53.0390  -10.2250 O.2   154  PRO154     -0.2718
     13  CB        63.1300  -53.4130  -11.4210 C.3   154  PRO154      0.0282
     14  CG        63.0390  -51.9700  -11.0620 C.3   154  PRO154      0.0208
     15  CD        63.1790  -51.8660   -9.5470 C.3   154  PRO154      0.0893
     16  N         65.8830  -54.8020  -11.5950 N.am  155  TRP155     -0.1963
     17  CA        67.2760  -54.9110  -12.0230 C.3   155  TRP155      0.1771
     18  C         67.7060  -53.9480  -13.1420 C.2   155  TRP155      0.2619
     19  O         68.8970  -53.8340  -13.4250 O.2   155  TRP155     -0.2715
     20  CB        67.5640  -56.3610  -12.4400 C.3   155  TRP155      0.0590
     21  CG        66.5220  -56.9160  -13.3770 C.ar  155  TRP155      0.0006
     22  CD1       65.4680  -57.7290  -13.0510 C.ar  155  TRP155      0.0946
     23  CD2       66.4280  -56.6860  -14.7870 C.ar  155  TRP155      0.0152
     24  NE1       64.7300  -58.0210  -14.1720 N.ar  155  TRP155     -0.2442
     25  CE2       65.2960  -57.3940  -15.2510 C.ar  155  TRP155      0.0810
     26  CE3       67.1900  -55.9520  -15.7040 C.ar  155  TRP155      0.0012
     27  CZ2       64.9070  -57.3840  -16.5970 C.ar  155  TRP155      0.0191
     28  CZ3       66.8060  -55.9400  -17.0340 C.ar  155  TRP155      0.0001
     29  CH2       65.6780  -56.6520  -17.4710 C.ar  155  TRP155      0.0015
     30  N         66.7610  -53.2710  -13.7920 N.am  156  ASN156     -0.1972
     31  CA        67.1240  -52.4310  -14.9410 C.3   156  ASN156      0.1688
     32  C         67.8860  -51.1580  -14.5710 C.2   156  ASN156      0.2292
     33  O         68.7910  -50.7500  -15.2930 O.2   156  ASN156     -0.2864
     34  CB        65.9340  -52.1610  -15.8720 C.3   156  ASN156      0.1181
     35  CG        64.8370  -51.3230  -15.2250 C.2   156  ASN156      0.2629
     36  OD1       64.8260  -51.0970  -14.0110 O.2   156  ASN156     -0.2716
     37  ND2       63.8960  -50.8670  -16.0470 N.am  156  ASN156     -0.0877
     38  N         64.4300  -54.9850   -0.8330 N.3   179  LYS179     -0.1245
     39  CA        64.5640  -56.2880   -1.4570 C.3   179  LYS179      0.1561
     40  C         64.8650  -56.0550   -2.9360 C.2   179  LYS179      0.2260
     41  O         63.9430  -55.9760   -3.7420 O.2   179  LYS179     -0.2867
     42  CB        63.2640  -57.0910   -1.3010 C.3   179  LYS179      0.0271
     43  CG        63.4380  -58.6130   -1.2230 C.3   179  LYS179      0.0035
     44  CD        64.1840  -59.2200   -2.4150 C.3   179  LYS179      0.0206
     45  CE        63.2490  -59.5630   -3.5640 C.3   179  LYS179      0.1093
     46  NZ        63.9930  -60.1930   -4.7010 N.3   179  LYS179     -0.1314
     47  N         67.2500  -60.2520   -7.5620 N.3   182  GLU182     -0.1231
     48  CA        68.3010  -61.2750   -7.5180 C.3   182  GLU182      0.1699
     49  C         69.2520  -61.1970   -8.7070 C.2   182  GLU182      0.2592
     50  O         70.3590  -61.7300   -8.6540 O.2   182  GLU182     -0.2718
     51  CB        67.7060  -62.6950   -7.4020 C.3   182  GLU182      0.0402
     52  CG        66.6040  -63.0680   -8.4130 C.3   182  GLU182      0.1161
     53  CD        65.1890  -62.7310   -7.9230 C.2   182  GLU182      0.3649
     54  OE1       64.3290  -63.6460   -7.8930 O.co2 182  GLU182     -0.2457
     55  OE2       64.9330  -61.5550   -7.5660 O.co2 182  GLU182     -0.2457
     56  N         68.8220  -60.5270   -9.7730 N.am  183  LEU183     -0.1980
     57  CA        69.6490  -60.3900  -10.9650 C.3   183  LEU183      0.1596
     58  C         70.7370  -59.3400  -10.8080 C.2   183  LEU183      0.2287
     59  O         71.7900  -59.4550  -11.4310 O.2   183  LEU183     -0.2864
     60  CB        68.7950  -60.1080  -12.2090 C.3   183  LEU183      0.0297
     61  CG        67.9470  -61.2670  -12.7480 C.3   183  LEU183      0.0022
     62  CD1       67.1910  -60.8360  -13.9880 C.3   183  LEU183      0.0001
     63  CD2       68.7960  -62.5010  -13.0460 C.3   183  LEU183      0.0001
     64  N         62.7180  -63.8620   -5.5300 N.3   212  GLY212     -0.1210
     65  CA        61.4280  -63.1880   -5.4210 C.3   212  GLY212      0.1956
     66  C         60.4060  -64.0020   -4.6450 C.2   212  GLY212      0.2611
     67  O         59.7500  -63.4810   -3.7410 O.2   212  GLY212     -0.2717
     68  N         60.2840  -65.2860   -4.9830 N.am  213  HIS213     -0.1975
     69  CA        59.2760  -66.1500   -4.3670 C.3   213  HIS213      0.1656
     70  C         59.6200  -66.5600   -2.9290 C.2   213  HIS213      0.2291
     71  O         58.7490  -67.0280   -2.1920 O.2   213  HIS213     -0.2864
     72  CB        58.9780  -67.3720   -5.2520 C.3   213  HIS213      0.0771
     73  CG        60.0080  -68.4570   -5.1620 C.ar  213  HIS213      0.0820
     74  ND1       61.1160  -68.5040   -5.9820 N.ar  213  HIS213     -0.2267
     75  CD2       60.0910  -69.5420   -4.3550 C.ar  213  HIS213      0.1154
     76  CE1       61.8380  -69.5690   -5.6820 C.ar  213  HIS213      0.1986
     77  NE2       61.2410  -70.2140   -4.6960 N.ar  213  HIS213     -0.2212
     78  N         61.1930  -62.0390   -1.3200 N.3   216  GLY216     -0.1210
     79  CA        60.2130  -61.0490   -1.7710 C.3   216  GLY216      0.1956
     80  C         58.8090  -61.3150   -1.2530 C.2   216  GLY216      0.2611
     81  O         58.1540  -60.4090   -0.7370 O.2   216  GLY216     -0.2717
     82  N         58.3550  -62.5620   -1.3840 N.am  217  ALA217     -0.1979
     83  CA        57.0450  -62.9810   -0.8820 C.3   217  ALA217      0.1597
     84  C         56.9670  -62.9470    0.6450 C.2   217  ALA217      0.2287
     85  O         55.9220  -62.6190    1.2040 O.2   217  ALA217     -0.2864
     86  CB        56.6840  -64.3640   -1.4120 C.3   217  ALA217      0.0319
     87  N         56.5640  -59.0910    1.4910 N.3   220  ALA220     -0.1245
     88  CA        55.2280  -58.5940    1.1510 C.3   220  ALA220      0.1562
     89  C         54.1170  -59.0830    2.0910 C.2   220  ALA220      0.2260
     90  O         53.1690  -58.3390    2.3760 O.2   220  ALA220     -0.2867
     91  CB        54.8860  -58.9330   -0.2970 C.3   220  ALA220      0.0290
     92  N         58.2030  -53.4010  -10.9110 N.3   232  GLY232     -0.1210
     93  CA        58.4800  -54.6710  -11.5720 C.3   232  GLY232      0.1956
     94  C         57.3520  -55.1000  -12.4870 C.2   232  GLY232      0.2612
     95  O         56.6060  -54.2640  -13.0000 O.2   232  GLY232     -0.2717
     96  N         57.2180  -56.4100  -12.6770 N.am  233  SER233     -0.1952
     97  CA        56.2880  -56.9670  -13.6580 C.3   233  SER233      0.1924
     98  C         54.8370  -56.8870  -13.2010 C.2   233  SER233      0.2314
     99  O         54.5500  -56.8340  -11.9970 O.2   233  SER233     -0.2863
    100  CB        56.6460  -58.4180  -13.9620 C.3   233  SER233      0.2116
    101  OG        56.3310  -59.2500  -12.8600 O.3   233  SER233     -0.2180
    102  N         52.4470  -59.2110  -13.4000 N.3   235  ALA235     -0.1231
    103  CA        52.0060  -60.4160  -12.6880 C.3   235  ALA235      0.1694
    104  C         52.4610  -60.4380  -11.2290 C.2   235  ALA235      0.2592
    105  O         51.6840  -60.7940  -10.3380 O.2   235  ALA235     -0.2718
    106  CB        52.4600  -61.6820  -13.4230 C.3   235  ALA235      0.0304
    107  N         53.7140  -60.0560  -10.9940 N.am  236  THR236     -0.1953
    108  CA        54.2410  -59.9440   -9.6370 C.3   236  THR236      0.1897
    109  C         53.5160  -58.8300   -8.8680 C.2   236  THR236      0.2313
    110  O         53.1300  -59.0170   -7.7150 O.2   236  THR236     -0.2863
    111  CB        55.7610  -59.6780   -9.6440 C.3   236  THR236      0.1794
    112  OG1       56.4040  -60.6170  -10.5130 O.3   236  THR236     -0.2208
    113  CG2       56.3490  -59.8080   -8.2440 C.3   236  THR236      0.0378
    114  N         50.3070  -60.0340   -7.6820 N.3   239  LYS239     -0.1231
    115  CA        50.4910  -60.9270   -6.5300 C.3   239  LYS239      0.1693
    116  C         50.7070  -60.1510   -5.2300 C.2   239  LYS239      0.2591
    117  O         50.0990  -60.4540   -4.2000 O.2   239  LYS239     -0.2718
    118  CB        51.6700  -61.8780   -6.7560 C.3   239  LYS239      0.0285
    119  CG        51.3870  -63.0530   -7.6890 C.3   239  LYS239      0.0035
    120  CD        52.4400  -64.1540   -7.4910 C.3   239  LYS239      0.0206
    121  CE        52.0180  -65.4910   -8.1100 C.3   239  LYS239      0.1093
    122  NZ        52.2320  -65.5100   -9.5830 N.3   239  LYS239     -0.1314
    123  N         51.5750  -59.1460   -5.2920 N.am  240  ILE240     -0.1980
    124  CA        51.8770  -58.3000   -4.1350 C.3   240  ILE240      0.1595
    125  C         50.6270  -57.5740   -3.6100 C.2   240  ILE240      0.2287
    126  O         50.4150  -57.4890   -2.3950 O.2   240  ILE240     -0.2864
    127  CB        53.0590  -57.3340   -4.4430 C.3   240  ILE240      0.0276
    128  CG1       54.3700  -58.1220   -4.4350 C.3   240  ILE240      0.0022
    129  CG2       53.1250  -56.1670   -3.4360 C.3   240  ILE240      0.0022
    130  CD1       55.4790  -57.4750   -5.1840 C.3   240  ILE240      0.0001
    131  N         48.4230  -60.1220   -1.7890 N.3   243  THR243     -0.1218
    132  CA        48.9540  -60.3840   -0.4630 C.3   243  THR243      0.1862
    133  C         48.6370  -59.2180    0.4750 C.2   243  THR243      0.2287
    134  O         48.1230  -59.4210    1.5750 O.2   243  THR243     -0.2866
    135  CB        50.4810  -60.6280   -0.5100 C.3   243  THR243      0.1770
    136  OG1       50.7730  -61.6540   -1.4610 O.3   243  THR243     -0.2211
    137  CG2       50.9760  -61.0790    0.8340 C.3   243  THR243      0.0375
    138  N         54.6180  -49.5720   -9.7930 N.3   254  GLU254     -0.1231
    139  CA        55.1010  -49.1720  -11.1020 C.3   254  GLU254      0.1699
    140  C         55.3000  -50.4720  -11.8580 C.2   254  GLU254      0.2592
    141  O         56.2100  -51.2520  -11.5590 O.2   254  GLU254     -0.2718
    142  CB        56.4250  -48.4000  -11.0320 C.3   254  GLU254      0.0402
    143  CG        56.6030  -47.3560  -12.1520 C.3   254  GLU254      0.1161
    144  CD        57.8720  -47.5510  -12.9910 C.2   254  GLU254      0.3649
    145  OE1       58.8460  -46.7780  -12.8300 O.co2 254  GLU254     -0.2457
    146  OE2       57.8900  -48.4770  -13.8300 O.co2 254  GLU254     -0.2457
    147  N         54.4170  -50.7210  -12.8100 N.am  255  LEU255     -0.1966
    148  CA        54.4910  -51.9330  -13.6030 C.3   255  LEU255      0.1728
    149  C         55.0240  -51.5510  -14.9790 C.2   255  LEU255      0.2616
    150  O         55.5140  -50.4380  -15.1620 O.2   255  LEU255     -0.2715
    151  CB        53.1230  -52.6200  -13.6480 C.3   255  LEU255      0.0311
    152  CG        52.4310  -52.7080  -12.2750 C.3   255  LEU255      0.0022
    153  CD1       51.0330  -53.2690  -12.4060 C.3   255  LEU255      0.0001
    154  CD2       53.2520  -53.5160  -11.2660 C.3   255  LEU255      0.0001
    155  N         54.9590  -52.4490  -15.9470 N.am  256  GLY256     -0.1955
    156  CA        55.5640  -52.1430  -17.2390 C.3   256  GLY256      0.1869
    157  C         54.7880  -51.1570  -18.0890 C.2   256  GLY256      0.2309
    158  O         54.0530  -50.3070  -17.5810 O.2   256  GLY256     -0.2863
    159  N         61.0280  -49.5080  -18.3510 N.3   288  CYS288     -0.1235
    160  CA        59.5920  -49.6960  -18.1050 C.3   288  CYS288      0.1677
    161  C         58.7690  -48.7460  -18.9700 C.2   288  CYS288      0.2270
    162  O         57.6940  -49.1080  -19.4530 O.2   288  CYS288     -0.2867
    163  CB        59.2370  -49.4600  -16.6340 C.3   288  CYS288      0.0956
    164  SG        60.2080  -50.3740  -15.4180 S.3   288  CYS288     -0.0801
    165  N         65.7510  -63.8230  -19.8690 N.3   335  GLN335     -0.1245
    166  CA        65.2880  -62.5890  -20.5170 C.3   335  GLN335      0.1566
    167  C         65.7000  -62.5420  -21.9850 C.2   335  GLN335      0.2260
    168  O         64.9300  -62.0830  -22.8270 O.2   335  GLN335     -0.2867
    169  CB        65.7850  -61.3400  -19.7770 C.3   335  GLN335      0.0367
    170  CG        65.0160  -61.0240  -18.5030 C.3   335  GLN335      0.0905
    171  CD        63.5440  -60.7440  -18.7630 C.2   335  GLN335      0.2608
    172  OE1       63.1860  -59.7590  -19.4200 O.2   335  GLN335     -0.2717
    173  NE2       62.6840  -61.6150  -18.2540 N.am  335  GLN335     -0.0878
    174  N         63.3200  -64.7090  -24.0520 N.3   338  LYS338     -0.1245
    175  CA        62.0320  -64.0080  -24.1280 C.3   338  LYS338      0.1561
    176  C         62.0240  -62.9250  -25.2140 C.2   338  LYS338      0.2260
    177  O         61.0480  -62.7890  -25.9620 O.2   338  LYS338     -0.2867
    178  CB        61.6570  -63.4070  -22.7670 C.3   338  LYS338      0.0271
    179  CG        60.9720  -64.3880  -21.8170 C.3   338  LYS338      0.0035
    180  CD        60.7910  -63.8060  -20.4090 C.3   338  LYS338      0.0206
    181  CE        59.7260  -62.7060  -20.3650 C.3   338  LYS338      0.1093
    182  NZ        59.6310  -62.0800  -19.0070 N.3   338  LYS338     -0.1314
    183  N         54.7360  -56.1180  -23.8170 N.3   387  GLU387     -0.1245
    184  CA        56.0400  -55.5520  -23.4880 C.3   387  GLU387      0.1567
    185  C         57.1560  -56.5530  -23.7830 C.2   387  GLU387      0.2260
    186  O         57.1650  -57.6620  -23.2400 O.2   387  GLU387     -0.2867
    187  CB        56.0650  -55.1400  -22.0090 C.3   387  GLU387      0.0388
    188  CG        57.3210  -54.3940  -21.5630 C.3   387  GLU387      0.1160
    189  CD        57.2810  -53.9990  -20.0860 C.2   387  GLU387      0.3649
    190  OE1       57.4790  -52.7980  -19.7820 O.co2 387  GLU387     -0.2457
    191  OE2       57.0490  -54.8850  -19.2310 O.co2 387  GLU387     -0.2457
    192  N         60.6470  -55.7040  -23.5850 N.3   389  PHE389     -0.1241
    193  CA        61.7250  -55.4210  -22.6290 C.3   389  PHE389      0.1605
    194  C         63.0970  -55.7740  -23.2100 C.2   389  PHE389      0.2264
    195  O         63.9730  -56.3200  -22.5340 O.2   389  PHE389     -0.2867
    196  CB        61.4640  -56.0700  -21.2580 C.3   389  PHE389      0.0534
    197  CG        61.7390  -55.1520  -20.0930 C.ar  389  PHE389     -0.0203
    198  CD1       60.9540  -54.0120  -19.8860 C.ar  389  PHE389     -0.0042
    199  CD2       62.7730  -55.4190  -19.2070 C.ar  389  PHE389     -0.0042
    200  CE1       61.2050  -53.1500  -18.8090 C.ar  389  PHE389     -0.0003
    201  CE2       63.0300  -54.5700  -18.1210 C.ar  389  PHE389     -0.0003
    202  CZ        62.2510  -53.4340  -17.9250 C.ar  389  PHE389     -0.0000
@<TRIPOS>BOND
     1   177   176    2
     2   176   175    1
     3   175   174    1
     4   175   178    1
     5   183   184    1
     6   185   184    1
     7   185   186    2
     8   192   193    1
     9   184   187    1
    10   194   193    1
    11   194   195    2
    12   168   167    2
    13   178   179    1
    14   193   196    1
    15   187   188    1
    16   167   166    1
    17   179   180    1
    18   188   189    1
    19   196   197    1
    20   166   165    1
    21   166   169    1
    22   180   181    1
    23   181   182    1
    24   197   198   ar
    25   197   199   ar
    26   189   190   ar
    27   189   191   ar
    28   198   200   ar
    29   169   170    1
    30   162   161    2
    31   172   171    2
    32   199   201   ar
    33   161   160    1
    34   200   202   ar
    35   171   170    1
    36   171   173   am
    37   159   160    1
    38   201   202   ar
    39   160   163    1
    40   157   158    2
    41   157   156    1
    42    29    28   ar
    43    29    27   ar
    44   156   155    1
    45    28    26   ar
    46   163   164    1
    47    27    25   ar
    48    37    35   am
    49   155   149   am
    50    34    35    1
    51    34    31    1
    52    26    23   ar
    53    33    32    2
    54    25    23   ar
    55    25    24   ar
    56    35    36    2
    57   150   149    2
    58   149   148    1
    59    31    32    1
    60    31    30    1
    61    23    21   ar
    62    24    22   ar
    63    62    61    1
    64   100    97    1
    65   100   101    1
    66   146   144   ar
    67    30    18   am
    68    97    98    1
    69    97    96    1
    70   151   148    1
    71   151   152    1
    72   148   147    1
    73    19    18    2
    74   106   103    1
    75   102   103    1
    76    21    22   ar
    77    21    20    1
    78    98    99    2
    79    18    17    1
    80    63    61    1
    81    95    94    2
    82   144   145   ar
    83   144   143    1
    84   147   140   am
    85    61    60    1
    86   103   104    1
    87    96    94   am
    88    94    93    1
    89    20    17    1
    90   153   152    1
    91   152   154    1
    92    60    57    1
    93   143   142    1
    94    17    16    1
    95   140   141    2
    96   140   139    1
    97    16    11   am
    98    93    92    1
    99    59    58    2
   100    13    14    1
   101    13    10    1
   102   104   107   am
   103   104   105    2
   104   139   142    1
   105   139   138    1
   106    14    15    1
   107   107   108    1
   108    57    58    1
   109    57    56    1
   110    11    10    1
   111    11    12    2
   112   112   111    1
   113    10     9    1
   114    56    49   am
   115   111   108    1
   116   111   113    1
   117   108   109    1
   118   122   121    1
   119    15     9    1
   120   109   110    2
   121    49    50    2
   122    49    48    1
   123    52    53    1
   124    52    51    1
   125   121   120    1
   126    53    54   ar
   127    53    55   ar
   128   119   120    1
   129   119   118    1
   130   114   115    1
   131    47    48    1
   132    48    51    1
   133   118   115    1
   134   115   116    1
   135    74    76   ar
   136    74    73   ar
   137     4     3    2
   138    76    77   ar
   139    64    65    1
   140    65    66    1
   141   123   116   am
   142   123   124    1
   143    72    73    1
   144    72    69    1
   145   116   117    2
   146     3     2    1
   147   130   128    1
   148    73    75   ar
   149    68    66   am
   150    68    69    1
   151     7     5    1
   152    46    45    1
   153    77    75   ar
   154    66    67    2
   155   127   128    1
   156   127   124    1
   157   127   129    1
   158    69    70    1
   159   124   125    1
   160     5     2    1
   161     5     6    1
   162     2     1    1
   163    41    40    2
   164   125   126    2
   165    45    44    1
   166    40    39    1
   167    70    71    2
   168    44    43    1
   169     6     8    1
   170   131   132    1
   171    79    78    1
   172    79    80    1
   173   136   135    1
   174    39    42    1
   175    39    38    1
   176    86    83    1
   177    82    80   am
   178    82    83    1
   179    42    43    1
   180    80    81    2
   181    83    84    1
   182   135   132    1
   183   135   137    1
   184   132   133    1
   185    91    88    1
   186   133   134    2
   187    84    85    2
   188    88    87    1
   189    88    89    1
   190    89    90    2
