@<TRIPOS>MOLECULE
tmp/3iwoB00.pdb
 121 116 0 0 0
SMALL
GASTEIGER

@<TRIPOS>ATOM
      1  N         57.6640   11.6280   42.7810 N.3    90  TRP90      -0.1241
      2  CA        58.6180   12.2650   43.7170 C.3    90  TRP90       0.1605
      3  C         58.0100   13.5660   44.2560 C.2    90  TRP90       0.2264
      4  O         58.3140   14.6560   43.7470 O.2    90  TRP90      -0.2867
      5  CB        59.9540   12.5830   43.0120 C.3    90  TRP90       0.0550
      6  CG        61.1390   12.8670   43.9340 C.ar   90  TRP90       0.0003
      7  CD1       61.1430   12.9160   45.3130 C.ar   90  TRP90       0.0946
      8  CD2       62.4890   13.1350   43.5270 C.ar   90  TRP90       0.0152
      9  NE1       62.4090   13.1920   45.7760 N.ar   90  TRP90      -0.2442
     10  CE2       63.2550   13.3310   44.7040 C.ar   90  TRP90       0.0810
     11  CE3       63.1330   13.2060   42.2790 C.ar   90  TRP90       0.0012
     12  CZ2       64.6370   13.5940   44.6720 C.ar   90  TRP90       0.0191
     13  CZ3       64.5070   13.4950   42.2450 C.ar   90  TRP90       0.0001
     14  CH2       65.2400   13.6880   43.4380 C.ar   90  TRP90       0.0015
     15  N         75.7900   12.6000   46.2070 N.3   123  LYS123     -0.1231
     16  CA        75.8760   11.2640   46.7890 C.3   123  LYS123      0.1693
     17  C         74.5830   10.8140   47.4840 C.2   123  LYS123      0.2593
     18  O         74.0450    9.7480   47.1740 O.2   123  LYS123     -0.2718
     19  CB        77.0690   11.1790   47.7460 C.3   123  LYS123      0.0285
     20  CG        78.4200   11.4990   47.0680 C.3   123  LYS123      0.0035
     21  CD        79.6180   11.0540   47.9120 C.3   123  LYS123      0.0206
     22  CE        80.9300   11.3600   47.2080 C.3   123  LYS123      0.1093
     23  NZ        82.1080   10.9440   48.0180 N.3   123  LYS123     -0.1314
     24  N         74.0620   11.6470   48.3860 N.am  124  SER124     -0.1938
     25  CA        72.9400   11.2640   49.2330 C.3   124  SER124      0.2055
     26  C         71.5870   11.5630   48.5950 C.2   124  SER124      0.2643
     27  O         71.5000   12.2660   47.5850 O.2   124  SER124     -0.2714
     28  CB        73.0560   11.9840   50.5730 C.3   124  SER124      0.2130
     29  OG        72.8570   13.3790   50.4120 O.3   124  SER124     -0.2179
     30  N         70.5300   11.0270   49.1930 N.am  125  SER125     -0.1949
     31  CA        69.1660   11.4000   48.8140 C.3   125  SER125      0.1924
     32  C         68.9230   12.9110   48.8500 C.2   125  SER125      0.2314
     33  O         68.2640   13.4540   47.9580 O.2   125  SER125     -0.2863
     34  CB        68.1550   10.6780   49.7180 C.3   125  SER125      0.2116
     35  OG        68.2060    9.2990   49.4340 O.3   125  SER125     -0.2180
     36  N         70.6420   14.5740   45.9510 N.3   128  LEU128     -0.1245
     37  CA        69.9220   14.2910   44.7150 C.3   128  LEU128      0.1561
     38  C         68.7360   15.2070   44.5790 C.2   128  LEU128      0.2260
     39  O         68.5260   15.8210   43.5220 O.2   128  LEU128     -0.2867
     40  CB        69.4370   12.8250   44.7030 C.3   128  LEU128      0.0270
     41  CG        69.2820   12.0890   43.3690 C.3   128  LEU128      0.0019
     42  CD1       70.5450   12.1400   42.4920 C.3   128  LEU128      0.0001
     43  CD2       68.8920   10.6380   43.6530 C.3   128  LEU128      0.0001
     44  N         64.5710    4.8230   38.9470 N.3   157  ALA157     -0.1245
     45  CA        64.3560    4.9240   40.3970 C.3   157  ALA157      0.1562
     46  C         62.8830    5.2730   40.7280 C.2   157  ALA157      0.2260
     47  O         62.3250    4.7810   41.7280 O.2   157  ALA157     -0.2867
     48  CB        65.3110    5.9490   41.0140 C.3   157  ALA157      0.0290
     49  N         58.6690    2.9770   42.3990 N.3   161  LYS161     -0.1245
     50  CA        58.1860    3.4500   43.7100 C.3   161  LYS161      0.1561
     51  C         56.8120    2.8910   44.1080 C.2   161  LYS161      0.2260
     52  O         56.6450    2.4900   45.2640 O.2   161  LYS161     -0.2867
     53  CB        58.2010    4.9870   43.8550 C.3   161  LYS161      0.0271
     54  CG        59.5740    5.6350   43.7570 C.3   161  LYS161      0.0035
     55  CD        60.4870    5.2920   44.9070 C.3   161  LYS161      0.0206
     56  CE        61.6500    6.2840   44.9730 C.3   161  LYS161      0.1093
     57  NZ        62.9230    5.6770   45.5200 N.3   161  LYS161     -0.1314
     58  N         62.7240   -2.1330   46.2600 N.3   166  SER166     -0.1202
     59  CA        63.9590   -1.4760   45.7980 C.3   166  SER166      0.2020
     60  C         64.1220   -1.6770   44.2830 C.2   166  SER166      0.2618
     61  O         63.5110   -2.5910   43.6950 O.2   166  SER166     -0.2717
     62  CB        65.1780   -2.0170   46.5330 C.3   166  SER166      0.2103
     63  OG        65.4110   -3.3740   46.1600 O.3   166  SER166     -0.2182
     64  N         64.9170   -0.8140   43.6430 N.am  167  PHE167     -0.1975
     65  CA        65.1730   -0.9820   42.2010 C.3   167  PHE167      0.1639
     66  C         65.7280   -2.3800   41.9380 C.2   167  PHE167      0.2290
     67  O         65.2350   -3.1000   41.0320 O.2   167  PHE167     -0.2864
     68  CB        66.1200    0.1110   41.6500 C.3   167  PHE167      0.0560
     69  CG        66.3950   -0.0190   40.1620 C.ar  167  PHE167     -0.0200
     70  CD1       65.4680    0.4320   39.2330 C.ar  167  PHE167     -0.0042
     71  CD2       67.5860   -0.5850   39.7080 C.ar  167  PHE167     -0.0042
     72  CE1       65.7000    0.3220   37.8620 C.ar  167  PHE167     -0.0003
     73  CE2       67.8350   -0.7150   38.3190 C.ar  167  PHE167     -0.0003
     74  CZ        66.8770   -0.2560   37.3940 C.ar  167  PHE167     -0.0000
     75  N         74.1280   -6.0090   41.9090 N.3   187  ASN187     -0.1240
     76  CA        75.2030   -6.1690   42.8890 C.3   187  ASN187      0.1653
     77  C         75.6140   -7.6260   42.8590 C.2   187  ASN187      0.2266
     78  O         74.8080   -8.5050   43.1820 O.2   187  ASN187     -0.2867
     79  CB        74.7330   -5.7300   44.2780 C.3   187  ASN187      0.1155
     80  CG        74.4620   -4.2450   44.3330 C.2   187  ASN187      0.2627
     81  OD1       75.3770   -3.4450   44.1430 O.2   187  ASN187     -0.2716
     82  ND2       73.2000   -3.8650   44.5490 N.am  187  ASN187     -0.0877
     83  N         77.9760    5.4210   41.3820 N.3   211  GLY211     -0.1210
     84  CA        77.5630    6.5920   42.1530 C.3   211  GLY211      0.1956
     85  C         76.0500    6.6770   42.0600 C.2   211  GLY211      0.2612
     86  O         75.3990    5.7020   41.7070 O.2   211  GLY211     -0.2717
     87  N         75.4870    7.8380   42.3840 N.am  212  ALA212     -0.1965
     88  CA        74.0280    7.9840   42.3900 C.3   212  ALA212      0.1728
     89  C         73.4080    7.6670   41.0320 C.2   212  ALA212      0.2616
     90  O         73.8490    8.1880   39.9790 O.2   212  ALA212     -0.2715
     91  CB        73.6520    9.3740   42.7990 C.3   212  ALA212      0.0334
     92  N         72.3540    6.8540   41.0670 N.am  213  LEU213     -0.1963
     93  CA        71.5780    6.4530   39.8670 C.3   213  LEU213      0.1728
     94  C         72.3680    5.6520   38.8440 C.2   213  LEU213      0.2616
     95  O         71.8760    5.3980   37.7430 O.2   213  LEU213     -0.2715
     96  CB        70.8570    7.6400   39.1940 C.3   213  LEU213      0.0311
     97  CG        69.9260    8.3990   40.1470 C.3   213  LEU213      0.0022
     98  CD1       69.3700    9.6540   39.4810 C.3   213  LEU213      0.0001
     99  CD2       68.8290    7.5220   40.6620 C.3   213  LEU213      0.0001
    100  N         73.5770    5.2250   39.1980 N.am  214  ASP214     -0.1957
    101  CA        74.3450    4.3920   38.2710 C.3   214  ASP214      0.1840
    102  C         73.7740    2.9590   38.1510 C.2   214  ASP214      0.2622
    103  O         73.8710    2.3290   37.0990 O.2   214  ASP214     -0.2715
    104  CB        75.8390    4.3890   38.6330 C.3   214  ASP214      0.1450
    105  CG        76.6100    5.5850   38.0370 C.2   214  ASP214      0.3671
    106  OD1       76.1660    6.2180   37.0370 O.co2 214  ASP214     -0.2456
    107  OD2       77.7100    5.8790   38.5640 O.co2 214  ASP214     -0.2456
    108  N         73.1630    2.4500   39.2140 N.am  215  ALA215     -0.1963
    109  CA        72.5300    1.1190   39.1520 C.3   215  ALA215      0.1728
    110  C         71.4550    1.1290   38.0560 C.2   215  ALA215      0.2616
    111  O         71.3990    0.2320   37.1930 O.2   215  ALA215     -0.2715
    112  CB        71.9130    0.7440   40.5180 C.3   215  ALA215      0.0334
    113  N         70.6480    2.1890   38.0730 N.am  216  GLU216     -0.1977
    114  CA        69.5610    2.3880   37.1070 C.3   216  GLU216      0.1602
    115  C         70.0140    2.6860   35.6670 C.2   216  GLU216      0.2287
    116  O         69.3690    2.2580   34.7180 O.2   216  GLU216     -0.2864
    117  CB        68.6380    3.5220   37.5960 C.3   216  GLU216      0.0415
    118  CG        67.8740    3.2350   38.9410 C.3   216  GLU216      0.1163
    119  CD        68.7010    3.4300   40.2220 C.2   216  GLU216      0.3649
    120  OE1       69.9140    3.7750   40.1820 O.co2 216  GLU216     -0.2457
    121  OE2       68.1260    3.2010   41.3030 O.co2 216  GLU216     -0.2457
@<TRIPOS>BOND
     1   116   115    2
     2   115   114    1
     3   106   105   ar
     4   103   102    2
     5   114   117    1
     6   114   113    1
     7   111   110    2
     8    74    72   ar
     9    74    73   ar
    10   117   118    1
    11    95    94    2
    12    72    70   ar
    13   105   107   ar
    14   105   104    1
    15   110   113   am
    16   110   109    1
    17   102   101    1
    18   102   108   am
    19   101   104    1
    20   101   100    1
    21    73    71   ar
    22    94   100   am
    23    94    93    1
    24   118   119    1
    25    44    45    1
    26   109   108    1
    27   109   112    1
    28    96    93    1
    29    96    97    1
    30    70    69   ar
    31    98    97    1
    32    71    69   ar
    33    93    92    1
    34    90    89    2
    35    97    99    1
    36    69    68    1
    37   120   119   ar
    38   119   121   ar
    39    45    46    1
    40    45    48    1
    41    46    47    2
    42    89    92   am
    43    89    88    1
    44    67    66    2
    45    83    84    1
    46    68    65    1
    47    86    85    2
    48    75    76    1
    49    66    65    1
    50    85    84    1
    51    85    87   am
    52    65    64    1
    53    13    11   ar
    54    13    14   ar
    55    11     8   ar
    56    87    88    1
    57    88    91    1
    58    49    50    1
    59    42    41    1
    60     1     2    1
    61    77    76    1
    62    77    78    2
    63    76    79    1
    64     5     2    1
    65     5     6    1
    66    41    43    1
    67    41    40    1
    68    14    12   ar
    69    39    38    2
    70     8     6   ar
    71     8    10   ar
    72    64    60   am
    73    61    60    2
    74    50    53    1
    75    50    51    1
    76     2     3    1
    77     4     3    2
    78    54    53    1
    79    54    55    1
    80     6     7   ar
    81    51    52    2
    82    81    80    2
    83    79    80    1
    84    60    59    1
    85    80    82   am
    86    38    37    1
    87    12    10   ar
    88    40    37    1
    89    10     9   ar
    90    37    36    1
    91    55    56    1
    92    56    57    1
    93     7     9   ar
    94    59    58    1
    95    59    62    1
    96    63    62    1
    97    15    16    1
    98    16    17    1
    99    16    19    1
   100    20    19    1
   101    20    21    1
   102    18    17    2
   103    22    21    1
   104    22    23    1
   105    17    24   am
   106    27    26    2
   107    33    32    2
   108    24    25    1
   109    26    30   am
   110    26    25    1
   111    31    32    1
   112    31    30    1
   113    31    34    1
   114    25    28    1
   115    35    34    1
   116    29    28    1
