@<TRIPOS>MOLECULE
tmp/3ix1B00.pdb
 147 140 0 0 0
SMALL
GASTEIGER

@<TRIPOS>ATOM
      1  N         60.7430   91.2480   76.3240 N.3    10  ASP10      -0.1225
      2  CA        59.7450   91.2770   75.2640 C.3    10  ASP10       0.1805
      3  C         59.8780   92.5220   74.3950 C.2    10  ASP10       0.2597
      4  O         59.3920   92.5640   73.2630 O.2    10  ASP10      -0.2718
      5  CB        58.3570   91.2890   75.8960 C.3    10  ASP10       0.1424
      6  CG        58.1940   92.4330   76.8880 C.2    10  ASP10       0.3668
      7  OD1       58.9230   92.4350   77.9010 O.co2  10  ASP10      -0.2456
      8  OD2       57.3540   93.3330   76.6540 O.co2  10  ASP10      -0.2456
      9  N         60.5220   93.5450   74.9390 N.am   11  TRP11      -0.1976
     10  CA        60.6580   94.8090   74.2290 C.3    11  TRP11       0.1640
     11  C         61.8700   95.4850   74.8180 C.2    11  TRP11       0.2290
     12  O         62.6150   94.8760   75.5870 O.2    11  TRP11      -0.2864
     13  CB        59.4140   95.6600   74.5090 C.3    11  TRP11       0.0576
     14  CG        59.0860   96.6890   73.4820 C.ar   11  TRP11       0.0006
     15  CD1       59.1180   98.0490   73.6340 C.ar   11  TRP11       0.0946
     16  CD2       58.6020   96.4440   72.1590 C.ar   11  TRP11       0.0152
     17  NE1       58.6740   98.6670   72.4850 N.ar   11  TRP11      -0.2442
     18  CE2       58.3510   97.7050   71.5640 C.ar   11  TRP11       0.0810
     19  CE3       58.3510   95.2820   71.4170 C.ar   11  TRP11       0.0012
     20  CZ2       57.8610   97.8340   70.2620 C.ar   11  TRP11       0.0191
     21  CZ3       57.8600   95.4130   70.1190 C.ar   11  TRP11       0.0001
     22  CH2       57.6210   96.6820   69.5590 C.ar   11  TRP11       0.0015
     23  N         61.4020   99.2100   79.8550 N.3    14  ASN14      -0.1240
     24  CA        60.3750  100.1930   80.1950 C.3    14  ASN14       0.1653
     25  C         59.7270   99.8270   81.5410 C.2    14  ASN14       0.2266
     26  O         60.0100   98.7750   82.1070 O.2    14  ASN14      -0.2867
     27  CB        59.3350  100.2970   79.0690 C.3    14  ASN14       0.1155
     28  CG        58.3330   99.1680   79.0920 C.2    14  ASN14       0.2627
     29  OD1       57.3980   99.1680   79.8960 O.2    14  ASN14      -0.2716
     30  ND2       58.5250   98.1900   78.2140 N.am   14  ASN14      -0.0877
     31  N         57.3630   98.2850   82.7920 N.3    16  VAL16      -0.1245
     32  CA        56.9670   96.9130   83.1060 C.3    16  VAL16       0.1561
     33  C         58.0950   95.9830   83.5900 C.2    16  VAL16       0.2260
     34  O         57.8380   95.0320   84.3280 O.2    16  VAL16      -0.2867
     35  CB        56.2440   96.2520   81.8980 C.3    16  VAL16       0.0252
     36  CG1       57.1850   96.1530   80.7210 C.3    16  VAL16       0.0019
     37  CG2       55.7180   94.8860   82.2870 C.3    16  VAL16       0.0019
     38  N         53.6600   86.8100   75.1530 N.3    62  TYR62      -0.1241
     39  CA        52.2310   86.9970   75.3730 C.3    62  TYR62       0.1605
     40  C         51.4760   85.6700   75.4300 C.2    62  TYR62       0.2264
     41  O         51.7610   84.7480   74.6610 O.2    62  TYR62      -0.2867
     42  CB        51.6890   87.8830   74.2560 C.3    62  TYR62       0.0534
     43  CG        52.7210   88.8790   73.7860 C.ar   62  TYR62      -0.0201
     44  CD1       52.9120   90.0880   74.4510 C.ar   62  TYR62      -0.0009
     45  CD2       53.5680   88.5720   72.7210 C.ar   62  TYR62      -0.0009
     46  CE1       53.9270   90.9690   74.0640 C.ar   62  TYR62       0.0417
     47  CE2       54.5780   89.4380   72.3300 C.ar   62  TYR62       0.0417
     48  CZ        54.7530   90.6340   73.0010 C.ar   62  TYR62       0.1957
     49  OH        55.7410   91.4990   72.5910 O.3    62  TYR62      -0.2866
     50  N         47.4080   95.8750   74.9300 N.3    88  ASN88      -0.1240
     51  CA        47.3050   96.1490   73.4950 C.3    88  ASN88       0.1653
     52  C         46.0360   96.8950   73.0560 C.2    88  ASN88       0.2266
     53  O         44.9190   96.4680   73.3310 O.2    88  ASN88      -0.2867
     54  CB        47.3860   94.8320   72.7260 C.3    88  ASN88       0.1155
     55  CG        47.7900   95.0250   71.2870 C.2    88  ASN88       0.2627
     56  OD1       47.4940   96.0530   70.6820 O.2    88  ASN88      -0.2716
     57  ND2       48.4600   94.0250   70.7200 N.am   88  ASN88      -0.0877
     58  N         54.1290   95.3580   65.0880 N.3   112  PRO112     -0.2116
     59  CA        55.5020   94.9630   65.4090 C.3   112  PRO112      0.1372
     60  C         56.0180   93.7040   64.7370 C.2   112  PRO112      0.2244
     61  O         57.1790   93.3460   64.9160 O.2   112  PRO112     -0.2868
     62  CB        55.4600   94.8130   66.9200 C.3   112  PRO112      0.0268
     63  CG        54.1100   94.2040   67.1170 C.3   112  PRO112      0.0207
     64  CD        53.2300   95.0450   66.2130 C.3   112  PRO112      0.0892
     65  N         54.6990   90.8560   65.3500 N.3   114  ILE114     -0.1245
     66  CA        54.3570   89.7920   66.2930 C.3   114  ILE114      0.1561
     67  C         52.9930   89.2000   65.9050 C.2   114  ILE114      0.2260
     68  O         51.9760   89.8920   65.9060 O.2   114  ILE114     -0.2867
     69  CB        54.3160   90.3450   67.7370 C.3   114  ILE114      0.0252
     70  CG1       55.6490   91.0280   68.0550 C.3   114  ILE114      0.0019
     71  CG2       54.0380   89.2230   68.7270 C.3   114  ILE114      0.0019
     72  CD1       55.7620   91.5780   69.4740 C.3   114  ILE114      0.0001
     73  N         50.5810   87.4940   67.3240 N.3   116  VAL116     -0.1231
     74  CA        49.4090   87.6970   68.1750 C.3   116  VAL116      0.1692
     75  C         48.4740   88.8100   67.6830 C.2   116  VAL116      0.2592
     76  O         47.2580   88.7510   67.8840 O.2   116  VAL116     -0.2718
     77  CB        49.8230   88.0240   69.6250 C.3   116  VAL116      0.0266
     78  CG1       50.4920   89.3930   69.6880 C.3   116  VAL116      0.0020
     79  CG2       48.6020   87.9890   70.5240 C.3   116  VAL116      0.0020
     80  N         49.0420   89.8180   67.0320 N.am  117  ASN117     -0.1974
     81  CA        48.2530   90.9370   66.5430 C.3   117  ASN117      0.1688
     82  C         47.2770   90.5990   65.4150 C.2   117  ASN117      0.2292
     83  O         46.2170   91.2110   65.3210 O.2   117  ASN117     -0.2864
     84  CB        49.1850   92.0690   66.1210 C.3   117  ASN117      0.1181
     85  CG        49.9440   92.6630   67.2980 C.2   117  ASN117      0.2629
     86  OD1       49.3680   93.3590   68.1360 O.2   117  ASN117     -0.2716
     87  ND2       51.2410   92.3780   67.3720 N.am  117  ASN117     -0.0877
     88  N         56.7340  101.5850   66.0840 N.3   144  LEU144     -0.1245
     89  CA        55.2830  101.6490   66.0760 C.3   144  LEU144      0.1561
     90  C         54.7820  103.0770   65.9280 C.2   144  LEU144      0.2260
     91  O         54.0980  103.4050   64.9600 O.2   144  LEU144     -0.2867
     92  CB        54.7220  101.0260   67.3470 C.3   144  LEU144      0.0270
     93  CG        54.9660   99.5250   67.5070 C.3   144  LEU144      0.0019
     94  CD1       54.3490   99.0500   68.8200 C.3   144  LEU144      0.0001
     95  CD2       54.3660   98.7710   66.3290 C.3   144  LEU144      0.0001
     96  N         49.5420   96.7410   68.4340 N.3   158  GLY158     -0.1225
     97  CA        50.7370   96.2320   69.0830 C.3   158  GLY158      0.1811
     98  C         51.1640   97.2060   70.1520 C.2   158  GLY158      0.2280
     99  O         51.9010   96.8610   71.0720 O.2   158  GLY158     -0.2866
    100  N         50.8610   99.6000   73.3730 N.3   160  TYR160     -0.1241
    101  CA        50.2720   99.4140   74.6970 C.3   160  TYR160      0.1605
    102  C         49.7090  100.7110   75.2580 C.2   160  TYR160      0.2264
    103  O         50.2940  101.7770   75.0960 O.2   160  TYR160     -0.2867
    104  CB        51.3220   98.8530   75.6590 C.3   160  TYR160      0.0534
    105  CG        51.6860   97.4190   75.3730 C.ar  160  TYR160     -0.0201
    106  CD1       52.6350   96.7550   76.1440 C.ar  160  TYR160     -0.0009
    107  CD2       51.0540   96.7110   74.3480 C.ar  160  TYR160     -0.0009
    108  CE1       52.9450   95.4210   75.9110 C.ar  160  TYR160      0.0417
    109  CE2       51.3570   95.3700   74.1040 C.ar  160  TYR160      0.0417
    110  CZ        52.3020   94.7360   74.8900 C.ar  160  TYR160      0.1957
    111  OH        52.5980   93.4210   74.6580 O.3   160  TYR160     -0.2866
    112  N         49.5680  101.6330   78.3100 N.3   162  ASN162     -0.1225
    113  CA        50.3820  102.1270   79.4150 C.3   162  ASN162      0.1785
    114  C         51.6630  102.7920   78.9340 C.2   162  ASN162      0.2597
    115  O         52.3170  103.5140   79.6910 O.2   162  ASN162     -0.2718
    116  CB        50.7620  100.9740   80.3310 C.3   162  ASN162      0.1169
    117  CG        51.5670   99.9140   79.6080 C.2   162  ASN162      0.2627
    118  OD1       52.7430   99.6960   79.9060 O.2   162  ASN162     -0.2716
    119  ND2       50.9400   99.2600   78.6360 N.am  162  ASN162     -0.0877
    120  N         52.0310  102.5540   77.6800 N.am  163  HIS163     -0.1961
    121  CA        53.2650  103.1250   77.1780 C.3   163  HIS163      0.1787
    122  C         53.1530  103.9890   75.9380 C.2   163  HIS163      0.2620
    123  O         53.3340  105.1980   76.0120 O.2   163  HIS163     -0.2715
    124  CB        54.2820  102.0200   76.9080 C.3   163  HIS163      0.0785
    125  CG        55.6480  102.5370   76.5840 C.ar  163  HIS163      0.0821
    126  ND1       56.4910  103.0610   77.5420 N.ar  163  HIS163     -0.2267
    127  CD2       56.3000  102.6520   75.4040 C.ar  163  HIS163      0.1154
    128  CE1       57.6040  103.4780   76.9660 C.ar  163  HIS163      0.1986
    129  NE2       57.5150  103.2420   75.6690 N.ar  163  HIS163     -0.2212
    130  N         52.8800  103.3760   74.7910 N.am  164  GLU164     -0.1977
    131  CA        52.7880  104.1410   73.5530 C.3   164  GLU164      0.1602
    132  C         51.7300  105.2270   73.6170 C.2   164  GLU164      0.2287
    133  O         51.9590  106.3460   73.1610 O.2   164  GLU164     -0.2864
    134  CB        52.5190  103.2200   72.3560 C.3   164  GLU164      0.0415
    135  CG        53.7490  102.4590   71.8790 C.3   164  GLU164      0.1163
    136  CD        53.9850  101.1640   72.6300 C.2   164  GLU164      0.3649
    137  OE1       53.2820  100.8990   73.6230 O.co2 164  GLU164     -0.2457
    138  OE2       54.8830  100.4040   72.2220 O.co2 164  GLU164     -0.2457
    139  N         48.5640   89.9130   78.9480 N.3   190  GLU190     -0.1245
    140  CA        49.4460   90.5740   77.9890 C.3   190  GLU190      0.1567
    141  C         50.8970   90.1140   78.0690 C.2   190  GLU190      0.2260
    142  O         51.5210   89.8140   77.0480 O.2   190  GLU190     -0.2867
    143  CB        49.4110   92.0850   78.1790 C.3   190  GLU190      0.0388
    144  CG        50.1420   92.8380   77.0850 C.3   190  GLU190      0.1160
    145  CD        49.4270   92.7400   75.7510 C.2   190  GLU190      0.3649
    146  OE1       48.2670   93.1890   75.6720 O.co2 190  GLU190     -0.2457
    147  OE2       50.0200   92.2140   74.7840 O.co2 190  GLU190     -0.2457
@<TRIPOS>BOND
     1    60    61    2
     2    60    59    1
     3    91    90    2
     4    58    59    1
     5    58    64    1
     6    83    82    2
     7    65    66    1
     8    59    62    1
     9    82    81    1
    10    67    68    2
    11    67    66    1
    12    90    89    1
    13    89    88    1
    14    89    92    1
    15    84    81    1
    16    84    85    1
    17    64    63    1
    18    66    69    1
    19    95    93    1
    20    81    80    1
    21    62    63    1
    22    80    75   am
    23    85    87   am
    24    85    86    2
    25    73    74    1
    26    92    93    1
    27    93    94    1
    28    75    76    2
    29    75    74    1
    30    69    70    1
    31    69    71    1
    32    70    72    1
    33    74    77    1
    34    96    97    1
    35    97    98    1
    36    22    21   ar
    37    22    20   ar
    38    77    78    1
    39    77    79    1
    40    21    19   ar
    41    98    99    2
    42    20    18   ar
    43    56    55    2
    44    57    55   am
    45    55    54    1
    46    19    16   ar
    47    18    16   ar
    48    18    17   ar
    49   135   134    1
    50   135   136    1
    51    16    14   ar
    52   138   136   ar
    53    47    45   ar
    54    47    48   ar
    55   134   131    1
    56    17    15   ar
    57    49    48    1
    58   136   137   ar
    59    45    43   ar
    60    54    51    1
    61    48    46   ar
    62    52    53    2
    63    52    51    1
    64   133   132    2
    65     4     3    2
    66   100   101    1
    67    14    15   ar
    68    14    13    1
    69    51    50    1
    70   131   132    1
    71   131   130    1
    72    43    42    1
    73    43    44   ar
    74    46    44   ar
    75   109   107   ar
    76   109   110   ar
    77    10    13    1
    78    10    11    1
    79    10     9    1
    80    42    39    1
    81   107   105   ar
    82     3     9   am
    83     3     2    1
    84   111   110    1
    85    41    40    2
    86   101   102    1
    87   101   104    1
    88   147   145   ar
    89   130   122   am
    90    11    12    2
    91   110   108   ar
    92   103   102    2
    93    38    39    1
    94     2     5    1
    95     2     1    1
    96   105   104    1
    97   105   106   ar
    98    39    40    1
    99   127   129   ar
   100   127   125   ar
   101   129   128   ar
   102   146   145   ar
   103   145   144    1
   104     5     6    1
   105   108   106   ar
   106   122   123    2
   107   122   121    1
   108   125   124    1
   109   125   126   ar
   110     8     6   ar
   111     6     7   ar
   112   124   121    1
   113   128   126   ar
   114   142   141    2
   115   144   143    1
   116   121   120    1
   117   120   114   am
   118   140   141    1
   119   140   143    1
   120   140   139    1
   121    30    28   am
   122   112   113    1
   123   119   117   am
   124   114   113    1
   125   114   115    2
   126    27    28    1
   127    27    24    1
   128    28    29    2
   129   113   116    1
   130   117   118    2
   131   117   116    1
   132    23    24    1
   133    24    25    1
   134    36    35    1
   135    25    26    2
   136    35    37    1
   137    35    32    1
   138    31    32    1
   139    32    33    1
   140    33    34    2
