@<TRIPOS>MOLECULE
tmp/3ix4C00.pdb
 218 208 0 0 0
SMALL
GASTEIGER

@<TRIPOS>ATOM
      1  N         35.5510    8.9980   -4.9040 N.3    36  LEU36      -0.1245
      2  CA        35.6710   10.4370   -4.7900 C.3    36  LEU36       0.1561
      3  C         34.3300   11.0040   -4.3590 C.2    36  LEU36       0.2260
      4  O         33.3180   10.8180   -5.0370 O.2    36  LEU36      -0.2867
      5  CB        36.1320   11.0630   -6.1140 C.3    36  LEU36       0.0270
      6  CG        36.3180   12.5900   -6.1380 C.3    36  LEU36       0.0019
      7  CD1       37.5380   12.9790   -6.9470 C.3    36  LEU36       0.0001
      8  CD2       35.0760   13.3160   -6.6560 C.3    36  LEU36       0.0001
      9  N         32.6600   14.5330   -3.7650 N.3    38  GLY38      -0.1210
     10  CA        32.8480   15.9510   -4.0410 C.3    38  GLY38       0.1956
     11  C         31.6200   16.7300   -3.6480 C.2    38  GLY38       0.2612
     12  O         30.4930   16.2880   -3.8980 O.2    38  GLY38      -0.2717
     13  N         31.8190   17.8890   -3.0260 N.am   39  LEU39      -0.1965
     14  CA        30.6840   18.7080   -2.6370 C.3    39  LEU39       0.1728
     15  C         30.9360   20.2020   -2.7980 C.2    39  LEU39       0.2616
     16  O         31.9990   20.7100   -2.4190 O.2    39  LEU39      -0.2715
     17  CB        30.2570   18.3880   -1.2060 C.3    39  LEU39       0.0311
     18  CG        28.8420   18.7600   -0.7570 C.3    39  LEU39       0.0022
     19  CD1       27.7650   17.9230   -1.4470 C.3    39  LEU39       0.0001
     20  CD2       28.7440   18.5940    0.7340 C.3    39  LEU39       0.0001
     21  N         29.9370   20.8820   -3.3670 N.am   40  LEU40      -0.1977
     22  CA        29.9270   22.3410   -3.5070 C.3    40  LEU40       0.1596
     23  C         28.7550   22.9510   -2.7340 C.2    40  LEU40       0.2287
     24  O         27.7280   22.2940   -2.5510 O.2    40  LEU40      -0.2864
     25  CB        29.8350   22.7420   -4.9840 C.3    40  LEU40       0.0297
     26  CG        31.0990   22.6230   -5.8380 C.3    40  LEU40       0.0022
     27  CD1       30.7540   22.8030   -7.2980 C.3    40  LEU40       0.0001
     28  CD2       32.1600   23.6350   -5.4020 C.3    40  LEU40       0.0001
     29  N         34.1250   23.9970   -9.3240 N.3    47  TYR47      -0.1241
     30  CA        34.5570   22.6020   -9.2160 C.3    47  TYR47       0.1605
     31  C         36.0170   22.4340   -8.8340 C.2    47  TYR47       0.2264
     32  O         36.3720   21.4500   -8.1880 O.2    47  TYR47      -0.2867
     33  CB        34.2970   21.8510  -10.5200 C.3    47  TYR47       0.0534
     34  CG        32.8380   21.7270  -10.8600 C.ar   47  TYR47      -0.0201
     35  CD1       32.2340   22.6170  -11.7450 C.ar   47  TYR47      -0.0009
     36  CD2       32.0500   20.7310  -10.2810 C.ar   47  TYR47      -0.0009
     37  CE1       30.8790   22.5140  -12.0540 C.ar   47  TYR47       0.0417
     38  CE2       30.6970   20.6190  -10.5850 C.ar   47  TYR47       0.0417
     39  CZ        30.1190   21.5160  -11.4710 C.ar   47  TYR47       0.1957
     40  OH        28.7820   21.4100  -11.7800 O.3    47  TYR47      -0.2866
     41  N         36.0940   22.5550   -4.9390 N.3    50  ALA50      -0.1245
     42  CA        35.1200   21.7430   -4.2180 C.3    50  ALA50       0.1562
     43  C         35.7240   21.1110   -2.9710 C.2    50  ALA50       0.2260
     44  O         36.9470   20.9890   -2.8380 O.2    50  ALA50      -0.2867
     45  CB        34.5550   20.6610   -5.1260 C.3    50  ALA50       0.0290
     46  N         36.5850   17.9420   -1.4620 N.3    52  ILE52      -0.1245
     47  CA        36.8160   16.6210   -2.0400 C.3    52  ILE52       0.1561
     48  C         37.4600   15.6610   -1.0520 C.2    52  ILE52       0.2260
     49  O         38.4100   16.0130   -0.3460 O.2    52  ILE52      -0.2867
     50  CB        37.6320   16.6910   -3.3550 C.3    52  ILE52       0.0252
     51  CG1       36.7670   17.2710   -4.4750 C.3    52  ILE52       0.0019
     52  CG2       38.1040   15.3050   -3.7840 C.3    52  ILE52       0.0019
     53  CD1       37.5210   18.1620   -5.3870 C.3    52  ILE52       0.0001
     54  N         41.2060    8.6470   -5.0590 N.3    56  TYR56      -0.1241
     55  CA        41.6160    8.8080   -6.4570 C.3    56  TYR56       0.1605
     56  C         43.0870    9.2270   -6.4450 C.2    56  TYR56       0.2264
     57  O         43.4860   10.0300   -5.5950 O.2    56  TYR56      -0.2867
     58  CB        40.8160    9.9250   -7.1390 C.3    56  TYR56       0.0534
     59  CG        39.4750    9.5540   -7.7500 C.ar   56  TYR56      -0.0201
     60  CD1       38.8970   10.3760   -8.7250 C.ar   56  TYR56      -0.0009
     61  CD2       38.7800    8.4080   -7.3660 C.ar   56  TYR56      -0.0009
     62  CE1       37.6590   10.0720   -9.2890 C.ar   56  TYR56       0.0417
     63  CE2       37.5370    8.0870   -7.9410 C.ar   56  TYR56       0.0417
     64  CZ        36.9910    8.9270   -8.9030 C.ar   56  TYR56       0.1957
     65  OH        35.7700    8.6290   -9.4730 O.3    56  TYR56      -0.2866
     66  N         45.9400   12.3470  -10.7680 N.3    60  TRP60      -0.1227
     67  CA        44.7050   12.3800  -11.5540 C.3    60  TRP60       0.1737
     68  C         43.8100   13.5590  -11.1770 C.2    60  TRP60       0.2595
     69  O         43.3110   14.2660  -12.0570 O.2    60  TRP60      -0.2718
     70  CB        43.9370   11.0520  -11.4660 C.3    60  TRP60       0.0564
     71  CG        42.5760   11.1380  -12.1100 C.ar   60  TRP60       0.0003
     72  CD1       41.3680   10.9880  -11.4940 C.ar   60  TRP60       0.0946
     73  CD2       42.2930   11.4510  -13.4800 C.ar   60  TRP60       0.0152
     74  NE1       40.3470   11.1680  -12.4010 N.ar   60  TRP60      -0.2442
     75  CE2       40.8890   11.4550  -13.6270 C.ar   60  TRP60       0.0810
     76  CE3       43.0910   11.7300  -14.6000 C.ar   60  TRP60       0.0012
     77  CZ2       40.2620   11.7100  -14.8510 C.ar   60  TRP60       0.0191
     78  CZ3       42.4660   11.9900  -15.8160 C.ar   60  TRP60       0.0001
     79  CH2       41.0650   11.9770  -15.9280 C.ar   60  TRP60       0.0015
     80  N         43.6070   13.7660   -9.8760 N.am   61  ARG61      -0.1980
     81  CA        42.8420   14.9060   -9.3770 C.3    61  ARG61       0.1597
     82  C         43.4800   16.2390   -9.7890 C.2    61  ARG61       0.2287
     83  O         42.7860   17.1980  -10.1510 O.2    61  ARG61      -0.2864
     84  CB        42.6970   14.8220   -7.8550 C.3    61  ARG61       0.0334
     85  CG        41.7880   13.6880   -7.3810 C.3    61  ARG61       0.0492
     86  CD        41.7840   13.5300   -5.8590 C.3    61  ARG61       0.2205
     87  NE        41.5780   14.7930   -5.1500 N.pl3  61  ARG61      -0.0865
     88  CZ        41.4740   14.9110   -3.8270 C.cat  61  ARG61       0.5346
     89  NH1       41.2930   16.1080   -3.2850 N.pl3  61  ARG61       0.1354
     90  NH2       41.5380   13.8390   -3.0380 N.pl3  61  ARG61       0.1354
     91  N         42.7890   16.5650  -13.5720 N.3    64  TYR64      -0.1227
     92  CA        41.3840   16.9110  -13.7740 C.3    64  TYR64       0.1736
     93  C         41.1500   18.4140  -13.6020 C.2    64  TYR64       0.2595
     94  O         40.4770   19.0360  -14.4290 O.2    64  TYR64      -0.2718
     95  CB        40.5210   16.1200  -12.7900 C.3    64  TYR64       0.0548
     96  CG        39.0220   16.2020  -13.0090 C.ar   64  TYR64      -0.0200
     97  CD1       38.3270   15.1360  -13.5760 C.ar   64  TYR64      -0.0009
     98  CD2       38.2960   17.3280  -12.6110 C.ar   64  TYR64      -0.0009
     99  CE1       36.9430   15.1930  -13.7610 C.ar   64  TYR64       0.0417
    100  CE2       36.9110   17.3940  -12.7910 C.ar   64  TYR64       0.0417
    101  CZ        36.2480   16.3220  -13.3650 C.ar   64  TYR64       0.1957
    102  OH        34.8870   16.3780  -13.5460 O.3    64  TYR64      -0.2866
    103  N         41.6970   18.9830  -12.5250 N.am   65  ASP65      -0.1974
    104  CA        41.5880   20.4200  -12.2510 C.3    65  ASP65       0.1709
    105  C         42.2930   21.2560  -13.3190 C.2    65  ASP65       0.2293
    106  O         41.7240   22.2230  -13.8380 O.2    65  ASP65      -0.2864
    107  CB        42.1780   20.7690  -10.8820 C.3    65  ASP65       0.1436
    108  CG        41.2610   20.4070   -9.7230 C.2    65  ASP65       0.3671
    109  OD1       40.0850   20.0450   -9.9500 O.co2  65  ASP65      -0.2456
    110  OD2       41.7320   20.4960   -8.5690 O.co2  65  ASP65      -0.2456
    111  N         33.3330   16.3920  -18.3960 N.3    73  ASP73      -0.1239
    112  CA        32.9710   15.1670  -17.6920 C.3    73  ASP73       0.1674
    113  C         31.4490   15.0210  -17.7520 C.2    73  ASP73       0.2266
    114  O         30.7270   15.8680  -17.2150 O.2    73  ASP73      -0.2867
    115  CB        33.4640   15.2730  -16.2460 C.3    73  ASP73       0.1410
    116  CG        33.1610   14.0390  -15.3980 C.2    73  ASP73       0.3668
    117  OD1       32.3750   13.1540  -15.8010 O.co2  73  ASP73      -0.2456
    118  OD2       33.7230   13.9850  -14.2820 O.co2  73  ASP73      -0.2456
    119  N         29.4910   13.0220  -16.2660 N.3    75  THR75      -0.1203
    120  CA        28.8630   12.7940  -14.9600 C.3    75  THR75       0.1994
    121  C         28.5600   14.1130  -14.2610 C.2    75  THR75       0.2617
    122  O         27.5910   14.2110  -13.5080 O.2    75  THR75      -0.2717
    123  CB        29.6980   11.8610  -14.0400 C.3    75  THR75       0.1784
    124  OG1       30.9380   12.4950  -13.6950 O.3    75  THR75      -0.2211
    125  CG2       29.9680   10.5300  -14.7290 C.3    75  THR75       0.0376
    126  N         29.3710   15.1360  -14.5350 N.am   76  VAL76      -0.1979
    127  CA        29.1620   16.4600  -13.9540 C.3    76  VAL76       0.1595
    128  C         27.8590   17.0890  -14.4600 C.2    76  VAL76       0.2287
    129  O         27.0080   17.5010  -13.6600 O.2    76  VAL76      -0.2864
    130  CB        30.3730   17.3970  -14.1990 C.3    76  VAL76       0.0276
    131  CG1       30.0860   18.7900  -13.6810 C.3    76  VAL76       0.0022
    132  CG2       31.6250   16.8360  -13.5220 C.3    76  VAL76       0.0022
    133  N         24.8180   15.3200  -13.0850 N.3    79  CYS79      -0.1235
    134  CA        24.5240   15.6470  -11.6900 C.3    79  CYS79       0.1677
    135  C         23.7490   16.9580  -11.5370 C.2    79  CYS79       0.2270
    136  O         23.0120   17.1380  -10.5700 O.2    79  CYS79      -0.2867
    137  CB        25.8130   15.7110  -10.8640 C.3    79  CYS79       0.0956
    138  SG        26.5720   14.1050  -10.5320 S.3    79  CYS79      -0.0801
    139  N         29.2670    4.3770  -15.5680 N.3    88  TRP88      -0.1241
    140  CA        30.3700    4.7080  -16.4700 C.3    88  TRP88       0.1605
    141  C         30.4050    3.7590  -17.6700 C.2    88  TRP88       0.2264
    142  O         31.2180    2.8300  -17.7230 O.2    88  TRP88      -0.2867
    143  CB        31.7140    4.6790  -15.7370 C.3    88  TRP88       0.0550
    144  CG        31.8030    5.5450  -14.5110 C.ar   88  TRP88       0.0003
    145  CD1       30.8910    6.4650  -14.0690 C.ar   88  TRP88       0.0946
    146  CD2       32.8960    5.5880  -13.5900 C.ar   88  TRP88       0.0152
    147  NE1       31.3420    7.0610  -12.9140 N.ar   88  TRP88      -0.2442
    148  CE2       32.5730    6.5430  -12.6000 C.ar   88  TRP88       0.0810
    149  CE3       34.1180    4.9080  -13.5040 C.ar   88  TRP88       0.0012
    150  CZ2       33.4290    6.8320  -11.5340 C.ar   88  TRP88       0.0191
    151  CZ3       34.9680    5.1960  -12.4460 C.ar   88  TRP88       0.0001
    152  CH2       34.6200    6.1500  -11.4770 C.ar   88  TRP88       0.0015
    153  N         30.2300    8.8570  -23.0030 N.3    93  TYR93      -0.1241
    154  CA        31.3200    9.6280  -23.5770 C.3    93  TYR93       0.1605
    155  C         31.0200    9.7750  -25.0550 C.2    93  TYR93       0.2264
    156  O         31.2520    8.8580  -25.8380 O.2    93  TYR93      -0.2867
    157  CB        32.6650    8.9310  -23.3320 C.3    93  TYR93       0.0534
    158  CG        32.8600    8.5170  -21.8810 C.ar   93  TYR93      -0.0201
    159  CD1       32.6590    7.1940  -21.4810 C.ar   93  TYR93      -0.0009
    160  CD2       33.2220    9.4530  -20.9090 C.ar   93  TYR93      -0.0009
    161  CE1       32.8260    6.8080  -20.1460 C.ar   93  TYR93       0.0417
    162  CE2       33.3900    9.0770  -19.5710 C.ar   93  TYR93       0.0417
    163  CZ        33.1880    7.7540  -19.2020 C.ar   93  TYR93       0.1957
    164  OH        33.3510    7.3750  -17.8820 O.3    93  TYR93      -0.2866
    165  N         38.7150   12.3210  -22.3390 N.3   101  PHE101     -0.1241
    166  CA        38.5070   12.2410  -20.8960 C.3   101  PHE101      0.1605
    167  C         38.4590   10.7850  -20.4400 C.2   101  PHE101      0.2264
    168  O         39.1610   10.4080  -19.4960 O.2   101  PHE101     -0.2867
    169  CB        37.2350   12.9910  -20.4840 C.3   101  PHE101      0.0534
    170  CG        36.8620   12.8020  -19.0360 C.ar  101  PHE101     -0.0203
    171  CD1       37.5930   13.4250  -18.0280 C.ar  101  PHE101     -0.0042
    172  CD2       35.7840   11.9990  -18.6840 C.ar  101  PHE101     -0.0042
    173  CE1       37.2570   13.2510  -16.6900 C.ar  101  PHE101     -0.0003
    174  CE2       35.4360   11.8160  -17.3370 C.ar  101  PHE101     -0.0003
    175  CZ        36.1750   12.4430  -16.3460 C.ar  101  PHE101     -0.0000
    176  N         41.0160    8.9860  -17.9080 N.3   105  ALA105     -0.1245
    177  CA        40.4840    8.3690  -16.6900 C.3   105  ALA105      0.1562
    178  C         40.8550    6.8890  -16.6100 C.2   105  ALA105      0.2260
    179  O         41.1990    6.3890  -15.5380 O.2   105  ALA105     -0.2867
    180  CB        38.9700    8.5440  -16.6200 C.3   105  ALA105      0.0290
    181  N         40.5390    4.2090  -13.6780 N.3   110  LEU110     -0.1245
    182  CA        39.1130    4.4430  -13.4830 C.3   110  LEU110      0.1561
    183  C         38.3430    4.1710  -14.7730 C.2   110  LEU110      0.2260
    184  O         38.2270    5.0470  -15.6370 O.2   110  LEU110     -0.2867
    185  CB        38.8760    5.8740  -12.9820 C.3   110  LEU110      0.0270
    186  CG        39.6650    6.2510  -11.7180 C.3   110  LEU110      0.0019
    187  CD1       40.0010    7.7350  -11.6650 C.3   110  LEU110      0.0001
    188  CD2       38.9410    5.8210  -10.4510 C.3   110  LEU110      0.0001
    189  N         28.4910    7.0940  -10.7940 N.3   115  THR115     -0.1218
    190  CA        28.4710    8.3510  -10.0590 C.3   115  THR115      0.1862
    191  C         27.0510    8.5810   -9.5440 C.2   115  THR115      0.2287
    192  O         26.0920    8.5890  -10.3190 O.2   115  THR115     -0.2866
    193  CB        28.9480    9.5320  -10.9470 C.3   115  THR115      0.1770
    194  OG1       30.3120    9.3240  -11.3420 O.3   115  THR115     -0.2211
    195  CG2       28.8490   10.8640  -10.2090 C.3   115  THR115      0.0375
    196  N         25.5570   20.8380   -3.8740 N.3   125  LEU125     -0.1231
    197  CA        25.6540   20.0520   -5.0990 C.3   125  LEU125      0.1693
    198  C         26.9140   19.1970   -5.0490 C.2   125  LEU125      0.2593
    199  O         27.9930   19.7030   -4.7640 O.2   125  LEU125     -0.2718
    200  CB        25.6990   20.9780   -6.3210 C.3   125  LEU125      0.0284
    201  CG        26.1300   20.3850   -7.6660 C.3   125  LEU125      0.0019
    202  CD1       25.1140   19.3910   -8.2020 C.3   125  LEU125      0.0001
    203  CD2       26.4160   21.4910   -8.7040 C.3   125  LEU125      0.0001
    204  N         26.7780   17.9060   -5.3260 N.am  126  GLY126     -0.1942
    205  CA        27.9150   17.0010   -5.2030 C.3   126  GLY126      0.2014
    206  C         27.8080   15.7280   -6.0070 C.2   126  GLY126      0.2638
    207  O         26.8540   15.5260   -6.7690 O.2   126  GLY126     -0.2714
    208  N         28.7930   14.8550   -5.8150 N.am  127  ALA127     -0.1977
    209  CA        28.8080   13.5410   -6.4390 C.3   127  ALA127      0.1597
    210  C         29.5380   12.5540   -5.5440 C.2   127  ALA127      0.2287
    211  O         30.5250   12.9130   -4.8870 O.2   127  ALA127     -0.2864
    212  CB        29.4760   13.5950   -7.7920 C.3   127  ALA127      0.0319
    213  N         31.3790    9.2460   -6.5190 N.3   129  SER129     -0.1217
    214  CA        31.8460    8.3810   -7.5900 C.3   129  SER129      0.1889
    215  C         32.6140    7.2130   -6.9980 C.2   129  SER129      0.2288
    216  O         33.4170    7.3860   -6.0730 O.2   129  SER129     -0.2866
    217  CB        32.7310    9.1570   -8.5590 C.3   129  SER129      0.2089
    218  OG        31.9970   10.1780   -9.2230 O.3   129  SER129     -0.2183
@<TRIPOS>BOND
     1   156   155    2
     2   155   154    1
     3   154   157    1
     4   154   153    1
     5   157   158    1
     6   165   166    1
     7   158   159   ar
     8   158   160   ar
     9   159   161   ar
    10   160   162   ar
    11   166   169    1
    12   166   167    1
    13   169   170    1
    14   167   168    2
    15   161   163   ar
    16   162   163   ar
    17   163   164    1
    18   170   172   ar
    19   170   171   ar
    20   172   174   ar
    21   111   112    1
    22   171   173   ar
    23   176   177    1
    24   113   112    1
    25   113   114    2
    26   142   141    2
    27   112   115    1
    28   141   140    1
    29   174   175   ar
    30   173   175   ar
    31   177   180    1
    32   177   178    1
    33   178   179    2
    34   140   143    1
    35   140   139    1
    36   119   120    1
    37   115   116    1
    38    79    78   ar
    39    79    77   ar
    40    78    76   ar
    41   117   116   ar
    42   143   144    1
    43   184   183    2
    44   116   118   ar
    45   120   121    1
    46   120   123    1
    47    77    75   ar
    48   183   182    1
    49   125   123    1
    50    76    73   ar
    51   126   121   am
    52   126   127    1
    53   144   145   ar
    54   144   146   ar
    55   128   127    1
    56   128   129    2
    57    94    93    2
    58   121   122    2
    59   130   127    1
    60   130   131    1
    61   130   132    1
    62   145   147   ar
    63   123   124    1
    64   106   105    2
    65    92    93    1
    66    92    91    1
    67    92    95    1
    68    99    97   ar
    69    99   101   ar
    70   181   182    1
    71    75    73   ar
    72    75    74   ar
    73    93   103   am
    74   146   149   ar
    75   146   148   ar
    76    97    96   ar
    77   102   101    1
    78   149   151   ar
    79   182   185    1
    80    73    71   ar
    81   101   100   ar
    82   105   104    1
    83   133   134    1
    84    96    95    1
    85    96    98   ar
    86   185   186    1
    87   147   148   ar
    88   100    98   ar
    89   148   150   ar
    90   103   104    1
    91   151   152   ar
    92    74    72   ar
    93   104   107    1
    94    71    72   ar
    95    71    70    1
    96    69    68    2
    97    37    35   ar
    98    37    39   ar
    99    40    39    1
   100    35    34   ar
   101   186   187    1
   102   186   188    1
   103   134   135    1
   104   134   137    1
   105    67    70    1
   106    67    68    1
   107    67    66    1
   108   135   136    2
   109   150   152   ar
   110    39    38   ar
   111   194   193    1
   112    68    80   am
   113   193   195    1
   114   193   190    1
   115   107   108    1
   116   137   138    1
   117    34    33    1
   118    34    36   ar
   119   189   190    1
   120    38    36   ar
   121    33    30    1
   122   192   191    2
   123    83    82    2
   124   190   191    1
   125   109   108   ar
   126    80    81    1
   127    82    81    1
   128   108   110   ar
   129    65    64    1
   130    81    84    1
   131    29    30    1
   132    62    64   ar
   133    62    60   ar
   134   218   217    1
   135    30    31    1
   136    64    63   ar
   137    31    32    2
   138    60    59   ar
   139   203   201    1
   140   217   214    1
   141   202   201    1
   142    63    61   ar
   143    84    85    1
   144   212   209    1
   145    59    61   ar
   146    59    58    1
   147   201   200    1
   148   214   215    1
   149   214   213    1
   150    85    86    1
   151    27    26    1
   152    58    55    1
   153   215   216    2
   154     7     6    1
   155   207   206    2
   156     8     6    1
   157    55    56    1
   158    55    54    1
   159    56    57    2
   160   209   208    1
   161   209   210    1
   162   200   197    1
   163     6     5    1
   164     5     2    1
   165   206   208   am
   166   206   205    1
   167    86    87    1
   168    26    28    1
   169    26    25    1
   170   210   211    2
   171    53    51    1
   172   204   205    1
   173   204   198   am
   174    87    88    2
   175    45    42    1
   176   197   198    1
   177   197   196    1
   178   198   199    2
   179     4     3    2
   180    25    22    1
   181    41    42    1
   182     1     2    1
   183     2     3    1
   184    51    50    1
   185    42    43    1
   186    10     9    1
   187    10    11    1
   188    12    11    2
   189    88    89    1
   190    88    90    1
   191    52    50    1
   192    11    13   am
   193    22    21    1
   194    22    23    1
   195    21    15   am
   196    50    47    1
   197    13    14    1
   198    43    44    2
   199    15    14    1
   200    15    16    2
   201    23    24    2
   202    14    17    1
   203    47    46    1
   204    47    48    1
   205    19    18    1
   206    17    18    1
   207    48    49    2
   208    18    20    1
