@<TRIPOS>MOLECULE
tmp/3ix8B00.pdb
 225 215 0 0 0
SMALL
GASTEIGER

@<TRIPOS>ATOM
      1  N        -29.7760    7.8360   38.5360 N.3    31  LEU31      -0.1245
      2  CA       -29.8360    9.1770   37.9910 C.3    31  LEU31       0.1561
      3  C        -28.4940    9.5130   37.3860 C.2    31  LEU31       0.2260
      4  O        -27.4500    9.3500   38.0250 O.2    31  LEU31      -0.2867
      5  CB       -30.2220   10.2140   39.0570 C.3    31  LEU31       0.0270
      6  CG       -30.3100   11.6810   38.5840 C.3    31  LEU31       0.0019
      7  CD1      -31.4490   12.4070   39.2750 C.3    31  LEU31       0.0001
      8  CD2      -28.9940   12.4250   38.7350 C.3    31  LEU31       0.0001
      9  N        -26.8530   12.8350   35.8520 N.3    33  GLY33      -0.1210
     10  CA       -27.0660   14.2680   35.7400 C.3    33  GLY33       0.1956
     11  C        -25.8330   14.9250   35.1750 C.2    33  GLY33       0.2612
     12  O        -24.7220   14.5360   35.5180 O.2    33  GLY33      -0.2717
     13  N        -26.0140   15.9170   34.3060 N.am   34  LEU34      -0.1965
     14  CA       -24.8780   16.5810   33.6840 C.3    34  LEU34       0.1728
     15  C        -25.1470   18.0510   33.3900 C.2    34  LEU34       0.2616
     16  O        -26.2450   18.4100   32.9470 O.2    34  LEU34      -0.2715
     17  CB       -24.4700   15.8420   32.4100 C.3    34  LEU34       0.0311
     18  CG       -23.0310   15.9290   31.9260 C.3    34  LEU34       0.0022
     19  CD1      -22.0950   15.2960   32.9370 C.3    34  LEU34       0.0001
     20  CD2      -22.8810   15.2480   30.5620 C.3    34  LEU34       0.0001
     21  N        -24.1400   18.8770   33.6740 N.am   35  LEU35      -0.1977
     22  CA       -24.1210   20.3050   33.3340 C.3    35  LEU35       0.1596
     23  C        -22.9350   20.6340   32.4220 C.2    35  LEU35       0.2287
     24  O        -21.8980   19.9600   32.4720 O.2    35  LEU35      -0.2864
     25  CB       -24.0490   21.1640   34.6080 C.3    35  LEU35       0.0297
     26  CG       -25.3530   21.3710   35.3890 C.3    35  LEU35       0.0022
     27  CD1      -25.1000   21.7600   36.8550 C.3    35  LEU35       0.0001
     28  CD2      -26.2500   22.3910   34.6950 C.3    35  LEU35       0.0001
     29  N        -28.3690   24.0190   38.2940 N.3    42  TYR42      -0.1241
     30  CA       -28.7670   22.6510   38.6030 C.3    42  TYR42       0.1605
     31  C        -30.2090   22.3440   38.2360 C.2    42  TYR42       0.2264
     32  O        -30.5170   21.2250   37.8300 O.2    42  TYR42      -0.2867
     33  CB       -28.5130   22.3370   40.0790 C.3    42  TYR42       0.0534
     34  CG       -27.0440   22.2070   40.4110 C.ar   42  TYR42      -0.0201
     35  CD1      -26.3730   21.0050   40.2050 C.ar   42  TYR42      -0.0009
     36  CD2      -26.3240   23.2840   40.9290 C.ar   42  TYR42      -0.0009
     37  CE1      -25.0180   20.8760   40.5020 C.ar   42  TYR42       0.0417
     38  CE2      -24.9650   23.1660   41.2280 C.ar   42  TYR42       0.0417
     39  CZ       -24.3200   21.9550   41.0040 C.ar   42  TYR42       0.1957
     40  OH       -22.9850   21.8150   41.2970 O.3    42  TYR42      -0.2866
     41  N        -30.3260   21.0780   34.6330 N.3    45  ALA45      -0.1245
     42  CA       -29.3400   20.0610   34.2840 C.3    45  ALA45       0.1562
     43  C        -29.9250   19.0780   33.2810 C.2    45  ALA45       0.2260
     44  O        -31.1380   18.9360   33.1800 O.2    45  ALA45      -0.2867
     45  CB       -28.9120   19.3200   35.5330 C.3    45  ALA45       0.0290
     46  N        -30.7730   15.5550   32.8150 N.3    47  ILE47      -0.1245
     47  CA       -31.0510   14.4620   33.7440 C.3    47  ILE47       0.1561
     48  C        -31.6430   13.2700   33.0130 C.2    47  ILE47       0.2260
     49  O        -32.5870   13.4050   32.2280 O.2    47  ILE47      -0.2867
     50  CB       -32.0350   14.8790   34.8760 C.3    47  ILE47       0.0252
     51  CG1      -31.5090   16.0960   35.6610 C.3    47  ILE47       0.0019
     52  CG2      -32.3480   13.6980   35.7930 C.3    47  ILE47       0.0019
     53  CD1      -30.2730   15.8240   36.4970 C.3    47  ILE47       0.0001
     54  N        -35.4340    7.7240   38.7860 N.3    51  TYR51      -0.1241
     55  CA       -35.8680    8.3100   40.0540 C.3    51  TYR51       0.1605
     56  C        -37.3510    8.6910   39.9360 C.2    51  TYR51       0.2264
     57  O        -37.7880    9.1500   38.8570 O.2    51  TYR51      -0.2867
     58  CB       -35.0670    9.5780   40.3820 C.3    51  TYR51       0.0534
     59  CG       -33.7440    9.3740   41.0820 C.ar   51  TYR51      -0.0201
     60  CD1      -33.0870    8.1430   41.0510 C.ar   51  TYR51      -0.0009
     61  CD2      -33.1290   10.4320   41.7510 C.ar   51  TYR51      -0.0009
     62  CE1      -31.8570    7.9710   41.6940 C.ar   51  TYR51       0.0417
     63  CE2      -31.8960   10.2700   42.3880 C.ar   51  TYR51       0.0417
     64  CZ       -31.2720    9.0390   42.3580 C.ar   51  TYR51       0.1957
     65  OH       -30.0560    8.8820   42.9920 O.3    51  TYR51      -0.2866
     66  N        -40.2440   12.9010   43.1810 N.3    55  TRP55      -0.1227
     67  CA       -39.0020   13.2270   43.8870 C.3    55  TRP55       0.1737
     68  C        -38.1390   14.2370   43.1350 C.2    55  TRP55       0.2595
     69  O        -37.6520   15.1960   43.7330 O.2    55  TRP55      -0.2718
     70  CB       -38.1960   11.9650   44.1930 C.3    55  TRP55       0.0564
     71  CG       -36.8530   12.2880   44.7570 C.ar   55  TRP55       0.0003
     72  CD1      -35.6380   11.9940   44.2020 C.ar   55  TRP55       0.0946
     73  CD2      -36.5810   13.0220   45.9660 C.ar   55  TRP55       0.0152
     74  NE1      -34.6250   12.4780   45.0120 N.ar   55  TRP55      -0.2442
     75  CE2      -35.1770   13.1150   46.0920 C.ar   55  TRP55       0.0810
     76  CE3      -37.3900   13.5970   46.9580 C.ar   55  TRP55       0.0012
     77  CZ2      -34.5570   13.7640   47.1710 C.ar   55  TRP55       0.0191
     78  CZ3      -36.7700   14.2500   48.0340 C.ar   55  TRP55       0.0001
     79  CH2      -35.3650   14.3190   48.1290 C.ar   55  TRP55       0.0015
     80  N        -37.9170   14.0030   41.8420 N.am   56  ARG56      -0.1980
     81  CA       -37.1950   14.9600   41.0100 C.3    56  ARG56       0.1597
     82  C        -37.8320   16.3530   41.0340 C.2    56  ARG56       0.2287
     83  O        -37.1330   17.3590   41.1060 O.2    56  ARG56      -0.2864
     84  CB       -37.0410   14.4380   39.5790 C.3    56  ARG56       0.0334
     85  CG       -36.0240   13.2840   39.4860 C.3    56  ARG56       0.0492
     86  CD       -35.9780   12.6520   38.1030 C.3    56  ARG56       0.2205
     87  NE       -35.7610   13.6540   37.0700 N.pl3  56  ARG56      -0.0865
     88  CZ       -35.6550   13.3930   35.7710 C.cat  56  ARG56       0.5346
     89  NH1      -35.7240   12.1450   35.3190 N.pl3  56  ARG56       0.1354
     90  NH2      -35.4590   14.3940   34.9260 N.pl3  56  ARG56       0.1354
     91  N        -37.0910   17.9620   44.4210 N.3    59  TYR59      -0.1227
     92  CA       -35.6870   18.3700   44.5300 C.3    59  TYR59       0.1736
     93  C        -35.4640   19.7210   43.8540 C.2    59  TYR59       0.2595
     94  O        -34.7760   20.5900   44.3900 O.2    59  TYR59      -0.2718
     95  CB       -34.7970   17.2810   43.9180 C.3    59  TYR59       0.0548
     96  CG       -33.2990   17.4310   44.0610 C.ar   59  TYR59      -0.0200
     97  CD1      -32.5770   16.5660   44.8790 C.ar   59  TYR59      -0.0009
     98  CD2      -32.5930   18.3820   43.3320 C.ar   59  TYR59      -0.0009
     99  CE1      -31.2090   16.6620   44.9900 C.ar   59  TYR59       0.0417
    100  CE2      -31.2080   18.4850   43.4430 C.ar   59  TYR59       0.0417
    101  CZ       -30.5300   17.6210   44.2790 C.ar   59  TYR59       0.1957
    102  OH       -29.1610   17.7170   44.3940 O.3    59  TYR59      -0.2866
    103  N        -36.0820   19.9060   42.6920 N.am   60  ASP60      -0.1974
    104  CA       -35.9780   21.1650   41.9650 C.3    60  ASP60       0.1709
    105  C        -36.6370   22.3020   42.7540 C.2    60  ASP60       0.2293
    106  O        -36.0420   23.3740   42.9260 O.2    60  ASP60      -0.2864
    107  CB       -36.6130   21.0400   40.5760 C.3    60  ASP60       0.1436
    108  CG       -35.7150   20.3320   39.5720 C.2    60  ASP60       0.3671
    109  OD1      -34.5680   19.9680   39.9180 O.co2  60  ASP60      -0.2456
    110  OD2      -36.1660   20.1380   38.4160 O.co2  60  ASP60      -0.2456
    111  N        -27.6790   19.1560   49.1060 N.3    68  ASP68      -0.1239
    112  CA       -27.3130   17.7740   48.8060 C.3    68  ASP68       0.1674
    113  C        -25.8100   17.5880   49.0200 C.2    68  ASP68       0.2266
    114  O        -25.0050   18.2390   48.3510 O.2    68  ASP68      -0.2867
    115  CB       -27.6920   17.4810   47.3510 C.3    68  ASP68       0.1410
    116  CG       -27.5020   16.0230   46.9610 C.2    68  ASP68       0.3668
    117  OD1      -26.7210   15.2980   47.6150 O.co2  68  ASP68      -0.2456
    118  OD2      -28.1240   15.6180   45.9530 O.co2  68  ASP68      -0.2456
    119  N        -23.8970   15.1420   48.2810 N.3    70  THR70      -0.1203
    120  CA       -23.2050   14.5260   47.1450 C.3    70  THR70       0.1994
    121  C        -22.8460   15.5690   46.0890 C.2    70  THR70       0.2617
    122  O        -21.8260   15.4400   45.4100 O.2    70  THR70      -0.2717
    123  CB       -24.0120   13.3880   46.5040 C.3    70  THR70       0.1784
    124  OG1      -25.1850   13.9190   45.8810 O.3    70  THR70      -0.2211
    125  CG2      -24.4090   12.3530   47.5640 C.3    70  THR70       0.0376
    126  N        -23.6810   16.6020   45.9600 N.am   71  VAL71      -0.1979
    127  CA       -23.4120   17.7080   45.0430 C.3    71  VAL71       0.1595
    128  C        -22.1290   18.4250   45.4500 C.2    71  VAL71       0.2287
    129  O        -21.2350   18.6320   44.6190 O.2    71  VAL71      -0.2864
    130  CB       -24.6110   18.6970   44.9340 C.3    71  VAL71       0.0276
    131  CG1      -24.2190   19.9230   44.1370 C.3    71  VAL71       0.0022
    132  CG2      -25.8030   18.0110   44.2620 C.3    71  VAL71       0.0022
    133  N        -19.1340   16.2000   44.6870 N.3    74  CYS74      -0.1221
    134  CA       -18.7680   16.1940   43.2690 C.3    74  CYS74       0.1808
    135  C        -17.9220   17.4080   42.8510 C.2    74  CYS74       0.2601
    136  O        -17.0290   17.2780   42.0180 O.2    74  CYS74      -0.2717
    137  CB       -20.0080   16.0430   42.3740 C.3    74  CYS74       0.0970
    138  SG       -20.8840   14.4740   42.5940 S.3    74  CYS74      -0.0800
    139  N        -18.1670   18.5760   43.4430 N.am   75  THR75      -0.1953
    140  CA       -17.3560   19.7700   43.1160 C.3    75  THR75       0.1897
    141  C        -15.8970   19.6380   43.5500 C.2    75  THR75       0.2313
    142  O        -15.0290   20.3790   43.0740 O.2    75  THR75      -0.2863
    143  CB       -17.9300   21.0730   43.7190 C.3    75  THR75       0.1794
    144  OG1      -17.8490   21.0120   45.1460 O.3    75  THR75      -0.2208
    145  CG2      -19.3690   21.2800   43.3010 C.3    75  THR75       0.0378
    146  N        -23.7530    6.6410   50.3790 N.3    83  TRP83      -0.1241
    147  CA       -24.8120    7.3670   51.0790 C.3    83  TRP83       0.1605
    148  C        -24.9190    6.9250   52.5350 C.2    83  TRP83       0.2264
    149  O        -25.9070    6.3200   52.9530 O.2    83  TRP83      -0.2867
    150  CB       -26.1630    7.2070   50.3800 C.3    83  TRP83       0.0550
    151  CG       -26.1650    7.6120   48.9250 C.ar   83  TRP83       0.0003
    152  CD1      -25.2270    8.3520   48.2650 C.ar   83  TRP83       0.0946
    153  CD2      -27.1890    7.3160   47.9740 C.ar   83  TRP83       0.0152
    154  NE1      -25.5900    8.5090   46.9460 N.ar   83  TRP83      -0.2442
    155  CE2      -26.7980    7.8910   46.7440 C.ar   83  TRP83       0.0810
    156  CE3      -28.4090    6.6360   48.0500 C.ar   83  TRP83       0.0012
    157  CZ2      -27.5810    7.7900   45.5860 C.ar   83  TRP83       0.0191
    158  CZ3      -29.1860    6.5220   46.8940 C.ar   83  TRP83       0.0001
    159  CH2      -28.7640    7.0960   45.6800 C.ar   83  TRP83       0.0015
    160  N        -24.7500   13.3860   55.8740 N.3    88  TYR88      -0.1241
    161  CA       -25.7910   14.3900   56.0980 C.3    88  TYR88       0.1605
    162  C        -25.5140   15.0400   57.4480 C.2    88  TYR88       0.2264
    163  O        -25.7750   14.4490   58.4950 O.2    88  TYR88      -0.2867
    164  CB       -27.1650   13.7420   56.0890 C.3    88  TYR88       0.0534
    165  CG       -27.4210   12.9100   54.8550 C.ar   88  TYR88      -0.0201
    166  CD1      -27.8110   13.5120   53.6660 C.ar   88  TYR88      -0.0009
    167  CD2      -27.2550   11.5220   54.8770 C.ar   88  TYR88      -0.0009
    168  CE1      -28.0400   12.7490   52.5150 C.ar   88  TYR88       0.0417
    169  CE2      -27.4810   10.7480   53.7330 C.ar   88  TYR88       0.0417
    170  CZ       -27.8850   11.3660   52.5700 C.ar   88  TYR88       0.1957
    171  OH       -28.1040   10.6090   51.4370 O.3    88  TYR88      -0.2866
    172  N        -33.2770   16.6810   54.1640 N.3    96  PHE96      -0.1241
    173  CA       -33.0040   16.0840   52.8550 C.3    96  PHE96       0.1605
    174  C        -32.9160   14.5520   52.9250 C.2    96  PHE96       0.2264
    175  O        -33.5260   13.8520   52.1130 O.2    96  PHE96      -0.2867
    176  CB       -31.7240   16.7000   52.2650 C.3    96  PHE96       0.0534
    177  CG       -31.3160   16.1110   50.9460 C.ar   96  PHE96      -0.0203
    178  CD1      -31.9540   16.4930   49.7780 C.ar   96  PHE96      -0.0042
    179  CD2      -30.2970   15.1720   50.8760 C.ar   96  PHE96      -0.0042
    180  CE1      -31.5790   15.9480   48.5420 C.ar   96  PHE96      -0.0003
    181  CE2      -29.9080   14.6240   49.6460 C.ar   96  PHE96      -0.0003
    182  CZ       -30.5580   15.0220   48.4800 C.ar   96  PHE96      -0.0000
    183  N        -35.4150   12.1380   50.8960 N.3   100  ALA100     -0.1245
    184  CA       -34.8130   11.2050   49.9320 C.3   100  ALA100      0.1562
    185  C        -35.1020    9.7630   50.3160 C.2   100  ALA100      0.2260
    186  O        -35.4400    8.9390   49.4660 O.2   100  ALA100     -0.2867
    187  CB       -33.3170   11.4270   49.8150 C.3   100  ALA100      0.0290
    188  N        -34.4480    6.2840   48.2600 N.3   105  LEU105     -0.1245
    189  CA       -33.0160    6.5150   48.0780 C.3   105  LEU105      0.1561
    190  C        -32.2550    6.4050   49.4030 C.2   105  LEU105      0.2260
    191  O        -31.4680    7.2850   49.7530 O.2   105  LEU105     -0.2867
    192  CB       -32.7700    7.8700   47.4060 C.3   105  LEU105      0.0270
    193  CG       -33.5160    8.0470   46.0760 C.3   105  LEU105      0.0019
    194  CD1      -33.3400    9.4480   45.5330 C.3   105  LEU105      0.0001
    195  CD2      -33.0920    6.9920   45.0530 C.3   105  LEU105      0.0001
    196  N        -22.9110    7.7760   44.8470 N.3   110  THR110     -0.1218
    197  CA       -22.8400    8.7290   43.7580 C.3   110  THR110      0.1862
    198  C        -21.4130    8.7680   43.2350 C.2   110  THR110      0.2287
    199  O        -20.4420    8.9260   44.0070 O.2   110  THR110     -0.2866
    200  CB       -23.3020   10.1200   44.2110 C.3   110  THR110      0.1770
    201  OG1      -24.6570   10.0400   44.6630 O.3   110  THR110     -0.2211
    202  CG2      -23.1830   11.1450   43.0760 C.3   110  THR110      0.0375
    203  N        -19.7780   18.8270   34.2250 N.3   120  LEU120     -0.1231
    204  CA       -19.8560   18.4240   35.6340 C.3   120  LEU120      0.1693
    205  C        -21.1440   17.6440   35.8680 C.2   120  LEU120      0.2593
    206  O        -22.2120   18.0540   35.4130 O.2   120  LEU120     -0.2718
    207  CB       -19.7950   19.6620   36.5390 C.3   120  LEU120      0.0284
    208  CG       -20.2150   19.5510   38.0010 C.3   120  LEU120      0.0019
    209  CD1      -19.0560   19.0410   38.8450 C.3   120  LEU120      0.0001
    210  CD2      -20.7250   20.9350   38.5010 C.3   120  LEU120      0.0001
    211  N        -21.0580   16.5310   36.5930 N.am  121  GLY121     -0.1942
    212  CA       -22.1980   15.6410   36.7190 C.3   121  GLY121      0.2014
    213  C        -22.0950   14.6380   37.8430 C.2   121  GLY121      0.2638
    214  O        -21.1590   14.6900   38.6480 O.2   121  GLY121     -0.2714
    215  N        -23.0690   13.7340   37.8810 N.am  122  ALA122     -0.1977
    216  CA       -23.1050   12.6510   38.8460 C.3   122  ALA122      0.1597
    217  C        -23.8200   11.4600   38.2480 C.2   122  ALA122      0.2287
    218  O        -24.8110   11.6200   37.5380 O.2   122  ALA122     -0.2864
    219  CB       -23.8350   13.0920   40.0940 C.3   122  ALA122      0.0319
    220  N        -25.7010    8.5630   40.0890 N.3   124  SER124     -0.1217
    221  CA       -26.1880    8.0820   41.3880 C.3   124  SER124      0.1889
    222  C        -26.9620    6.7950   41.1760 C.2   124  SER124      0.2288
    223  O        -27.7540    6.6790   40.2240 O.2   124  SER124     -0.2866
    224  CB       -27.0860    9.1250   42.0490 C.3   124  SER124      0.2089
    225  OG       -26.3280   10.2530   42.4680 O.3   124  SER124     -0.2183
@<TRIPOS>BOND
     1    20    18    1
     2    18    17    1
     3    18    19    1
     4    49    48    2
     5    17    14    1
     6    23    24    2
     7    23    22    1
     8    46    47    1
     9    16    15    2
    10    48    47    1
    11    44    43    2
    12    43    42    1
    13    22    21    1
    14    22    25    1
    15    15    21   am
    16    15    14    1
    17    14    13    1
    18    47    50    1
    19   203   204    1
    20    42    41    1
    21    42    45    1
    22    13    11   am
    23    25    26    1
    24    28    26    1
    25    50    51    1
    26    50    52    1
    27    90    88    1
    28    11    12    2
    29    11    10    1
    30    89    88    1
    31    26    27    1
    32   206   205    2
    33   204   205    1
    34   204   207    1
    35    51    53    1
    36    10     9    1
    37    88    87    2
    38   205   211   am
    39   207   208    1
    40   211   212    1
    41   212   213    1
    42    87    86    1
    43     3     2    1
    44     3     4    2
    45   218   217    2
    46    32    31    2
    47   213   215   am
    48   213   214    2
    49   215   216    1
    50     2     1    1
    51     2     5    1
    52   208   210    1
    53   208   209    1
    54    86    85    1
    55    31    30    1
    56   217   216    1
    57    29    30    1
    58   110   108   ar
    59     6     8    1
    60     6     5    1
    61     6     7    1
    62    30    33    1
    63    54    55    1
    64   216   219    1
    65    57    56    2
    66    85    84    1
    67   108   109   ar
    68   108   107    1
    69    84    81    1
    70    56    55    1
    71    55    58    1
    72    33    34    1
    73   220   221    1
    74    35    34   ar
    75    35    37   ar
    76   223   222    2
    77    58    59    1
    78    34    36   ar
    79    37    39   ar
    80   107   104    1
    81    36    38   ar
    82    39    38   ar
    83    39    40    1
    84    81    82    1
    85    81    80    1
    86    82    83    2
    87    60    59   ar
    88    60    62   ar
    89    59    61   ar
    90   222   221    1
    91   221   224    1
    92    62    64   ar
    93    61    63   ar
    94    80    68   am
    95   104   103    1
    96   104   105    1
    97   136   135    2
    98   224   225    1
    99    64    63   ar
   100    64    65    1
   101   137   138    1
   102   137   134    1
   103   103    93   am
   104   105   106    2
   105   135   134    1
   106   135   139   am
   107   142   141    2
   108   202   200    1
   109   140   139    1
   110   140   141    1
   111   140   143    1
   112    68    69    2
   113    68    67    1
   114    66    67    1
   115   198   197    1
   116   198   199    2
   117   134   133    1
   118   145   143    1
   119    98   100   ar
   120    98    96   ar
   121   100   101   ar
   122   143   144    1
   123   197   200    1
   124   197   196    1
   125    93    94    2
   126    93    92    1
   127    67    70    1
   128    95    96    1
   129    95    92    1
   130    96    97   ar
   131   131   130    1
   132    70    71    1
   133    72    71   ar
   134    72    74   ar
   135   200   201    1
   136   132   130    1
   137   101   102    1
   138   101    99   ar
   139    91    92    1
   140   129   128    2
   141    71    73   ar
   142    97    99   ar
   143   130   127    1
   144    74    75   ar
   145   127   128    1
   146   127   126    1
   147   195   193    1
   148   122   121    2
   149   194   193    1
   150   157   159   ar
   151   157   155   ar
   152   159   158   ar
   153   124   123    1
   154   118   116   ar
   155   126   121   am
   156    73    75   ar
   157    73    76   ar
   158   193   192    1
   159   121   120    1
   160    75    77   ar
   161   123   120    1
   162   123   125    1
   163   155   154   ar
   164   155   153   ar
   165   158   156   ar
   166   154   152   ar
   167    76    78   ar
   168   116   115    1
   169   116   117   ar
   170   120   119    1
   171    77    79   ar
   172   115   112    1
   173   192   189    1
   174   153   156   ar
   175   153   151   ar
   176    78    79   ar
   177   189   188    1
   178   189   190    1
   179   152   151   ar
   180   114   113    2
   181   182   180   ar
   182   182   181   ar
   183   180   178   ar
   184   112   113    1
   185   112   111    1
   186   151   150    1
   187   190   191    2
   188   186   185    2
   189   181   179   ar
   190   178   177   ar
   191   187   184    1
   192   184   185    1
   193   184   183    1
   194   146   147    1
   195   150   147    1
   196   179   177   ar
   197   177   176    1
   198   147   148    1
   199   171   170    1
   200   175   174    2
   201   176   173    1
   202   168   170   ar
   203   168   166   ar
   204   148   149    2
   205   170   169   ar
   206   173   174    1
   207   173   172    1
   208   166   165   ar
   209   169   167   ar
   210   165   167   ar
   211   165   164    1
   212   160   161    1
   213   164   161    1
   214   161   162    1
   215   162   163    2
