@<TRIPOS>MOLECULE
tmp/3ix9A00.pdb
 233 229 0 0 0
SMALL
GASTEIGER

@<TRIPOS>ATOM
      1  N        -16.4920   11.2840  -21.0510 N.3     8  TRP8       -0.1227
      2  CA       -17.2430   10.0620  -21.3290 C.3     8  TRP8        0.1737
      3  C        -17.1830    9.6820  -22.7910 C.2     8  TRP8        0.2595
      4  O        -16.7520   10.4630  -23.6550 O.2     8  TRP8       -0.2718
      5  CB       -18.7090   10.2210  -20.8800 C.3     8  TRP8        0.0564
      6  CG       -19.6440   10.9720  -21.8040 C.ar    8  TRP8        0.0003
      7  CD1      -20.4160   10.4430  -22.8190 C.ar    8  TRP8        0.0946
      8  CD2      -19.9370   12.3890  -21.7760 C.ar    8  TRP8        0.0152
      9  NE1      -21.1640   11.4440  -23.4080 N.ar    8  TRP8       -0.2442
     10  CE2      -20.8880   12.6390  -22.7880 C.ar    8  TRP8        0.0810
     11  CE3      -19.4900   13.4620  -20.9870 C.ar    8  TRP8        0.0012
     12  CZ2      -21.4110   13.9240  -23.0330 C.ar    8  TRP8        0.0191
     13  CZ3      -20.0020   14.7370  -21.2310 C.ar    8  TRP8        0.0001
     14  CH2      -20.9600   14.9560  -22.2470 C.ar    8  TRP8        0.0015
     15  N        -17.5830    8.4550  -23.0620 N.am    9  ALA9       -0.1980
     16  CA       -17.6100    7.9670  -24.4290 C.3     9  ALA9        0.1597
     17  C        -19.0010    7.3850  -24.6840 C.2     9  ALA9        0.2287
     18  O        -19.5570    6.7050  -23.8230 O.2     9  ALA9       -0.2864
     19  CB       -16.5310    6.9250  -24.6140 C.3     9  ALA9        0.0319
     20  N        -23.8990    4.3650  -23.3460 N.3    16  ILE16      -0.1231
     21  CA       -22.6650    4.4580  -22.5850 C.3    16  ILE16       0.1692
     22  C        -22.3770    3.1670  -21.8180 C.2    16  ILE16       0.2593
     23  O        -21.2460    2.9600  -21.3550 O.2    16  ILE16      -0.2718
     24  CB       -22.6920    5.6170  -21.5650 C.3    16  ILE16       0.0266
     25  CG1      -23.8850    5.4660  -20.6130 C.3    16  ILE16       0.0019
     26  CG2      -22.7480    6.9290  -22.2780 C.3    16  ILE16       0.0020
     27  CD1      -23.7100    6.2950  -19.3130 C.3    16  ILE16       0.0001
     28  N        -23.3910    2.2980  -21.6870 N.am   17  GLY17      -0.1942
     29  CA       -23.2100    1.0710  -20.9390 C.3    17  GLY17       0.2014
     30  C        -24.1230   -0.1060  -21.2710 C.2    17  GLY17       0.2638
     31  O        -25.1750    0.0480  -21.9060 O.2    17  GLY17      -0.2714
     32  N        -23.7190   -1.2870  -20.8220 N.am   18  LYS18      -0.1977
     33  CA       -24.4630   -2.5180  -21.0470 C.3    18  LYS18       0.1596
     34  C        -23.9350   -3.5290  -20.0390 C.2    18  LYS18       0.2287
     35  O        -22.7210   -3.7720  -19.9720 O.2    18  LYS18      -0.2864
     36  CB       -24.2400   -3.0170  -22.4740 C.3    18  LYS18       0.0298
     37  CG       -24.7820   -4.4300  -22.7450 C.3    18  LYS18       0.0038
     38  CD       -26.3030   -4.4420  -22.7440 C.3    18  LYS18       0.0206
     39  CE       -26.8630   -5.8400  -22.9750 C.3    18  LYS18       0.1093
     40  NZ       -28.3450   -5.7690  -23.0310 N.3    18  LYS18      -0.1314
     41  N        -23.4380   -3.3130  -16.9330 N.3    20  ASN20      -0.1225
     42  CA       -22.3990   -2.6920  -16.1110 C.3    20  ASN20       0.1785
     43  C        -20.9790   -2.6340  -16.6990 C.2    20  ASN20       0.2597
     44  O        -19.9960   -2.6640  -15.9620 O.2    20  ASN20      -0.2718
     45  CB       -22.3700   -3.3430  -14.7200 C.3    20  ASN20       0.1169
     46  CG       -23.3790   -2.7100  -13.7630 C.2    20  ASN20       0.2627
     47  OD1      -23.7440   -3.2890  -12.7440 O.2    20  ASN20      -0.2716
     48  ND2      -23.8240   -1.5000  -14.0920 N.am   20  ASN20      -0.0877
     49  N        -20.8700   -2.5530  -18.0150 N.am   21  ARG21      -0.1966
     50  CA       -19.5750   -2.4130  -18.6650 C.3    21  ARG21       0.1729
     51  C        -19.8160   -1.5030  -19.8840 C.2    21  ARG21       0.2616
     52  O        -20.9450   -1.0180  -20.1060 O.2    21  ARG21      -0.2715
     53  CB       -19.0240   -3.7690  -19.1230 C.3    21  ARG21       0.0348
     54  CG       -19.9050   -4.4420  -20.1340 C.3    21  ARG21       0.0492
     55  CD       -19.4290   -5.8180  -20.5100 C.3    21  ARG21       0.2205
     56  NE       -18.2630   -5.8110  -21.3950 N.pl3  21  ARG21      -0.0865
     57  CZ       -17.5850   -6.9240  -21.6750 C.cat  21  ARG21       0.5346
     58  NH1      -17.9700   -8.1020  -21.1490 N.pl3  21  ARG21       0.1354
     59  NH2      -16.5270   -6.8690  -22.4550 N.pl3  21  ARG21       0.1354
     60  N        -18.7520   -1.2400  -20.6550 N.am   22  LEU22      -0.1977
     61  CA       -18.8780   -0.4160  -21.8610 C.3    22  LEU22       0.1596
     62  C        -18.9920   -1.3960  -23.0150 C.2    22  LEU22       0.2287
     63  O        -18.1610   -2.2930  -23.1650 O.2    22  LEU22      -0.2864
     64  CB       -17.6650    0.5260  -22.0620 C.3    22  LEU22       0.0297
     65  CG       -17.6710    1.8910  -21.3400 C.3    22  LEU22       0.0022
     66  CD1      -17.5930    1.6690  -19.8410 C.3    22  LEU22       0.0001
     67  CD2      -16.5080    2.7710  -21.7970 C.3    22  LEU22       0.0001
     68  N        -18.0240   -1.9460  -25.9250 N.3    24  TRP24      -0.1241
     69  CA       -17.0480   -1.8380  -26.9720 C.3    24  TRP24       0.1605
     70  C        -15.6650   -1.9610  -26.3420 C.2    24  TRP24       0.2264
     71  O        -15.5320   -2.0610  -25.1250 O.2    24  TRP24      -0.2867
     72  CB       -17.1840   -0.4910  -27.7290 C.3    24  TRP24       0.0550
     73  CG       -17.0570    0.7670  -26.8450 C.ar   24  TRP24       0.0003
     74  CD1      -15.9320    1.2060  -26.2020 C.ar   24  TRP24       0.0946
     75  CD2      -18.1170    1.6460  -26.4230 C.ar   24  TRP24       0.0152
     76  NE1      -16.2280    2.2760  -25.3930 N.ar   24  TRP24      -0.2442
     77  CE2      -17.5570    2.5780  -25.5170 C.ar   24  TRP24       0.0810
     78  CE3      -19.4910    1.7310  -26.7130 C.ar   24  TRP24       0.0012
     79  CZ2      -18.3170    3.5860  -24.9070 C.ar   24  TRP24       0.0191
     80  CZ3      -20.2480    2.7370  -26.1140 C.ar   24  TRP24       0.0001
     81  CH2      -19.6530    3.6560  -25.2180 C.ar   24  TRP24       0.0015
     82  N        -19.0660    6.7070   -9.7090 N.3    45  GLY45      -0.1210
     83  CA       -20.0560    6.1570   -8.7950 C.3    45  GLY45       0.1956
     84  C        -19.5930    4.7790   -8.3580 C.2    45  GLY45       0.2612
     85  O        -18.8290    4.1240   -9.0690 O.2    45  GLY45      -0.2717
     86  N        -20.0560    4.3420   -7.1840 N.am   46  ARG46      -0.1965
     87  CA       -19.7130    3.0380   -6.6190 C.3    46  ARG46       0.1729
     88  C        -20.0020    1.9110   -7.6090 C.2    46  ARG46       0.2616
     89  O        -19.2460    0.9580   -7.6850 O.2    46  ARG46      -0.2715
     90  CB       -20.5010    2.8020   -5.3100 C.3    46  ARG46       0.0348
     91  CG       -20.1170    1.5450   -4.5120 C.3    46  ARG46       0.0492
     92  CD       -20.8430    0.3030   -5.0070 C.3    46  ARG46       0.2205
     93  NE       -22.2890    0.4810   -4.9600 N.pl3  46  ARG46      -0.0865
     94  CZ       -23.1640   -0.2850   -5.6060 C.cat  46  ARG46       0.5346
     95  NH1      -22.7470   -1.2990   -6.3520 N.pl3  46  ARG46       0.1354
     96  NH2      -24.4600   -0.0200   -5.5300 N.pl3  46  ARG46       0.1354
     97  N        -21.0880    2.0300   -8.3770 N.am   47  VAL47      -0.1963
     98  CA       -21.4630    0.9980   -9.3500 C.3    47  VAL47       0.1727
     99  C        -20.3480    0.7720  -10.3580 C.2    47  VAL47       0.2616
    100  O        -19.9090   -0.3540  -10.5820 O.2    47  VAL47      -0.2715
    101  CB       -22.8070    1.3700  -10.0990 C.3    47  VAL47       0.0290
    102  CG1      -23.1470    0.3380  -11.1990 C.3    47  VAL47       0.0023
    103  CG2      -23.9330    1.4030   -9.1130 C.3    47  VAL47       0.0023
    104  N        -19.8850    1.8570  -10.9530 N.am   48  THR48      -0.1951
    105  CA       -18.8340    1.7930  -11.9450 C.3    48  THR48       0.1897
    106  C        -17.5480    1.2570  -11.3080 C.2    48  THR48       0.2313
    107  O        -16.8600    0.4190  -11.8950 O.2    48  THR48      -0.2863
    108  CB       -18.5990    3.1960  -12.5600 C.3    48  THR48       0.1794
    109  OG1      -19.7490    3.5510  -13.3330 O.3    48  THR48      -0.2208
    110  CG2      -17.3390    3.2190  -13.4260 C.3    48  THR48       0.0378
    111  N        -18.1950    7.9720   -5.0050 N.3    65  LEU65      -0.1231
    112  CA       -19.4430    8.5230   -4.4690 C.3    65  LEU65       0.1693
    113  C        -20.4210    7.3640   -4.1800 C.2    65  LEU65       0.2593
    114  O        -20.7110    6.5510   -5.0640 O.2    65  LEU65      -0.2718
    115  CB       -20.0660    9.5080   -5.4650 C.3    65  LEU65       0.0284
    116  CG       -21.3560   10.2070   -5.0280 C.3    65  LEU65       0.0019
    117  CD1      -21.1190   11.0010   -3.7620 C.3    65  LEU65       0.0001
    118  CD2      -21.8150   11.1330   -6.1290 C.3    65  LEU65       0.0001
    119  N        -20.9250    7.3010   -2.9530 N.am   66  THR66      -0.1939
    120  CA       -21.8390    6.2370   -2.5310 C.3    66  THR66       0.2028
    121  C        -22.6610    6.6810   -1.3240 C.2    66  THR66       0.2642
    122  O        -22.2780    7.6200   -0.6110 O.2    66  THR66      -0.2714
    123  CB       -21.0520    4.9750   -2.1100 C.3    66  THR66       0.1808
    124  OG1      -21.9400    4.0130   -1.5190 O.3    66  THR66      -0.2208
    125  CG2      -19.9690    5.3410   -1.0930 C.3    66  THR66       0.0379
    126  N        -23.7870    6.0070   -1.0970 N.am   67  ARG67      -0.1963
    127  CA       -24.6550    6.2910    0.0500 C.3    67  ARG67       0.1729
    128  C        -24.3350    5.2580    1.1330 C.2    67  ARG67       0.2616
    129  O        -24.8690    5.3040    2.2410 O.2    67  ARG67      -0.2715
    130  CB       -26.1380    6.1910   -0.3340 C.3    67  ARG67       0.0348
    131  CG       -26.5710    7.2280   -1.3770 C.3    67  ARG67       0.0492
    132  CD       -28.0890    7.2300   -1.6440 C.3    67  ARG67       0.2205
    133  NE       -28.4580    8.3200   -2.5550 N.pl3  67  ARG67      -0.0865
    134  CZ       -28.4740    8.2160   -3.8760 C.cat  67  ARG67       0.5346
    135  NH1      -28.1530    7.0670   -4.4490 N.pl3  67  ARG67       0.1354
    136  NH2      -28.7970    9.2590   -4.6290 N.pl3  67  ARG67       0.1354
    137  N        -23.4610    4.3140    0.8050 N.am   68  ASN68      -0.1972
    138  CA       -23.0690    3.2890    1.7590 C.3    68  ASN68       0.1688
    139  C        -22.3680    3.9650    2.9440 C.2    68  ASN68       0.2292
    140  O        -21.3540    4.6420    2.7660 O.2    68  ASN68      -0.2864
    141  CB       -22.1170    2.3020    1.0840 C.3    68  ASN68       0.1181
    142  CG       -21.8290    1.0880    1.9380 C.2    68  ASN68       0.2629
    143  OD1      -21.3010    1.2000    3.0500 O.2    68  ASN68      -0.2716
    144  ND2      -22.1720   -0.0880    1.4230 N.am   68  ASN68      -0.0877
    145  N        -20.1550   10.9460    0.4320 N.3    80  HIS80      -0.1226
    146  CA       -21.5450   10.5250    0.5420 C.3    80  HIS80       0.1752
    147  C        -22.6280   11.3710   -0.1000 C.2    80  HIS80       0.2596
    148  O        -23.8030   11.0230   -0.0220 O.2    80  HIS80      -0.2718
    149  CB       -21.8550   10.2600    2.0110 C.3    80  HIS80       0.0759
    150  CG       -20.9570    9.2420    2.6340 C.ar   80  HIS80       0.0818
    151  ND1      -21.1120    7.8860    2.4380 N.ar   80  HIS80      -0.2268
    152  CD2      -19.8510    9.3880    3.4020 C.ar   80  HIS80       0.1154
    153  CE1      -20.1420    7.2400    3.0630 C.ar   80  HIS80       0.1986
    154  NE2      -19.3600    8.1290    3.6520 N.ar   80  HIS80      -0.2212
    155  N        -22.2330   12.4740   -0.7290 N.am   81  ASP81      -0.1960
    156  CA       -23.1580   13.3280   -1.4560 C.3    81  ASP81       0.1840
    157  C        -22.3710   14.2420   -2.3820 C.2    81  ASP81       0.2621
    158  O        -21.1440   14.3400   -2.2710 O.2    81  ASP81      -0.2715
    159  CB       -24.1360   14.1140   -0.5360 C.3    81  ASP81       0.1450
    160  CG       -23.5230   15.3290    0.1610 C.2    81  ASP81       0.3671
    161  OD1      -22.4800   15.8700   -0.2690 O.co2  81  ASP81      -0.2456
    162  OD2      -24.1460   15.7590    1.1630 O.co2  81  ASP81      -0.2456
    163  N        -23.0790   14.8710   -3.3090 N.am   82  VAL82      -0.1977
    164  CA       -22.4880   15.7670   -4.3000 C.3    82  VAL82       0.1596
    165  C        -21.7310   16.9130   -3.6540 C.2    82  VAL82       0.2287
    166  O        -20.5550   17.1140   -3.9490 O.2    82  VAL82      -0.2864
    167  CB       -23.5700   16.3320   -5.2530 C.3    82  VAL82       0.0276
    168  CG1      -22.9680   17.3550   -6.2120 C.3    82  VAL82       0.0022
    169  CG2      -24.1840   15.1870   -6.0360 C.3    82  VAL82       0.0022
    170  N        -15.9290   10.8470  -14.1190 N.3    99  VAL99      -0.1231
    171  CA       -15.6860    9.8290  -15.1330 C.3    99  VAL99       0.1692
    172  C        -16.7310    8.7860  -15.3630 C.2    99  VAL99       0.2593
    173  O        -16.5870    7.9040  -16.2290 O.2    99  VAL99      -0.2718
    174  CB       -14.3760    9.1090  -14.8370 C.3    99  VAL99       0.0266
    175  CG1      -13.2490   10.1810  -14.7490 C.3    99  VAL99       0.0020
    176  CG2      -14.5050    8.3090  -13.5380 C.3    99  VAL99       0.0020
    177  N        -17.8050    8.8180  -14.6160 N.am  100  GLY100     -0.1942
    178  CA       -18.6930    7.7610  -14.9870 C.3   100  GLY100      0.2014
    179  C        -19.7490    7.3400  -14.0640 C.2   100  GLY100      0.2639
    180  O        -19.7060    7.5510  -12.8580 O.2   100  GLY100     -0.2714
    181  N        -20.6660    6.6550  -14.7230 N.am  101  GLY101     -0.1939
    182  CA       -21.8520    6.1640  -14.1260 C.3   101  GLY101      0.2014
    183  C        -22.8500    7.2160  -14.5670 C.2   101  GLY101      0.2639
    184  O        -22.6010    8.4080  -14.3720 O.2   101  GLY101     -0.2714
    185  N        -23.9430    6.7990  -15.2080 N.am  102  LYS102     -0.1963
    186  CA       -25.0050    7.7150  -15.6380 C.3   102  LYS102      0.1728
    187  C        -25.4660    8.6170  -14.4890 C.2   102  LYS102      0.2616
    188  O        -25.6370    9.8220  -14.6740 O.2   102  LYS102     -0.2715
    189  CB       -26.2100    6.9080  -16.1560 C.3   102  LYS102      0.0311
    190  CG       -27.4150    7.7620  -16.5600 C.3   102  LYS102      0.0038
    191  CD       -28.7020    6.9520  -16.6400 C.3   102  LYS102      0.0206
    192  CE       -29.8770    7.8080  -17.0980 C.3   102  LYS102      0.1093
    193  NZ       -29.6480    8.4230  -18.4380 N.3   102  LYS102     -0.1314
    194  N        -25.6930    8.0380  -13.3120 N.am  103  GLN103     -0.1963
    195  CA       -26.1440    8.8120  -12.1320 C.3   103  GLN103      0.1733
    196  C        -25.1040    9.8670  -11.7060 C.2   103  GLN103      0.2616
    197  O        -25.4620   10.9730  -11.3140 O.2   103  GLN103     -0.2715
    198  CB       -26.4100    7.8890  -10.9320 C.3   103  GLN103      0.0408
    199  CG       -27.7030    7.0750  -11.0220 C.3   103  GLN103      0.0908
    200  CD       -27.7510    5.9290  -10.0180 C.2   103  GLN103      0.2608
    201  OE1      -27.4750    6.1130   -8.8330 O.2   103  GLN103     -0.2717
    202  NE2      -28.1150    4.7410  -10.4930 N.am  103  GLN103     -0.0878
    203  N        -23.8230    9.5180  -11.7660 N.am  104  ILE104     -0.1963
    204  CA       -22.7790   10.4550  -11.3670 C.3   104  ILE104      0.1727
    205  C        -22.6630   11.6070  -12.3660 C.2   104  ILE104      0.2616
    206  O        -22.4420   12.7720  -11.9710 O.2   104  ILE104     -0.2715
    207  CB       -21.4220    9.7190  -11.1790 C.3   104  ILE104      0.0290
    208  CG1      -21.1700    9.4690   -9.6930 C.3   104  ILE104      0.0022
    209  CG2      -20.2570   10.5400  -11.7610 C.3   104  ILE104      0.0023
    210  CD1      -22.2450    8.6850   -8.9350 C.3   104  ILE104      0.0001
    211  N        -22.7960   11.2900  -13.6450 N.am  105  PHE105     -0.1974
    212  CA       -22.7270   12.3100  -14.6950 C.3   105  PHE105      0.1639
    213  C        -23.8800   13.2780  -14.4630 C.2   105  PHE105      0.2290
    214  O        -23.6930   14.4850  -14.4600 O.2   105  PHE105     -0.2864
    215  CB       -22.8980   11.6870  -16.0870 C.3   105  PHE105      0.0560
    216  CG       -21.6700   10.9920  -16.6220 C.ar  105  PHE105     -0.0200
    217  CD1      -20.4210   11.5870  -16.4870 C.ar  105  PHE105     -0.0042
    218  CD2      -21.7620    9.7640  -17.2990 C.ar  105  PHE105     -0.0042
    219  CE1      -19.2760   10.9800  -17.0080 C.ar  105  PHE105     -0.0003
    220  CE2      -20.6150    9.1470  -17.8260 C.ar  105  PHE105     -0.0003
    221  CZ       -19.3710    9.7580  -17.6780 C.ar  105  PHE105     -0.0000
    222  N        -25.5610   13.9190  -11.7540 N.3   107  ALA107     -0.1245
    223  CA       -25.3630   14.6780  -10.5240 C.3   107  ALA107      0.1562
    224  C        -24.4070   15.8540  -10.6420 C.2   107  ALA107      0.2260
    225  O        -24.6210   16.8750   -9.9990 O.2   107  ALA107     -0.2867
    226  CB       -24.8890   13.7250   -9.3940 C.3   107  ALA107      0.0290
    227  N        -27.8920    1.5580  -20.8090 N.3   128  THR128     -0.1218
    228  CA       -27.5970    2.8040  -20.0900 C.3   128  THR128      0.1862
    229  C        -27.1850    3.8820  -21.1040 C.2   128  THR128      0.2287
    230  O        -26.2660    3.6820  -21.9010 O.2   128  THR128     -0.2866
    231  CB       -26.4320    2.6240  -19.0670 C.3   128  THR128      0.1770
    232  OG1      -26.6960    1.4860  -18.2330 O.3   128  THR128     -0.2211
    233  CG2      -26.3010    3.8790  -18.1710 C.3   128  THR128      0.0375
@<TRIPOS>BOND
     1    72    69    1
     2    72    73    1
     3    69    70    1
     4    69    68    1
     5    73    75   ar
     6    73    74   ar
     7    78    75   ar
     8    78    80   ar
     9    75    77   ar
    10    70    71    2
    11    74    76   ar
    12    80    81   ar
    13    77    76   ar
    14    77    79   ar
    15    81    79   ar
    16    17    16    1
    17    17    18    2
    18    19    16    1
    19    16    15    1
    20     4     3    2
    21     9     7   ar
    22     9    10   ar
    23    20    21    1
    24    63    62    2
    25    15     3   am
    26    12    10   ar
    27    12    14   ar
    28    40    39    1
    29    62    61    1
    30    39    38    1
    31     7     6   ar
    32     3     2    1
    33    10     8   ar
    34    37    38    1
    35    37    36    1
    36    21    22    1
    37    21    24    1
    38    36    33    1
    39    59    57    1
    40    26    24    1
    41    14    13   ar
    42    64    61    1
    43    64    65    1
    44    31    30    2
    45   230   229    2
    46    61    60    1
    47    22    28   am
    48    22    23    2
    49     6     8   ar
    50     6     5    1
    51    67    65    1
    52     8    11   ar
    53    28    29    1
    54    57    56    2
    55    57    58    1
    56    24    25    1
    57    56    55    1
    58    65    66    1
    59     2     1    1
    60     2     5    1
    61    30    29    1
    62    30    32   am
    63    13    11   ar
    64   229   228    1
    65    33    32    1
    66    33    34    1
    67   227   228    1
    68    60    51   am
    69    25    27    1
    70    55    54    1
    71    54    53    1
    72    52    51    2
    73   228   231    1
    74    34    35    2
    75    51    50    1
    76    53    50    1
    77   231   232    1
    78   231   233    1
    79    50    49    1
    80   193   192    1
    81    49    43   am
    82   220   221   ar
    83   220   218   ar
    84   221   219   ar
    85   218   216   ar
    86   192   191    1
    87   219   217   ar
    88    41    42    1
    89    43    42    1
    90    43    44    2
    91   191   190    1
    92   216   217   ar
    93   216   215    1
    94   190   189    1
    95   173   172    2
    96   189   186    1
    97    42    45    1
    98   215   212    1
    99   186   185    1
   100   186   187    1
   101   172   171    1
   102   172   177   am
   103   185   183   am
   104   171   174    1
   105   171   170    1
   106   178   177    1
   107   178   179    1
   108   174   175    1
   109   174   176    1
   110   181   182    1
   111   181   179   am
   112    45    46    1
   113   212   213    1
   114   212   211    1
   115   188   187    2
   116   183   184    2
   117   183   182    1
   118   187   194   am
   119   213   214    2
   120    48    46   am
   121   179   180    2
   122    46    47    2
   123   211   205   am
   124   110   108    1
   125   109   108    1
   126   194   195    1
   127   108   105    1
   128   205   206    2
   129   205   204    1
   130   195   196    1
   131   195   198    1
   132   105   106    1
   133   105   104    1
   134   107   106    2
   135   203   196   am
   136   203   204    1
   137   209   207    1
   138   222   223    1
   139   196   197    2
   140   204   207    1
   141   102   101    1
   142   207   208    1
   143   199   198    1
   144   199   200    1
   145   104    99   am
   146   224   223    1
   147   224   225    2
   148   100    99    2
   149   223   226    1
   150   202   200   am
   151    99    98    1
   152   101    98    1
   153   101   103    1
   154   200   201    2
   155    82    83    1
   156   208   210    1
   157    98    97    1
   158    85    84    2
   159    83    84    1
   160    97    88   am
   161    84    86   am
   162    89    88    2
   163    88    87    1
   164    86    87    1
   165    87    90    1
   166    95    94    1
   167   168   167    1
   168   118   116    1
   169   169   167    1
   170    94    96    1
   171    94    93    2
   172   115   116    1
   173   115   112    1
   174    90    91    1
   175   167   164    1
   176   114   113    2
   177   116   117    1
   178    92    93    1
   179    92    91    1
   180   111   112    1
   181   136   134    1
   182   112   113    1
   183   135   134    1
   184   164   165    1
   185   164   163    1
   186   113   119   am
   187   166   165    2
   188   134   133    2
   189   163   157   am
   190   119   120    1
   191   133   132    1
   192   120   123    1
   193   120   121    1
   194   157   158    2
   195   157   156    1
   196   123   124    1
   197   123   125    1
   198   132   131    1
   199   156   155    1
   200   156   159    1
   201   131   130    1
   202   121   126   am
   203   121   122    2
   204   126   127    1
   205   155   147   am
   206   159   160    1
   207   130   127    1
   208   161   160   ar
   209   147   148    2
   210   147   146    1
   211   127   128    1
   212   160   162   ar
   213   145   146    1
   214   146   149    1
   215   137   128   am
   216   137   138    1
   217   141   138    1
   218   141   142    1
   219   128   129    2
   220   144   142   am
   221   138   139    1
   222   142   143    2
   223   149   150    1
   224   151   150   ar
   225   151   153   ar
   226   150   152   ar
   227   140   139    2
   228   153   154   ar
   229   152   154   ar
