@<TRIPOS>MOLECULE
tmp/3ix9A01.pdb
 202 197 0 0 0
SMALL
GASTEIGER

@<TRIPOS>ATOM
      1  N        -15.9610   13.6530  -18.5520 N.3     7  ILE7       -0.1231
      2  CA       -15.3990   12.9360  -19.6680 C.3     7  ILE7        0.1692
      3  C        -16.1970   11.6320  -19.8160 C.2     7  ILE7        0.2592
      4  O        -16.5310   10.9520  -18.8280 O.2     7  ILE7       -0.2718
      5  CB       -13.8310   12.6530  -19.4810 C.3     7  ILE7        0.0266
      6  CG1      -13.2910   11.7890  -20.6310 C.3     7  ILE7        0.0019
      7  CG2      -13.5480   12.0640  -18.0700 C.3     7  ILE7        0.0020
      8  CD1      -11.7300   11.6420  -20.6440 C.3     7  ILE7        0.0001
      9  N        -16.4920   11.2840  -21.0510 N.am    8  TRP8       -0.1962
     10  CA       -17.2430   10.0620  -21.3290 C.3     8  TRP8        0.1771
     11  C        -17.1830    9.6820  -22.7910 C.2     8  TRP8        0.2619
     12  O        -16.7520   10.4630  -23.6550 O.2     8  TRP8       -0.2715
     13  CB       -18.7090   10.2210  -20.8800 C.3     8  TRP8        0.0590
     14  CG       -19.6440   10.9720  -21.8040 C.ar    8  TRP8        0.0006
     15  CD1      -20.4160   10.4430  -22.8190 C.ar    8  TRP8        0.0946
     16  CD2      -19.9370   12.3890  -21.7760 C.ar    8  TRP8        0.0152
     17  NE1      -21.1640   11.4440  -23.4080 N.ar    8  TRP8       -0.2442
     18  CE2      -20.8880   12.6390  -22.7880 C.ar    8  TRP8        0.0810
     19  CE3      -19.4900   13.4620  -20.9870 C.ar    8  TRP8        0.0012
     20  CZ2      -21.4110   13.9240  -23.0330 C.ar    8  TRP8        0.0191
     21  CZ3      -20.0020   14.7370  -21.2310 C.ar    8  TRP8        0.0001
     22  CH2      -20.9600   14.9560  -22.2470 C.ar    8  TRP8        0.0015
     23  N        -17.5830    8.4550  -23.0620 N.am    9  ALA9       -0.1977
     24  CA       -17.6100    7.9670  -24.4290 C.3     9  ALA9        0.1597
     25  C        -19.0010    7.3850  -24.6840 C.2     9  ALA9        0.2287
     26  O        -19.5570    6.7050  -23.8230 O.2     9  ALA9       -0.2864
     27  CB       -16.5310    6.9250  -24.6140 C.3     9  ALA9        0.0319
     28  N        -20.8700   -2.5530  -18.0150 N.3    21  ARG21      -0.1231
     29  CA       -19.5750   -2.4130  -18.6650 C.3    21  ARG21       0.1694
     30  C        -19.8160   -1.5030  -19.8840 C.2    21  ARG21       0.2591
     31  O        -20.9450   -1.0180  -20.1060 O.2    21  ARG21      -0.2718
     32  CB       -19.0240   -3.7690  -19.1230 C.3    21  ARG21       0.0321
     33  CG       -19.9050   -4.4420  -20.1340 C.3    21  ARG21       0.0489
     34  CD       -19.4290   -5.8180  -20.5100 C.3    21  ARG21       0.2205
     35  NE       -18.2630   -5.8110  -21.3950 N.pl3  21  ARG21      -0.0865
     36  CZ       -17.5850   -6.9240  -21.6750 C.cat  21  ARG21       0.5346
     37  NH1      -17.9700   -8.1020  -21.1490 N.pl3  21  ARG21       0.1354
     38  NH2      -16.5270   -6.8690  -22.4550 N.pl3  21  ARG21       0.1354
     39  N        -18.7520   -1.2400  -20.6550 N.am   22  LEU22      -0.1980
     40  CA       -18.8780   -0.4160  -21.8610 C.3    22  LEU22       0.1596
     41  C        -18.9920   -1.3960  -23.0150 C.2    22  LEU22       0.2287
     42  O        -18.1610   -2.2930  -23.1650 O.2    22  LEU22      -0.2864
     43  CB       -17.6650    0.5260  -22.0620 C.3    22  LEU22       0.0297
     44  CG       -17.6710    1.8910  -21.3400 C.3    22  LEU22       0.0022
     45  CD1      -17.5930    1.6690  -19.8410 C.3    22  LEU22       0.0001
     46  CD2      -16.5080    2.7710  -21.7970 C.3    22  LEU22       0.0001
     47  N        -14.6210   -2.0180  -27.1550 N.3    25  TYR25      -0.1241
     48  CA       -13.2790   -2.0560  -26.6010 C.3    25  TYR25       0.1605
     49  C        -12.3720   -1.3330  -27.5840 C.2    25  TYR25       0.2264
     50  O        -12.1460   -1.8130  -28.6920 O.2    25  TYR25      -0.2867
     51  CB       -12.7800   -3.4860  -26.3630 C.3    25  TYR25       0.0534
     52  CG       -11.3630   -3.4770  -25.7990 C.ar   25  TYR25      -0.0201
     53  CD1      -11.1090   -2.9920  -24.5230 C.ar   25  TYR25      -0.0009
     54  CD2      -10.2770   -3.8950  -26.5640 C.ar   25  TYR25      -0.0009
     55  CE1       -9.8000   -2.9120  -24.0140 C.ar   25  TYR25       0.0417
     56  CE2       -8.9510   -3.8180  -26.0790 C.ar   25  TYR25       0.0417
     57  CZ        -8.7300   -3.3210  -24.7950 C.ar   25  TYR25       0.1957
     58  OH        -7.4480   -3.2370  -24.2910 O.3    25  TYR25      -0.2866
     59  N         -8.7080    0.3930  -27.2760 N.3    27  PRO27      -0.2116
     60  CA        -7.5130    0.7680  -26.5430 C.3    27  PRO27       0.1372
     61  C         -7.0850    2.1960  -26.7590 C.2    27  PRO27       0.2244
     62  O         -6.6130    2.8260  -25.8250 O.2    27  PRO27      -0.2868
     63  CB        -6.4750   -0.2680  -27.0090 C.3    27  PRO27       0.0268
     64  CG        -6.9770   -0.6860  -28.3500 C.3    27  PRO27       0.0207
     65  CD        -8.4590   -0.7860  -28.1200 C.3    27  PRO27       0.0892
     66  N         -8.9780    4.7030  -27.2190 N.3    29  GLU29      -0.1231
     67  CA        -9.8760    5.5920  -26.5030 C.3    29  GLU29       0.1699
     68  C         -9.5440    5.5220  -25.0100 C.2    29  GLU29       0.2592
     69  O         -9.6330    6.5350  -24.3110 O.2    29  GLU29      -0.2718
     70  CB       -11.3160    5.1710  -26.7820 C.3    29  GLU29       0.0402
     71  CG       -12.3710    6.2720  -26.6600 C.3    29  GLU29       0.1161
     72  CD       -12.5570    6.8250  -25.2490 C.2    29  GLU29       0.3649
     73  OE1      -12.6600    6.0450  -24.2770 O.co2  29  GLU29      -0.2457
     74  OE2      -12.6200    8.0680  -25.1190 O.co2  29  GLU29      -0.2457
     75  N         -9.1270    4.3380  -24.5490 N.am   30  LEU30      -0.1966
     76  CA        -8.7630    4.1710  -23.1590 C.3    30  LEU30       0.1728
     77  C         -7.4390    4.8910  -22.9230 C.2    30  LEU30       0.2616
     78  O         -7.2220    5.4210  -21.8380 O.2    30  LEU30      -0.2715
     79  CB        -8.6030    2.6980  -22.8240 C.3    30  LEU30       0.0311
     80  CG        -9.8840    1.8580  -22.7950 C.3    30  LEU30       0.0022
     81  CD1       -9.5080    0.4330  -22.4700 C.3    30  LEU30       0.0001
     82  CD2      -10.8220    2.4090  -21.7640 C.3    30  LEU30       0.0001
     83  N         -6.5760    4.9430  -23.9310 N.am   31  GLN31      -0.1963
     84  CA        -5.2800    5.6390  -23.7850 C.3    31  GLN31       0.1733
     85  C         -5.5900    7.1390  -23.6470 C.2    31  GLN31       0.2616
     86  O         -4.9680    7.8340  -22.8630 O.2    31  GLN31      -0.2715
     87  CB        -4.4020    5.3660  -25.0020 C.3    31  GLN31       0.0408
     88  CG        -3.6200    4.0540  -24.8970 C.3    31  GLN31       0.0908
     89  CD        -3.1580    3.5240  -26.2480 C.2    31  GLN31       0.2608
     90  OE1       -2.9570    4.2860  -27.1990 O.2    31  GLN31      -0.2717
     91  NE2       -2.9780    2.2190  -26.3290 N.am   31  GLN31      -0.0878
     92  N         -6.5610    7.6060  -24.4320 N.am   32  HIS32      -0.1959
     93  CA        -7.0350    8.9870  -24.3850 C.3    32  HIS32       0.1787
     94  C         -7.5290    9.3030  -22.9800 C.2    32  HIS32       0.2620
     95  O         -7.1980   10.3510  -22.4150 O.2    32  HIS32      -0.2715
     96  CB        -8.1920    9.1830  -25.3760 C.3    32  HIS32       0.0785
     97  CG        -9.1380   10.2760  -24.9870 C.ar   32  HIS32       0.0821
     98  ND1       -8.7370   11.5800  -24.8060 N.ar   32  HIS32      -0.2267
     99  CD2      -10.4670   10.2470  -24.7010 C.ar   32  HIS32       0.1154
    100  CE1       -9.7680   12.3110  -24.4210 C.ar   32  HIS32       0.1986
    101  NE2      -10.8350   11.5300  -24.3500 N.ar   32  HIS32      -0.2212
    102  N         -8.3220    8.3890  -22.4100 N.am   33  PHE33      -0.1960
    103  CA        -8.8540    8.5920  -21.0650 C.3    33  PHE33       0.1771
    104  C         -7.7410    8.7660  -20.0490 C.2    33  PHE33       0.2619
    105  O         -7.7980    9.6390  -19.1770 O.2    33  PHE33      -0.2715
    106  CB        -9.6970    7.4110  -20.6300 C.3    33  PHE33       0.0574
    107  CG       -10.1860    7.5170  -19.2370 C.ar   33  PHE33      -0.0200
    108  CD1      -11.3320    8.2600  -18.9450 C.ar   33  PHE33      -0.0042
    109  CD2       -9.5260    6.8560  -18.2070 C.ar   33  PHE33      -0.0042
    110  CE1      -11.8100    8.3360  -17.6380 C.ar   33  PHE33      -0.0003
    111  CE2       -9.9990    6.9250  -16.9060 C.ar   33  PHE33      -0.0003
    112  CZ       -11.1490    7.6700  -16.6190 C.ar   33  PHE33      -0.0000
    113  N         -6.7250    7.9380  -20.1650 N.am   34  LYS34      -0.1977
    114  CA        -5.5810    7.9910  -19.2520 C.3    34  LYS34       0.1596
    115  C         -4.8110    9.2950  -19.4240 C.2    34  LYS34       0.2287
    116  O         -4.4370    9.9210  -18.4510 O.2    34  LYS34      -0.2864
    117  CB        -4.6510    6.8040  -19.5210 C.3    34  LYS34       0.0298
    118  CG        -3.5670    6.6220  -18.4760 C.3    34  LYS34       0.0038
    119  CD        -2.5540    5.5550  -18.8800 C.3    34  LYS34       0.0206
    120  CE        -1.5510    5.3330  -17.7630 C.3    34  LYS34       0.1093
    121  NZ        -0.7800    4.1070  -18.0140 N.3    34  LYS34      -0.1314
    122  N        -19.8850    1.8570  -10.9530 N.3    48  THR48      -0.1218
    123  CA       -18.8340    1.7930  -11.9450 C.3    48  THR48       0.1862
    124  C        -17.5480    1.2570  -11.3080 C.2    48  THR48       0.2287
    125  O        -16.8600    0.4190  -11.8950 O.2    48  THR48      -0.2866
    126  CB       -18.5990    3.1960  -12.5600 C.3    48  THR48       0.1770
    127  OG1      -19.7490    3.5510  -13.3330 O.3    48  THR48      -0.2211
    128  CG2      -17.3390    3.2190  -13.4260 C.3    48  THR48       0.0375
    129  N        -17.8710   -2.1920  -11.1570 N.3    51  GLY51      -0.1210
    130  CA       -17.8760   -2.6520  -12.5370 C.3    51  GLY51       0.1956
    131  C        -16.5020   -2.8720  -13.1310 C.2    51  GLY51       0.2611
    132  O        -16.3310   -3.6910  -14.0280 O.2    51  GLY51      -0.2717
    133  N        -15.5100   -2.1470  -12.6330 N.am   52  MET52      -0.1979
    134  CA       -14.1670   -2.3390  -13.1460 C.3    52  MET52       0.1605
    135  C        -13.2840   -3.1110  -12.1870 C.2    52  MET52       0.2287
    136  O        -12.0670   -2.9800  -12.2170 O.2    52  MET52      -0.2864
    137  CB       -13.5390   -0.9970  -13.5150 C.3    52  MET52       0.0413
    138  CG       -13.4180   -0.0010  -12.3960 C.3    52  MET52       0.0598
    139  SD       -12.9090    1.5810  -13.0960 S.3    52  MET52      -0.1393
    140  CE       -11.2190    1.2540  -13.5000 C.3    52  MET52       0.0692
    141  N        -10.4780   -1.8850   -9.5270 N.3    55  ARG55      -0.1245
    142  CA        -9.1360   -1.6940  -10.0620 C.3    55  ARG55       0.1563
    143  C         -8.7470   -0.2340   -9.8810 C.2    55  ARG55       0.2260
    144  O         -9.3800    0.6500  -10.4510 O.2    55  ARG55      -0.2867
    145  CB        -9.1420   -2.0520  -11.5510 C.3    55  ARG55       0.0307
    146  CG        -7.8480   -1.8460  -12.2970 C.3    55  ARG55       0.0489
    147  CD        -8.0920   -2.1370  -13.7660 C.3    55  ARG55       0.2205
    148  NE        -6.8840   -2.0820  -14.5790 N.pl3  55  ARG55      -0.0865
    149  CZ        -5.8600   -2.9150  -14.4330 C.cat  55  ARG55       0.5346
    150  NH1       -5.9040   -3.8560  -13.4970 N.pl3  55  ARG55       0.1354
    151  NH2       -4.7990   -2.8270  -15.2340 N.pl3  55  ARG55       0.1354
    152  N         -6.6730    2.8350  -10.7050 N.3    57  LEU57      -0.1231
    153  CA        -5.8060    3.2790  -11.8040 C.3    57  LEU57       0.1678
    154  C         -4.5590    3.9840  -11.2820 C.2    57  LEU57       0.2434
    155  O         -4.6100    4.6930  -10.2670 O.2    57  LEU57      -0.2733
    156  CB        -6.5770    4.1960  -12.7450 C.3    57  LEU57       0.0284
    157  CG        -7.8100    3.5230  -13.3860 C.3    57  LEU57       0.0019
    158  CD1       -8.6010    4.5240  -14.1910 C.3    57  LEU57       0.0001
    159  CD2       -7.3510    2.3760  -14.2590 C.3    57  LEU57       0.0001
    160  N         -3.4160    3.8060  -11.9670 N.am   58  PRO58      -0.2729
    161  CA        -2.1630    4.4370  -11.5450 C.3    58  PRO58       0.1401
    162  C         -2.0660    5.9480  -11.7740 C.2    58  PRO58       0.2269
    163  O         -2.6760    6.4830  -12.6970 O.2    58  PRO58      -0.2865
    164  CB        -1.1060    3.6590  -12.3420 C.3    58  PRO58       0.0296
    165  CG        -1.8250    3.3710  -13.6550 C.3    58  PRO58       0.0237
    166  CD        -3.2250    2.9720  -13.1800 C.3    58  PRO58       0.0939
    167  N         -3.3690    8.4380  -10.3640 N.3    60  ARG60      -0.1245
    168  CA        -4.6940    9.0100  -10.3690 C.3    60  ARG60       0.1563
    169  C         -5.1930    9.0140   -8.9380 C.2    60  ARG60       0.2260
    170  O         -4.9130    8.0900   -8.1800 O.2    60  ARG60      -0.2867
    171  CB        -5.6240    8.1280  -11.2020 C.3    60  ARG60       0.0307
    172  CG        -6.5560    8.8620  -12.1450 C.3    60  ARG60       0.0489
    173  CD        -5.8620    9.1140  -13.4690 C.3    60  ARG60       0.2205
    174  NE        -5.0020    7.9990  -13.8050 N.pl3  60  ARG60      -0.0865
    175  CZ        -5.2140    7.1330  -14.8000 C.cat  60  ARG60       0.5346
    176  NH1       -6.2780    7.2450  -15.5960 N.pl3  60  ARG60       0.1354
    177  NH2       -4.3650    6.1170  -14.9710 N.pl3  60  ARG60       0.1354
    178  N        -15.9290   10.8470  -14.1190 N.3    99  VAL99      -0.1245
    179  CA       -15.6860    9.8290  -15.1330 C.3    99  VAL99       0.1561
    180  C        -16.7310    8.7860  -15.3630 C.2    99  VAL99       0.2260
    181  O        -16.5870    7.9040  -16.2290 O.2    99  VAL99      -0.2867
    182  CB       -14.3760    9.1090  -14.8370 C.3    99  VAL99       0.0252
    183  CG1      -13.2490   10.1810  -14.7490 C.3    99  VAL99       0.0019
    184  CG2      -14.5050    8.3090  -13.5380 C.3    99  VAL99       0.0019
    185  N        -22.7960   11.2900  -13.6450 N.3   105  PHE105     -0.1241
    186  CA       -22.7270   12.3100  -14.6950 C.3   105  PHE105      0.1605
    187  C        -23.8800   13.2780  -14.4630 C.2   105  PHE105      0.2264
    188  O        -23.6930   14.4850  -14.4600 O.2   105  PHE105     -0.2867
    189  CB       -22.8980   11.6870  -16.0870 C.3   105  PHE105      0.0534
    190  CG       -21.6700   10.9920  -16.6220 C.ar  105  PHE105     -0.0203
    191  CD1      -20.4210   11.5870  -16.4870 C.ar  105  PHE105     -0.0042
    192  CD2      -21.7620    9.7640  -17.2990 C.ar  105  PHE105     -0.0042
    193  CE1      -19.2760   10.9800  -17.0080 C.ar  105  PHE105     -0.0003
    194  CE2      -20.6150    9.1470  -17.8260 C.ar  105  PHE105     -0.0003
    195  CZ       -19.3710    9.7580  -17.6780 C.ar  105  PHE105     -0.0000
    196  N        -16.2660   11.5530  -26.2820 N.3   118  THR118     -0.1218
    197  CA       -15.8050   10.7650  -27.4210 C.3   118  THR118      0.1862
    198  C        -17.0610   10.2730  -28.1120 C.2   118  THR118      0.2287
    199  O        -17.9230    9.6730  -27.4740 O.2   118  THR118     -0.2866
    200  CB       -14.9790    9.5580  -26.9640 C.3   118  THR118      0.1770
    201  OG1      -13.7640   10.0320  -26.3550 O.3   118  THR118     -0.2211
    202  CG2      -14.6420    8.5960  -28.1710 C.3   118  THR118      0.0375
@<TRIPOS>BOND
     1    50    49    2
     2    64    65    1
     3    64    63    1
     4   202   200    1
     5    65    59    1
     6   198   199    2
     7   198   197    1
     8    49    48    1
     9   197   200    1
    10   197   196    1
    11    59    60    1
    12    66    67    1
    13    90    89    2
    14    47    48    1
    15    63    60    1
    16   200   201    1
    17    70    71    1
    18    70    67    1
    19    61    60    1
    20    61    62    2
    21    71    72    1
    22    48    51    1
    23    54    56   ar
    24    54    52   ar
    25    67    68    1
    26    51    52    1
    27    91    89   am
    28    89    88    1
    29    56    57   ar
    30    52    53   ar
    31    96    97    1
    32    96    93    1
    33    72    74   ar
    34    72    73   ar
    35    68    75   am
    36    68    69    2
    37    87    88    1
    38    87    84    1
    39    97    98   ar
    40    97    99   ar
    41    98   100   ar
    42    57    58    1
    43    57    55   ar
    44    99   101   ar
    45    25    24    1
    46    25    26    2
    47    27    24    1
    48    75    76    1
    49    53    55   ar
    50    92    93    1
    51    92    85   am
    52    24    23    1
    53   100   101   ar
    54    93    94    1
    55    83    84    1
    56    83    77   am
    57    84    85    1
    58    12    11    2
    59    85    86    2
    60    17    15   ar
    61    17    18   ar
    62    42    41    2
    63    76    77    1
    64    76    79    1
    65    23    11   am
    66    20    18   ar
    67    20    22   ar
    68    41    40    1
    69    94    95    2
    70    94   102   am
    71    77    78    2
    72    79    80    1
    73    15    14   ar
    74    80    81    1
    75    80    82    1
    76    11    10    1
    77    18    16   ar
    78    38    36    1
    79   102   103    1
    80    22    21   ar
    81    43    40    1
    82    43    44    1
    83    40    39    1
    84    14    16   ar
    85    14    13    1
    86    46    44    1
    87    16    19   ar
    88    36    35    2
    89    36    37    1
    90    35    34    1
    91    44    45    1
    92    10     9    1
    93    10    13    1
    94    21    19   ar
    95   103   106    1
    96   103   104    1
    97     9     3   am
    98    39    30   am
    99     8     6    1
   100     6     5    1
   101   106   107    1
   102    34    33    1
   103   113   104   am
   104   113   114    1
   105    33    32    1
   106    31    30    2
   107   104   105    2
   108    30    29    1
   109     3     2    1
   110     3     4    2
   111     2     5    1
   112     2     1    1
   113   117   114    1
   114   117   118    1
   115     5     7    1
   116   115   114    1
   117   115   116    2
   118   107   108   ar
   119   107   109   ar
   120    32    29    1
   121   108   110   ar
   122   119   118    1
   123   119   120    1
   124    29    28    1
   125   109   111   ar
   126   121   120    1
   127   194   195   ar
   128   194   192   ar
   129   195   193   ar
   130   110   112   ar
   131   192   190   ar
   132   193   191   ar
   133   111   112   ar
   134   190   191   ar
   135   190   189    1
   136   181   180    2
   137   189   186    1
   138   176   175    1
   139   180   179    1
   140   151   149    1
   141   179   182    1
   142   179   178    1
   143   177   175    1
   144   182   183    1
   145   182   184    1
   146   175   174    2
   147   186   187    1
   148   186   185    1
   149   148   149    2
   150   148   147    1
   151   187   188    2
   152   149   150    1
   153   159   157    1
   154   158   157    1
   155   132   131    2
   156   174   173    1
   157   147   146    1
   158   165   166    1
   159   165   164    1
   160   137   134    1
   161   137   138    1
   162   140   139    1
   163   173   172    1
   164   128   126    1
   165   157   156    1
   166   127   126    1
   167   166   160    1
   168   134   133    1
   169   134   135    1
   170   131   133   am
   171   131   130    1
   172   139   138    1
   173   156   153    1
   174   163   162    2
   175   126   123    1
   176   130   129    1
   177   164   161    1
   178   146   145    1
   179   136   135    2
   180   172   171    1
   181   160   161    1
   182   160   154   am
   183   123   124    1
   184   123   122    1
   185   125   124    2
   186   153   154    1
   187   153   152    1
   188   162   161    1
   189   145   142    1
   190   154   155    2
   191   171   168    1
   192   144   143    2
   193   168   167    1
   194   168   169    1
   195   142   143    1
   196   142   141    1
   197   169   170    2
