@<TRIPOS>MOLECULE
tmp/3ixlA00.pdb
 97 92 0 0 0
SMALL
GASTEIGER

@<TRIPOS>ATOM
      1  N          7.7040   14.8780    8.4400 N.3     9  PRO9       -0.2103
      2  CA         8.5500   13.6850    8.2550 C.3     9  PRO9        0.1489
      3  C          8.5230   12.9340    6.8980 C.2     9  PRO9        0.2417
      4  O          9.6020   12.5990    6.3990 O.2     9  PRO9       -0.2734
      5  CB         8.1480   12.7780    9.4310 C.3     9  PRO9        0.0282
      6  CG         7.6710   13.7640   10.4820 C.3     9  PRO9        0.0208
      7  CD         6.9180   14.8030    9.6880 C.3     9  PRO9        0.0893
      8  N          7.3400   12.6620    6.3040 N.am   10  PRO10      -0.2729
      9  CA         7.3890   11.8150    5.0980 C.3    10  PRO10       0.1401
     10  C          8.0490   12.4960    3.9010 C.2    10  PRO10       0.2269
     11  O          7.9630   13.7130    3.7570 O.2    10  PRO10      -0.2865
     12  CB         5.9100   11.5290    4.8070 C.3    10  PRO10       0.0296
     13  CG         5.1830   11.8570    6.0960 C.3    10  PRO10       0.0237
     14  CD         5.9510   13.0220    6.6440 C.3    10  PRO10       0.0939
     15  N         11.9740   11.0900    6.5970 N.3    35  LEU35      -0.1245
     16  CA        12.3090   10.3200    7.7950 C.3    35  LEU35       0.1561
     17  C         12.0670    8.8320    7.5680 C.2    35  LEU35       0.2260
     18  O         11.0200    8.4490    7.0480 O.2    35  LEU35      -0.2867
     19  CB        11.4680   10.8100    8.9870 C.3    35  LEU35       0.0270
     20  CG        11.6480   10.1090   10.3380 C.3    35  LEU35       0.0019
     21  CD1       13.0460   10.3730   10.8980 C.3    35  LEU35       0.0001
     22  CD2       10.5870   10.5670   11.3210 C.3    35  LEU35       0.0001
     23  N         10.6680    6.3320   13.1670 N.3    38  VAL38      -0.1245
     24  CA        10.4380    7.2170   14.2990 C.3    38  VAL38       0.1561
     25  C         11.3090    6.6980   15.4490 C.2    38  VAL38       0.2260
     26  O         10.8290    6.1140   16.4120 O.2    38  VAL38      -0.2867
     27  CB         8.9200    7.3150   14.6360 C.3    38  VAL38       0.0252
     28  CG1        8.6700    8.3530   15.7100 C.3    38  VAL38       0.0019
     29  CG2        8.1060    7.6370   13.3620 C.3    38  VAL38       0.0019
     30  N          6.8360   20.0980   12.0200 N.3    68  MET68      -0.1230
     31  CA         5.6760   19.3120   12.4300 C.3    68  MET68       0.1702
     32  C          6.0360   17.8630   12.7760 C.2    68  MET68       0.2592
     33  O          5.5160   16.9070   12.1860 O.2    68  MET68      -0.2718
     34  CB         4.5810   19.3970   11.3690 C.3    68  MET68       0.0401
     35  CG         3.9570   20.7830   11.2860 C.3    68  MET68       0.0596
     36  SD         2.8530   21.1810   12.6610 S.3    68  MET68      -0.1393
     37  CE         1.4370   20.1760   12.1760 C.3    68  MET68       0.0692
     38  N          6.9370   17.7230   13.7470 N.am   69  CYS69      -0.1956
     39  CA         7.2830   16.4240   14.3180 C.3    69  CYS69       0.1843
     40  C          7.6570   16.6360   15.7690 C.2    69  CYS69       0.2626
     41  O          8.5280   17.4470   16.0840 O.2    69  CYS69      -0.2714
     42  CB         8.4460   15.7670   13.5780 C.3    69  CYS69       0.0997
     43  SG         8.8820   14.1430   14.2730 S.3    69  CYS69      -0.0797
     44  N          6.9680   15.9270   16.6590 N.am   70  THR70      -0.1936
     45  CA         7.1710   16.0870   18.0930 C.3    70  THR70       0.2028
     46  C          8.5290   15.5050   18.4650 C.2    70  THR70       0.2642
     47  O          9.3810   16.1930   19.0420 O.2    70  THR70      -0.2714
     48  CB         6.0560   15.3790   18.9130 C.3    70  THR70       0.1808
     49  OG1        4.8430   15.2890   18.1460 O.3    70  THR70      -0.2208
     50  CG2        5.7930   16.1270   20.2160 C.3    70  THR70       0.0379
     51  N          8.7420   14.2440   18.1060 N.am   71  SER71      -0.1949
     52  CA         9.9390   13.5480   18.5580 C.3    71  SER71       0.1924
     53  C         11.2340   14.0710   17.9330 C.2    71  SER71       0.2314
     54  O         12.2680   14.1120   18.5970 O.2    71  SER71      -0.2863
     55  CB         9.7810   12.0260   18.4360 C.3    71  SER71       0.2116
     56  OG         9.4700   11.6430   17.1120 O.3    71  SER71      -0.2180
     57  N          4.8610    5.6700   20.4320 N.3   121  TYR121     -0.1241
     58  CA         6.3030    5.3740   20.3300 C.3   121  TYR121      0.1605
     59  C          6.8120    4.1470   21.0570 C.2   121  TYR121      0.2264
     60  O          6.1350    3.5850   21.9210 O.2   121  TYR121     -0.2867
     61  CB         7.1240    6.5420   20.8740 C.3   121  TYR121      0.0534
     62  CG         6.7200    7.9330   20.4620 C.ar  121  TYR121     -0.0201
     63  CD1        6.4320    8.8970   21.4270 C.ar  121  TYR121     -0.0009
     64  CD2        6.6950    8.3050   19.1220 C.ar  121  TYR121     -0.0009
     65  CE1        6.0990   10.1950   21.0650 C.ar  121  TYR121      0.0417
     66  CE2        6.3560    9.6070   18.7430 C.ar  121  TYR121      0.0417
     67  CZ         6.0650   10.5400   19.7330 C.ar  121  TYR121      0.1957
     68  OH         5.7390   11.8410   19.3910 O.3   121  TYR121     -0.2866
     69  N          6.2860    5.3260    9.9550 N.3   150  VAL150     -0.1245
     70  CA         5.4530    6.5070    9.6990 C.3   150  VAL150      0.1561
     71  C          4.0580    6.1200    9.1850 C.2   150  VAL150      0.2260
     72  O          3.0410    6.5630    9.7310 O.2   150  VAL150     -0.2867
     73  CB         6.1470    7.4890    8.7210 C.3   150  VAL150      0.0252
     74  CG1        5.1790    8.5730    8.2490 C.3   150  VAL150      0.0019
     75  CG2        7.3680    8.1160    9.3720 C.3   150  VAL150      0.0019
     76  N          1.6320    4.4380   11.7160 N.3   153  MET153     -0.1245
     77  CA         0.9390    5.3170   12.6570 C.3   153  MET153      0.1570
     78  C         -0.3820    5.8520   12.0910 C.2   153  MET153      0.2261
     79  O         -1.3710    5.9620   12.8210 O.2   153  MET153     -0.2867
     80  CB         1.8500    6.4460   13.1380 C.3   153  MET153      0.0387
     81  CG         2.7970    6.0300   14.2720 C.3   153  MET153      0.0595
     82  SD         3.9940    7.3110   14.5530 S.3   153  MET153     -0.1393
     83  CE         5.2060    6.4180   15.5030 C.3   153  MET153      0.0692
     84  N          2.3600   12.0560   18.8920 N.3   182  SER182     -0.1202
     85  CA         2.8170   11.6470   17.5550 C.3   182  SER182      0.2020
     86  C          1.9340   12.2960   16.5290 C.2   182  SER182      0.2619
     87  O          0.7240   12.0500   16.4810 O.2   182  SER182     -0.2717
     88  CB         2.8640   10.1490   17.2920 C.3   182  SER182      0.2103
     89  OG         3.3790    9.9580   15.9780 O.3   182  SER182     -0.2182
     90  N          2.5700   13.1050   15.6890 N.am  183  GLY183     -0.1942
     91  CA         1.9040   13.7870   14.5990 C.3   183  GLY183      0.2014
     92  C          1.5650   12.8580   13.4590 C.2   183  GLY183      0.2639
     93  O          1.0220   13.3000   12.4480 O.2   183  GLY183     -0.2714
     94  N          1.8770   11.5750   13.6070 N.am  184  GLY184     -0.1954
     95  CA         1.5540   10.5880   12.5730 C.3   184  GLY184      0.1869
     96  C          0.2040    9.9460   12.7910 C.2   184  GLY184      0.2309
     97  O         -0.3040    9.2550   11.9140 O.2   184  GLY184     -0.2863
@<TRIPOS>BOND
     1    11    10    2
     2    10     9    1
     3    12     9    1
     4    12    13    1
     5     9     8    1
     6    13    14    1
     7     8    14    1
     8     8     3   am
     9     4     3    2
    10    15    16    1
    11     3     2    1
    12    18    17    2
    13    17    16    1
    14    16    19    1
    15    74    73    1
    16     2     1    1
    17     2     5    1
    18     1     7    1
    19    73    75    1
    20    73    70    1
    21    19    20    1
    22    71    70    1
    23    71    72    2
    24     5     6    1
    25     7     6    1
    26    70    69    1
    27    20    21    1
    28    20    22    1
    29    35    34    1
    30    35    36    1
    31    34    31    1
    32    76    77    1
    33    97    96    2
    34    30    31    1
    35    78    77    1
    36    78    79    2
    37    37    36    1
    38    33    32    2
    39    31    32    1
    40    93    92    2
    41    95    96    1
    42    95    94    1
    43    77    80    1
    44    32    38   am
    45    80    81    1
    46    23    24    1
    47    29    27    1
    48    92    94   am
    49    92    91    1
    50    42    43    1
    51    42    39    1
    52    38    39    1
    53    81    82    1
    54    24    27    1
    55    24    25    1
    56    39    40    1
    57    82    83    1
    58    91    90    1
    59    27    28    1
    60    25    26    2
    61    90    86   am
    62    40    41    2
    63    40    44   am
    64    89    88    1
    65    87    86    2
    66    86    85    1
    67    44    45    1
    68    56    55    1
    69    88    85    1
    70    85    84    1
    71    53    52    1
    72    53    54    2
    73    45    46    1
    74    45    48    1
    75    51    46   am
    76    51    52    1
    77    49    48    1
    78    55    52    1
    79    46    47    2
    80    66    64   ar
    81    66    67   ar
    82    48    50    1
    83    64    62   ar
    84    68    67    1
    85    67    65   ar
    86    58    57    1
    87    58    61    1
    88    58    59    1
    89    62    61    1
    90    62    63   ar
    91    59    60    2
    92    65    63   ar
