@<TRIPOS>MOLECULE
tmp/3ixpB00.pdb
 194 181 0 0 0
SMALL
GASTEIGER

@<TRIPOS>ATOM
      1  N          6.9420   70.6490    2.5560 N.3    27  PHE27      -0.1241
      2  CA         6.6830   69.2710    2.9750 C.3    27  PHE27       0.1605
      3  C          7.8070   68.3460    2.5310 C.2    27  PHE27       0.2264
      4  O          8.1120   67.3540    3.1980 O.2    27  PHE27      -0.2867
      5  CB         5.3620   68.7910    2.3700 C.3    27  PHE27       0.0534
      6  CG         4.9420   67.4190    2.8180 C.ar   27  PHE27      -0.0203
      7  CD1        4.4610   67.2070    4.1050 C.ar   27  PHE27      -0.0042
      8  CD2        5.0050   66.3410    1.9450 C.ar   27  PHE27      -0.0042
      9  CE1        4.0460   65.9400    4.5160 C.ar   27  PHE27      -0.0003
     10  CE2        4.5920   65.0720    2.3480 C.ar   27  PHE27      -0.0003
     11  CZ         4.1120   64.8740    3.6360 C.ar   27  PHE27      -0.0000
     12  N         10.8010   68.5310    5.4440 N.3    30  ILE30      -0.1231
     13  CA        10.3380   67.7650    6.5940 C.3    30  ILE30       0.1692
     14  C         10.4920   66.2650    6.3690 C.2    30  ILE30       0.2592
     15  O         11.3810   65.6310    6.9370 O.2    30  ILE30      -0.2718
     16  CB         8.8530   68.0680    6.8940 C.3    30  ILE30       0.0266
     17  CG1        8.6610   69.5670    7.1160 C.3    30  ILE30       0.0019
     18  CG2        8.4030   67.3040    8.1230 C.3    30  ILE30       0.0020
     19  CD1        7.2270   69.9720    7.3590 C.3    30  ILE30       0.0001
     20  N          9.6290   65.7110    5.5260 N.am   31  THR31      -0.1953
     21  CA         9.6430   64.2820    5.2180 C.3    31  THR31       0.1897
     22  C         11.0350   63.6560    5.0890 C.2    31  THR31       0.2313
     23  O         11.2310   62.4840    5.4180 O.2    31  THR31      -0.2863
     24  CB         8.8540   63.9960    3.9220 C.3    31  THR31       0.1794
     25  OG1        9.2640   64.9110    2.8990 O.3    31  THR31      -0.2208
     26  CG2        7.3630   64.1450    4.1630 C.3    31  THR31       0.0378
     27  N         12.9700   64.0890    8.7280 N.3    34  THR34      -0.1218
     28  CA        12.3690   63.1370    9.6500 C.3    34  THR34       0.1862
     29  C         13.0130   61.7760    9.4450 C.2    34  THR34       0.2287
     30  O         13.4300   61.1240   10.4030 O.2    34  THR34      -0.2866
     31  CB        10.8580   63.0240    9.4290 C.3    34  THR34       0.1770
     32  OG1       10.2200   64.2080    9.9240 O.3    34  THR34      -0.2211
     33  CG2       10.3000   61.8110   10.1520 C.3    34  THR34       0.0375
     34  N          7.3810   57.7370   16.1270 N.3    68  SER68      -0.1217
     35  CA         6.7970   59.0710   16.1950 C.3    68  SER68       0.1889
     36  C          6.9040   59.6310   17.6040 C.2    68  SER68       0.2288
     37  O          7.2280   60.8080   17.7940 O.2    68  SER68      -0.2866
     38  CB         5.3210   59.0530   15.7700 C.3    68  SER68       0.2089
     39  OG         4.4820   58.5720   16.8120 O.3    68  SER68      -0.2183
     40  N         10.2090   60.8100   18.2770 N.3    71  MET71      -0.1230
     41  CA        10.4480   61.9380   17.3760 C.3    71  MET71       0.1702
     42  C         10.0110   63.2130   18.1030 C.2    71  MET71       0.2592
     43  O         10.6940   64.2400   18.0750 O.2    71  MET71      -0.2718
     44  CB         9.6060   61.7710   16.1090 C.3    71  MET71       0.0401
     45  CG        10.3070   61.1390   14.9220 C.3    71  MET71       0.0596
     46  SD        11.0840   62.4120   13.9170 S.3    71  MET71      -0.1393
     47  CE        12.7180   62.4740   14.6610 C.3    71  MET71       0.0692
     48  N          8.8450   63.1230   18.7430 N.am   72  MET72      -0.1979
     49  CA         8.2570   64.2190   19.5100 C.3    72  MET72       0.1605
     50  C          9.2470   64.6480   20.6020 C.2    72  MET72       0.2287
     51  O          9.4450   65.8340   20.8480 O.2    72  MET72      -0.2864
     52  CB         6.9480   63.7440   20.1450 C.3    72  MET72       0.0413
     53  CG         5.7540   64.6510   19.9310 C.3    72  MET72       0.0598
     54  SD         5.2400   64.8230   18.2040 S.3    72  MET72      -0.1393
     55  CE         5.8070   63.2600   17.5440 C.3    72  MET72       0.0692
     56  N         12.3760   66.6400   19.0100 N.3    75  VAL75      -0.1245
     57  CA        12.0330   68.0250   18.7280 C.3    75  VAL75       0.1561
     58  C         11.8500   68.7980   20.0210 C.2    75  VAL75       0.2260
     59  O         12.4780   69.8350   20.2380 O.2    75  VAL75      -0.2867
     60  CB        10.7500   68.1370   17.9060 C.3    75  VAL75       0.0252
     61  CG1       10.2310   69.5460   17.9520 C.3    75  VAL75       0.0019
     62  CG2       11.0370   67.7730   16.4830 C.3    75  VAL75       0.0019
     63  N         11.3830   72.3710   10.9170 N.3    94  TYR94      -0.1241
     64  CA        10.5160   72.2470   12.0820 C.3    94  TYR94       0.1605
     65  C         10.2200   73.6190   12.6840 C.2    94  TYR94       0.2264
     66  O         10.2810   73.8080   13.9000 O.2    94  TYR94      -0.2867
     67  CB        11.1740   71.3320   13.1230 C.3    94  TYR94       0.0534
     68  CG        11.4480   69.9200   12.6360 C.ar   94  TYR94      -0.0201
     69  CD1       12.3950   69.1160   13.2660 C.ar   94  TYR94      -0.0009
     70  CD2       10.7660   69.3900   11.5420 C.ar   94  TYR94      -0.0009
     71  CE1       12.6590   67.8250   12.8170 C.ar   94  TYR94       0.0417
     72  CE2       11.0240   68.0970   11.0900 C.ar   94  TYR94       0.0417
     73  CZ        11.9700   67.3240   11.7320 C.ar   94  TYR94       0.1957
     74  OH        12.2220   66.0490   11.2870 O.3    94  TYR94      -0.2866
     75  N          6.0560   74.7180    8.3940 N.3    99  TYR99      -0.1241
     76  CA         4.8580   73.9390    8.6910 C.3    99  TYR99       0.1605
     77  C          3.6190   74.6300    8.1540 C.2    99  TYR99       0.2264
     78  O          2.5690   74.0070    7.9840 O.2    99  TYR99      -0.2867
     79  CB         4.7160   73.6860   10.1980 C.3    99  TYR99       0.0534
     80  CG         5.2200   72.3220   10.6100 C.ar   99  TYR99      -0.0201
     81  CD1        6.5840   72.0400   10.6430 C.ar   99  TYR99      -0.0009
     82  CD2        4.3300   71.2970   10.9080 C.ar   99  TYR99      -0.0009
     83  CE1        7.0480   70.7640   10.9600 C.ar   99  TYR99       0.0417
     84  CE2        4.7780   70.0220   11.2230 C.ar   99  TYR99       0.0417
     85  CZ         6.1350   69.7610   11.2480 C.ar   99  TYR99       0.1957
     86  OH         6.5770   68.5000   11.5670 O.3    99  TYR99      -0.2866
     87  N          0.2970   71.9670    7.0400 N.3   104  MET104     -0.1245
     88  CA         0.0950   71.4990    8.4060 C.3   104  MET104      0.1570
     89  C          0.6300   72.4760    9.4540 C.2   104  MET104      0.2261
     90  O          1.6310   72.2100   10.1180 O.2   104  MET104     -0.2867
     91  CB         0.7720   70.1440    8.5680 C.3   104  MET104      0.0387
     92  CG         2.2210   70.1570    8.1430 C.3   104  MET104      0.0595
     93  SD         2.8680   68.5020    8.0000 S.3   104  MET104     -0.1393
     94  CE         2.2100   68.0610    6.4080 C.3   104  MET104      0.0692
     95  N         -1.1260   71.9620   13.4850 N.3   107  VAL107     -0.1245
     96  CA        -0.3900   71.0790   14.3730 C.3   107  VAL107      0.1561
     97  C          0.6750   71.7580   15.2450 C.2   107  VAL107      0.2260
     98  O          1.0320   71.2430   16.3070 O.2   107  VAL107     -0.2867
     99  CB         0.2460   69.9370   13.5410 C.3   107  VAL107      0.0252
    100  CG1        1.6850   69.7060   13.9410 C.3   107  VAL107      0.0019
    101  CG2       -0.5640   68.6720   13.7210 C.3   107  VAL107      0.0019
    102  N         -0.1950   72.4780   19.1940 N.3   110  ASP110     -0.1225
    103  CA        -0.1870   71.2690   20.0080 C.3   110  ASP110      0.1805
    104  C          1.2520   70.8160   20.2740 C.2   110  ASP110      0.2597
    105  O          1.5800   70.3920   21.3810 O.2   110  ASP110     -0.2718
    106  CB        -0.9760   70.1430   19.3260 C.3   110  ASP110      0.1424
    107  CG        -2.4910   70.3320   19.4380 C.2   110  ASP110      0.3668
    108  OD1       -2.9290   71.0650   20.3530 O.co2 110  ASP110     -0.2456
    109  OD2       -3.2410   69.7370   18.6260 O.co2 110  ASP110     -0.2456
    110  N          2.1150   70.9230   19.2670 N.am  111  LEU111     -0.1979
    111  CA         3.5130   70.5370   19.4320 C.3   111  LEU111      0.1596
    112  C          4.2390   71.4340   20.4390 C.2   111  LEU111      0.2287
    113  O          4.8970   70.9440   21.3590 O.2   111  LEU111     -0.2864
    114  CB         4.2620   70.5960   18.0960 C.3   111  LEU111      0.0297
    115  CG         5.7510   70.2360   18.2360 C.3   111  LEU111      0.0022
    116  CD1        5.8920   68.7590   18.5860 C.3   111  LEU111      0.0001
    117  CD2        6.4960   70.5460   16.9490 C.3   111  LEU111      0.0001
    118  N          0.2110   62.4040   21.0960 N.3   191  LEU191     -0.1245
    119  CA         0.9530   63.0060   19.9910 C.3   191  LEU191      0.1561
    120  C          1.1530   61.9800   18.8880 C.2   191  LEU191      0.2260
    121  O          1.0370   62.2970   17.7050 O.2   191  LEU191     -0.2867
    122  CB         2.3280   63.4920   20.4560 C.3   191  LEU191      0.0270
    123  CG         2.4300   64.8350   21.1750 C.3   191  LEU191      0.0019
    124  CD1        1.0440   65.3470   21.6030 C.3   191  LEU191      0.0001
    125  CD2        3.3500   64.6590   22.3660 C.3   191  LEU191      0.0001
    126  N         -2.0610   61.6250   16.9170 N.3   194  GLN194     -0.1231
    127  CA        -2.1650   62.7960   16.0590 C.3   194  GLN194      0.1698
    128  C         -1.2730   62.6570   14.8390 C.2   194  GLN194      0.2592
    129  O         -1.6160   63.1250   13.7540 O.2   194  GLN194     -0.2718
    130  CB        -1.7800   64.0400   16.8410 C.3   194  GLN194      0.0381
    131  CG        -2.8150   64.4260   17.8560 C.3   194  GLN194      0.0905
    132  CD        -2.3720   65.5490   18.7480 C.2   194  GLN194      0.2608
    133  OE1       -1.4880   65.3790   19.5940 O.2   194  GLN194     -0.2717
    134  NE2       -2.9790   66.7080   18.5720 N.am  194  GLN194     -0.0878
    135  N         -0.1200   62.0230   15.0220 N.am  195  ASN195     -0.1974
    136  CA         0.7900   61.8050   13.9190 C.3   195  ASN195      0.1688
    137  C          0.0980   60.8600   12.9530 C.2   195  ASN195      0.2292
    138  O          0.0430   61.1230   11.7560 O.2   195  ASN195     -0.2864
    139  CB         2.0860   61.1760   14.4010 C.3   195  ASN195      0.1181
    140  CG         3.0530   60.9190   13.2640 C.2   195  ASN195      0.2629
    141  OD1        3.4060   61.8350   12.5270 O.2   195  ASN195     -0.2716
    142  ND2        3.4840   59.6730   13.1160 N.am  195  ASN195     -0.0877
    143  N         -2.6340   62.3780   10.9110 N.3   198  MET198     -0.1230
    144  CA        -2.1380   63.1660    9.7850 C.3   198  MET198      0.1702
    145  C         -1.8390   62.2740    8.5930 C.2   198  MET198      0.2592
    146  O         -2.1520   62.6170    7.4530 O.2   198  MET198     -0.2718
    147  CB        -0.8770   63.9390   10.1540 C.3   198  MET198      0.0401
    148  CG        -0.2890   64.6690    8.9670 C.3   198  MET198      0.0596
    149  SD         0.5370   66.1840    9.4280 S.3   198  MET198     -0.1393
    150  CE        -0.8740   67.2370    9.7160 C.3   198  MET198      0.0692
    151  N         -1.2170   61.1330    8.8600 N.am  199  CYS199     -0.1970
    152  CA        -0.9030   60.1980    7.8010 C.3   199  CYS199      0.1712
    153  C         -2.2020   59.8140    7.1200 C.2   199  CYS199      0.2296
    154  O         -2.3070   59.8590    5.8970 O.2   199  CYS199     -0.2864
    155  CB        -0.2210   58.9640    8.3740 C.3   199  CYS199      0.0983
    156  SG         1.4440   59.3060    8.9260 S.3   199  CYS199     -0.0798
    157  N         -3.2230   62.5710    4.7680 N.3   202  LEU202     -0.1245
    158  CA        -2.4940   62.6330    3.5130 C.3   202  LEU202      0.1561
    159  C         -3.0740   61.5760    2.5740 C.2   202  LEU202      0.2260
    160  O         -3.1760   61.7920    1.3680 O.2   202  LEU202     -0.2867
    161  CB        -1.0080   62.3750    3.7590 C.3   202  LEU202      0.0270
    162  CG        -0.4010   63.2550    4.8550 C.3   202  LEU202      0.0019
    163  CD1        1.0740   62.9240    5.0200 C.3   202  LEU202      0.0001
    164  CD2       -0.5950   64.7260    4.5070 C.3   202  LEU202      0.0001
    165  N          4.1720   60.5550    0.7690 N.3   209  LEU209     -0.1245
    166  CA         4.9030   60.1780    1.9710 C.3   209  LEU209      0.1561
    167  C          5.9570   59.1550    1.5450 C.2   209  LEU209      0.2260
    168  O          5.6250   58.0090    1.2420 O.2   209  LEU209     -0.2867
    169  CB         3.9540   59.5670    3.0120 C.3   209  LEU209      0.0270
    170  CG         4.2650   59.8850    4.4840 C.3   209  LEU209      0.0019
    171  CD1        3.9350   61.3440    4.7540 C.3   209  LEU209      0.0001
    172  CD2        3.4600   58.9910    5.4130 C.3   209  LEU209      0.0001
    173  N          8.6080   56.2260    5.4150 N.3   213  LEU213     -0.1245
    174  CA         7.5830   56.5120    6.3990 C.3   213  LEU213      0.1561
    175  C          6.3180   55.7350    6.0560 C.2   213  LEU213      0.2260
    176  O          5.6520   55.1890    6.9360 O.2   213  LEU213     -0.2867
    177  CB         7.2850   58.0070    6.4020 C.3   213  LEU213      0.0270
    178  CG         8.5300   58.8910    6.3960 C.3   213  LEU213      0.0019
    179  CD1        8.1110   60.3450    6.3480 C.3   213  LEU213      0.0001
    180  CD2        9.3740   58.6110    7.6240 C.3   213  LEU213      0.0001
    181  N          5.1400   53.9200    9.3160 N.3   217  TRP217     -0.1241
    182  CA         3.9060   54.4060    9.9210 C.3   217  TRP217      0.1605
    183  C          2.6580   53.8510    9.2470 C.2   217  TRP217      0.2264
    184  O          1.5890   54.4550    9.3150 O.2   217  TRP217     -0.2867
    185  CB         3.8630   55.9390    9.9010 C.3   217  TRP217      0.0550
    186  CG         4.9580   56.6050   10.7020 C.ar  217  TRP217      0.0003
    187  CD1        5.6000   56.1040   11.8020 C.ar  217  TRP217      0.0946
    188  CD2        5.4810   57.9230   10.5050 C.ar  217  TRP217      0.0152
    189  NE1        6.4840   57.0290   12.3000 N.ar  217  TRP217     -0.2442
    190  CE2        6.4290   58.1550   11.5230 C.ar  217  TRP217      0.0810
    191  CE3        5.2370   58.9330    9.5680 C.ar  217  TRP217      0.0012
    192  CZ2        7.1320   59.3530   11.6310 C.ar  217  TRP217      0.0191
    193  CZ3        5.9400   60.1280    9.6770 C.ar  217  TRP217      0.0001
    194  CH2        6.8740   60.3250   10.7010 C.ar  217  TRP217      0.0015
@<TRIPOS>BOND
     1   165   166    1
     2   168   167    2
     3   160   159    2
     4   167   166    1
     5     8    10   ar
     6     8     6   ar
     7   166   169    1
     8    10    11   ar
     9     5     6    1
    10     5     2    1
    11     3     2    1
    12     3     4    2
    13     1     2    1
    14   159   158    1
    15     6     7   ar
    16    25    24    1
    17   169   170    1
    18   158   161    1
    19   158   157    1
    20    11     9   ar
    21   161   162    1
    22    24    26    1
    23    24    21    1
    24     7     9   ar
    25   170   171    1
    26   170   172    1
    27   164   162    1
    28   162   163    1
    29    22    21    1
    30    22    23    2
    31    21    20    1
    32   173   174    1
    33    12    13    1
    34    20    14   am
    35   154   153    2
    36   175   174    1
    37   175   176    2
    38   179   178    1
    39    14    13    1
    40    14    15    2
    41   178   177    1
    42   178   180    1
    43   174   177    1
    44    94    93    1
    45    13    16    1
    46    16    17    1
    47    16    18    1
    48    87    88    1
    49    17    19    1
    50   153   152    1
    51   146   145    2
    52   152   155    1
    53   152   151    1
    54    78    77    2
    55    93    92    1
    56    92    91    1
    57    77    76    1
    58   155   156    1
    59    75    76    1
    60    88    91    1
    61    88    89    1
    62   145   151   am
    63   145   144    1
    64    76    79    1
    65    27    28    1
    66   148   149    1
    67   148   147    1
    68   183   184    2
    69   183   182    1
    70   181   182    1
    71   149   150    1
    72    31    28    1
    73    31    32    1
    74    31    33    1
    75    29    28    1
    76    29    30    2
    77    89    90    2
    78   191   193   ar
    79   191   188   ar
    80   193   194   ar
    81   144   147    1
    82   144   143    1
    83   185   182    1
    84   185   186    1
    85    79    80    1
    86   188   186   ar
    87   188   190   ar
    88    80    81   ar
    89    80    82   ar
    90    81    83   ar
    91   194   192   ar
    92   186   187   ar
    93    82    84   ar
    94    63    64    1
    95    83    85   ar
    96    72    70   ar
    97    72    73   ar
    98    84    85   ar
    99    85    86    1
   100    74    73    1
   101   190   192   ar
   102   190   189   ar
   103    70    68   ar
   104    73    71   ar
   105   138   137    2
   106   187   189   ar
   107    64    65    1
   108    64    67    1
   109   141   140    2
   110    68    67    1
   111    68    69   ar
   112    65    66    2
   113    71    69   ar
   114   137   136    1
   115   142   140   am
   116   140   139    1
   117    95    96    1
   118    99   101    1
   119    99   100    1
   120    99    96    1
   121   129   128    2
   122    46    47    1
   123    46    45    1
   124   136   139    1
   125   136   135    1
   126    96    97    1
   127   128   135   am
   128   128   127    1
   129    45    44    1
   130    97    98    2
   131    38    35    1
   132    38    39    1
   133   127   130    1
   134   127   126    1
   135    44    41    1
   136    34    35    1
   137    35    36    1
   138    62    60    1
   139   130   131    1
   140   117   115    1
   141    41    42    1
   142    41    40    1
   143    55    54    1
   144    36    37    2
   145   121   120    2
   146   131   132    1
   147    60    61    1
   148    60    57    1
   149    43    42    2
   150   114   115    1
   151   114   111    1
   152    42    48   am
   153    54    53    1
   154   115   116    1
   155   134   132   am
   156   109   107   ar
   157    57    56    1
   158    57    58    1
   159    48    49    1
   160   132   133    2
   161   120   119    1
   162   102   103    1
   163   110   111    1
   164   110   104   am
   165   106   107    1
   166   106   103    1
   167   111   112    1
   168   107   108   ar
   169    49    52    1
   170    49    50    1
   171    53    52    1
   172   119   122    1
   173   119   118    1
   174   103   104    1
   175    58    59    2
   176   104   105    2
   177   112   113    2
   178   122   123    1
   179    50    51    2
   180   123   124    1
   181   123   125    1
