@<TRIPOS>MOLECULE
tmp/3ixsC00.pdb
 73 68 0 0 0
SMALL
GASTEIGER

@<TRIPOS>ATOM
      1  N         14.5560   26.7270  101.2160 N.3    43  VAL43      -0.1245
      2  CA        14.3570   25.2820  101.4130 C.3    43  VAL43       0.1561
      3  C         14.8580   24.8560  102.8000 C.2    43  VAL43       0.2260
      4  O         14.1230   24.2160  103.5740 O.2    43  VAL43      -0.2867
      5  CB        15.0570   24.4460  100.3000 C.3    43  VAL43       0.0252
      6  CG1       15.0300   22.9440  100.6460 C.3    43  VAL43       0.0019
      7  CG2       14.3820   24.6630   98.9690 C.3    43  VAL43       0.0019
      8  N         12.8880   26.2180  105.7540 N.3    46  ALA46      -0.1231
      9  CA        11.5920   25.5620  105.7870 C.3    46  ALA46       0.1694
     10  C         11.7330   24.1760  106.3980 C.2    46  ALA46       0.2591
     11  O         10.9530   23.7930  107.2630 O.2    46  ALA46      -0.2718
     12  CB        10.9810   25.4870  104.3890 C.3    46  ALA46       0.0304
     13  N         12.7300   23.4210  105.9440 N.am   47  LEU47      -0.1980
     14  CA        12.8890   22.0530  106.4340 C.3    47  LEU47       0.1596
     15  C         13.2160   22.0680  107.9160 C.2    47  LEU47       0.2287
     16  O         12.7660   21.1980  108.6720 O.2    47  LEU47      -0.2864
     17  CB        13.9760   21.3110  105.6700 C.3    47  LEU47       0.0297
     18  CG        13.6160   20.9590  104.2290 C.3    47  LEU47       0.0022
     19  CD1       14.8170   20.3460  103.4950 C.3    47  LEU47       0.0001
     20  CD2       12.3990   20.0280  104.1850 C.3    47  LEU47       0.0001
     21  N         10.0180   22.6890  109.8710 N.3    50  LEU50      -0.1245
     22  CA         9.1900   21.4910  109.8850 C.3    50  LEU50       0.1561
     23  C          9.7190   20.5080  110.9150 C.2    50  LEU50       0.2260
     24  O          8.9520   19.9190  111.6790 O.2    50  LEU50      -0.2867
     25  CB         9.1740   20.8310  108.5100 C.3    50  LEU50       0.0270
     26  CG         8.4330   21.6150  107.4280 C.3    50  LEU50       0.0019
     27  CD1        8.6390   20.9460  106.0770 C.3    50  LEU50       0.0001
     28  CD2        6.9430   21.7510  107.7310 C.3    50  LEU50       0.0001
     29  N          5.1180   18.7180  104.0960 N.3    58  GLN58      -0.1231
     30  CA         5.7170   19.9050  103.4890 C.3    58  GLN58       0.1698
     31  C          4.7050   20.8480  102.8450 C.2    58  GLN58       0.2592
     32  O          5.0530   21.9780  102.5010 O.2    58  GLN58      -0.2718
     33  CB         6.7350   19.4810  102.4470 C.3    58  GLN58       0.0381
     34  CG         7.9890   18.9150  103.0960 C.3    58  GLN58       0.0905
     35  CD         9.0010   18.5220  102.0620 C.2    58  GLN58       0.2608
     36  OE1        9.0700   19.1260  101.0040 O.2    58  GLN58      -0.2717
     37  NE2        9.8030   17.4950  102.3650 N.am   58  GLN58      -0.0878
     38  N          3.4630   20.4130  102.7040 N.am   59  MET59      -0.1979
     39  CA         2.4280   21.3250  102.1980 C.3    59  MET59       0.1605
     40  C          1.9530   22.3160  103.2390 C.2    59  MET59       0.2287
     41  O          1.1200   23.2000  102.9420 O.2    59  MET59      -0.2864
     42  CB         1.2740   20.5320  101.5820 C.3    59  MET59       0.0413
     43  CG         1.7970   19.5790  100.4960 C.3    59  MET59       0.0598
     44  SD         0.5120   18.6700   99.6670 S.3    59  MET59      -0.1393
     45  CE        -0.2590   19.9850   98.7090 C.3    59  MET59       0.0692
     46  N          3.9880   24.3660  104.6350 N.3    61  LEU61      -0.1231
     47  CA         4.8100   25.5700  104.4780 C.3    61  LEU61       0.1693
     48  C          4.8100   26.0090  103.0270 C.2    61  LEU61       0.2592
     49  O          4.5440   25.2330  102.1140 O.2    61  LEU61      -0.2718
     50  CB         6.2510   25.3370  104.9530 C.3    61  LEU61       0.0284
     51  CG         6.4660   25.2550  106.4650 C.3    61  LEU61       0.0019
     52  CD1        7.9460   25.0350  106.7510 C.3    61  LEU61       0.0001
     53  CD2        5.9930   26.5320  107.1590 C.3    61  LEU61       0.0001
     54  N          5.1340   27.2760  102.8080 N.am   62  ASP62      -0.1960
     55  CA         5.0750   27.8410  101.4750 C.3    62  ASP62       0.1840
     56  C          5.9650   27.1440  100.4520 C.2    62  ASP62       0.2623
     57  O          6.8740   26.3810  100.7900 O.2    62  ASP62      -0.2715
     58  CB         5.5390   29.3090  101.5120 C.3    62  ASP62       0.1450
     59  CG         4.7300   30.1780  102.4560 C.2    62  ASP62       0.3671
     60  OD1        3.7660   29.7100  103.1000 O.co2  62  ASP62      -0.2456
     61  OD2        5.0750   31.3810  102.5560 O.co2  62  ASP62      -0.2456
     62  N          5.7310   27.4550   99.1860 N.am   63  THR63      -0.1937
     63  CA         6.6840   27.0510   98.1630 C.3    63  THR63       0.2028
     64  C          8.0090   27.7460   98.4730 C.2    63  THR63       0.2642
     65  O          8.0340   28.7910   99.1390 O.2    63  THR63      -0.2714
     66  CB         6.2310   27.4690   96.7590 C.3    63  THR63       0.1808
     67  OG1        5.9450   28.8680   96.7530 O.3    63  THR63      -0.2208
     68  CG2        4.9810   26.7090   96.3340 C.3    63  THR63       0.0379
     69  N          9.1070   27.1770   97.9940 N.am   64  ALA64      -0.1977
     70  CA        10.3990   27.7880   98.2240 C.3    64  ALA64       0.1597
     71  C         10.8420   28.4410   96.9300 C.2    64  ALA64       0.2287
     72  O         10.7740   27.8440   95.8740 O.2    64  ALA64      -0.2864
     73  CB        11.4170   26.7400   98.6910 C.3    64  ALA64       0.0319
@<TRIPOS>BOND
     1    72    71    2
     2    68    66    1
     3    67    66    1
     4    66    63    1
     5    71    70    1
     6    69    70    1
     7    69    64   am
     8    63    64    1
     9    63    62    1
    10    70    73    1
    11    64    65    2
    12    45    44    1
    13     7     5    1
    14    62    56   am
    15    44    43    1
    16     5     6    1
    17     5     2    1
    18    56    57    2
    19    56    55    1
    20    43    42    1
    21    36    35    2
    22     1     2    1
    23     2     3    1
    24    55    58    1
    25    55    54    1
    26    58    59    1
    27    42    39    1
    28    35    37   am
    29    35    34    1
    30    49    48    2
    31    39    38    1
    32    39    40    1
    33    33    34    1
    34    33    30    1
    35    59    61   ar
    36    59    60   ar
    37    32    31    2
    38    38    31   am
    39     3     4    2
    40    54    48   am
    41    31    30    1
    42    41    40    2
    43    48    47    1
    44    30    29    1
    45    19    18    1
    46    20    18    1
    47    18    17    1
    48    12     9    1
    49    47    46    1
    50    47    50    1
    51    50    51    1
    52    17    14    1
    53     8     9    1
    54     9    10    1
    55    13    10   am
    56    13    14    1
    57    27    26    1
    58    10    11    2
    59    14    15    1
    60    51    52    1
    61    51    53    1
    62    26    28    1
    63    26    25    1
    64    15    16    2
    65    25    22    1
    66    21    22    1
    67    22    23    1
    68    23    24    2
