@<TRIPOS>MOLECULE
tmp/3iylF00.pdb
 130 123 0 0 0
SMALL
GASTEIGER

@<TRIPOS>ATOM
      1  N         12.0990   -9.9940  329.0540 N.3   121  LEU121     -0.1245
      2  CA        13.0360  -10.8550  328.3470 C.3   121  LEU121      0.1561
      3  C         14.2660  -10.9810  329.1990 C.2   121  LEU121      0.2260
      4  O         14.8550  -12.0510  329.2970 O.2   121  LEU121     -0.2867
      5  CB        13.4550  -10.2500  326.9990 C.3   121  LEU121      0.0270
      6  CG        14.5550  -11.0640  326.3060 C.3   121  LEU121      0.0019
      7  CD1       14.0430  -12.4820  326.0940 C.3   121  LEU121      0.0001
      8  CD2       14.9530  -10.4240  324.9830 C.3   121  LEU121      0.0001
      9  N         14.5600  -12.9530  332.6050 N.3   124  ALA124     -0.1231
     10  CA        14.6180  -14.3680  332.2370 C.3   124  ALA124      0.1694
     11  C         15.9680  -14.6990  331.6140 C.2   124  ALA124      0.2591
     12  O         16.5280  -15.7700  331.8650 O.2   124  ALA124     -0.2718
     13  CB        13.4930  -14.7240  331.2830 C.3   124  ALA124      0.0304
     14  N         16.4940  -13.7860  330.8080 N.am  125  MET125     -0.1979
     15  CA        17.7830  -14.0160  330.1650 C.3   125  MET125      0.1605
     16  C         18.9320  -14.0070  331.1740 C.2   125  MET125      0.2287
     17  O         19.5790  -15.0180  331.4100 O.2   125  MET125     -0.2864
     18  CB        18.0530  -12.9670  329.0910 C.3   125  MET125      0.0413
     19  CG        18.9690  -13.4890  328.0020 C.3   125  MET125      0.0598
     20  SD        18.3360  -14.9740  327.1960 S.3   125  MET125     -0.1393
     21  CE        18.9210  -16.2480  328.3050 C.3   125  MET125      0.0692
     22  N         20.2110  -16.5360  334.0060 N.3   128  LEU128     -0.1245
     23  CA        21.0130  -17.7130  333.6860 C.3   128  LEU128      0.1561
     24  C         22.2560  -17.2580  332.9330 C.2   128  LEU128      0.2260
     25  O         22.6290  -17.8250  331.9060 O.2   128  LEU128     -0.2867
     26  CB        20.2190  -18.7750  332.9210 C.3   128  LEU128      0.0270
     27  CG        19.7480  -18.4990  331.4950 C.3   128  LEU128      0.0019
     28  CD1       20.7590  -19.0150  330.4780 C.3   128  LEU128      0.0001
     29  CD2       18.3710  -19.1000  331.2580 C.3   128  LEU128      0.0001
     30  N         19.9970  -27.3780  326.2540 N.3   141  TRP141     -0.1241
     31  CA        18.7690  -26.5960  326.0870 C.3   141  TRP141      0.1605
     32  C         17.4920  -27.1100  326.7560 C.2   141  TRP141      0.2264
     33  O         16.7940  -26.3320  327.4010 O.2   141  TRP141     -0.2867
     34  CB        18.5210  -26.3850  324.5930 C.3   141  TRP141      0.0550
     35  CG        17.4220  -25.4320  324.2750 C.ar  141  TRP141      0.0003
     36  CD1       16.2950  -25.6990  323.5480 C.ar  141  TRP141      0.0946
     37  CD2       17.3540  -24.0410  324.6260 C.ar  141  TRP141      0.0152
     38  NE1       15.5280  -24.5570  323.4220 N.ar  141  TRP141     -0.2442
     39  CE2       16.1540  -23.5270  324.0740 C.ar  141  TRP141      0.0810
     40  CE3       18.1850  -23.1810  325.3530 C.ar  141  TRP141      0.0012
     41  CZ2       15.7680  -22.1870  324.2240 C.ar  141  TRP141      0.0191
     42  CZ3       17.7950  -21.8350  325.5040 C.ar  141  TRP141      0.0001
     43  CH2       16.5990  -21.3600  324.9400 C.ar  141  TRP141      0.0015
     44  N         15.4590  -24.7310  329.4650 N.3   145  LEU145     -0.1245
     45  CA        14.0820  -24.3080  329.2680 C.3   145  LEU145      0.1561
     46  C         13.1980  -24.8540  330.3860 C.2   145  LEU145      0.2260
     47  O         12.6520  -24.0840  331.1820 O.2   145  LEU145     -0.2867
     48  CB        13.5740  -24.7870  327.9130 C.3   145  LEU145      0.0270
     49  CG        13.6460  -23.6900  326.8480 C.3   145  LEU145      0.0019
     50  CD1       13.5870  -24.2820  325.4400 C.3   145  LEU145      0.0001
     51  CD2       12.4930  -22.7200  327.0820 C.3   145  LEU145      0.0001
     52  N         13.7310  -22.7270  333.5120 N.3   148  ALA148     -0.1231
     53  CA        13.1560  -21.3900  333.5730 C.3   148  ALA148      0.1694
     54  C         11.6340  -21.4900  333.5590 C.2   148  ALA148      0.2591
     55  O         10.9470  -20.5510  333.9690 O.2   148  ALA148     -0.2718
     56  CB        13.6370  -20.5470  332.4010 C.3   148  ALA148      0.0304
     57  N         11.1090  -22.6120  333.0540 N.am  149  LYS149     -0.1980
     58  CA         9.6670  -22.8370  333.0480 C.3   149  LYS149      0.1596
     59  C          9.1810  -22.7110  334.4810 C.2   149  LYS149      0.2287
     60  O          8.0090  -22.4240  334.7320 O.2   149  LYS149     -0.2864
     61  CB         9.3380  -24.2290  332.5210 C.3   149  LYS149      0.0298
     62  CG         8.7280  -24.2260  331.1420 C.3   149  LYS149      0.0038
     63  CD         8.7750  -25.6170  330.5240 C.3   149  LYS149      0.0206
     64  CE         8.0500  -25.6460  329.1860 C.3   149  LYS149      0.1093
     65  NZ         6.6220  -25.2460  329.3080 N.3   149  LYS149     -0.1314
     66  N         11.0060  -18.3360  336.5140 N.3   152  LEU152     -0.1245
     67  CA        10.2490  -17.1870  336.0270 C.3   152  LEU152      0.1561
     68  C          8.8680  -16.9870  336.7360 C.2   152  LEU152      0.2260
     69  O          7.9930  -17.8380  336.5680 O.2   152  LEU152     -0.2867
     70  CB        10.0860  -17.3140  334.5000 C.3   152  LEU152      0.0270
     71  CG        11.3320  -17.0310  333.6350 C.3   152  LEU152      0.0019
     72  CD1       10.9230  -16.5140  332.2590 C.3   152  LEU152      0.0001
     73  CD2       12.2490  -16.0480  334.3430 C.3   152  LEU152      0.0001
     74  N          7.6150  -13.7810  329.1790 N.3   158  CYS158     -0.1221
     75  CA         8.4440  -14.8240  328.4930 C.3   158  CYS158      0.1808
     76  C          7.7940  -16.2030  328.6260 C.2   158  CYS158      0.2601
     77  O          8.2640  -17.2060  328.0880 O.2   158  CYS158     -0.2717
     78  CB         9.8640  -14.8430  329.0620 C.3   158  CYS158      0.0970
     79  SG        10.9480  -16.0890  328.3070 S.3   158  CYS158     -0.0800
     80  N          6.6740  -16.2190  329.3530 N.am  159  LEU159     -0.1979
     81  CA         5.8640  -17.4100  329.5290 C.3   159  LEU159      0.1596
     82  C          4.6260  -17.2880  328.6590 C.2   159  LEU159      0.2287
     83  O          4.0610  -18.2840  328.2380 O.2   159  LEU159     -0.2864
     84  CB         5.4040  -17.5940  330.9770 C.3   159  LEU159      0.0297
     85  CG         6.4520  -17.7880  332.0750 C.3   159  LEU159      0.0022
     86  CD1        5.7940  -17.8600  333.4440 C.3   159  LEU159      0.0001
     87  CD2        7.2810  -19.0520  331.8180 C.3   159  LEU159      0.0001
     88  N          6.9780  -17.4650  324.6820 N.3   162  PRO162     -0.2116
     89  CA         8.2620  -18.2460  324.5790 C.3   162  PRO162      0.1372
     90  C          9.0860  -18.0740  323.2880 C.2   162  PRO162      0.2244
     91  O         10.2240  -17.5970  323.3170 O.2   162  PRO162     -0.2868
     92  CB         7.7920  -19.7000  324.7100 C.3   162  PRO162      0.0268
     93  CG         6.3810  -19.6470  325.1600 C.3   162  PRO162      0.0207
     94  CD         6.1380  -18.2350  325.5960 C.3   162  PRO162      0.0892
     95  N          9.4800  -14.1960  322.0560 N.3   165  PHE165     -0.1227
     96  CA        10.4870  -13.5160  322.8660 C.3   165  PHE165      0.1736
     97  C         11.7990  -14.1650  322.4670 C.2   165  PHE165      0.2595
     98  O         12.8390  -13.5060  322.3230 O.2   165  PHE165     -0.2718
     99  CB        10.2520  -13.6800  324.3800 C.3   165  PHE165      0.0547
    100  CG         9.6460  -12.4900  325.0820 C.ar  165  PHE165     -0.0202
    101  CD1       10.3230  -11.2840  325.2200 C.ar  165  PHE165     -0.0042
    102  CD2        8.3730  -12.5700  325.5810 C.ar  165  PHE165     -0.0042
    103  CE1        9.7450  -10.2090  325.8310 C.ar  165  PHE165     -0.0003
    104  CE2        7.7710  -11.5110  326.1920 C.ar  165  PHE165     -0.0003
    105  CZ         8.4630  -10.3180  326.3200 C.ar  165  PHE165     -0.0000
    106  N         11.7480  -15.4740  322.2800 N.am  166  TYR166     -0.1976
    107  CA        12.9290  -16.2340  321.8770 C.3   166  TYR166      0.1639
    108  C         13.5430  -15.6270  320.5930 C.2   166  TYR166      0.2290
    109  O         14.7610  -15.4690  320.5000 O.2   166  TYR166     -0.2864
    110  CB        12.5610  -17.7220  321.7050 C.3   166  TYR166      0.0560
    111  CG        13.7390  -18.6050  321.3560 C.ar  166  TYR166     -0.0198
    112  CD1       14.8430  -18.6220  322.2080 C.ar  166  TYR166     -0.0009
    113  CD2       13.7740  -19.3710  320.1950 C.ar  166  TYR166     -0.0009
    114  CE1       15.9680  -19.3720  321.9130 C.ar  166  TYR166      0.0417
    115  CE2       14.8830  -20.1300  319.8840 C.ar  166  TYR166      0.0417
    116  CZ        15.9830  -20.1260  320.7460 C.ar  166  TYR166      0.1957
    117  OH        17.0960  -20.8790  320.4400 O.3   166  TYR166     -0.2866
    118  N         15.0820  -12.4780  321.4150 N.3   169  ALA169     -0.1245
    119  CA        16.2700  -12.8710  322.1770 C.3   169  ALA169      0.1562
    120  C         17.4290  -13.3270  321.3110 C.2   169  ALA169      0.2260
    121  O         18.5190  -12.7750  321.4050 O.2   169  ALA169     -0.2867
    122  CB        15.8970  -13.9450  323.1890 C.3   169  ALA169      0.0290
    123  N         22.3530  -18.0420  322.8910 N.3   176  LEU176     -0.1245
    124  CA        21.2520  -18.8680  322.3510 C.3   176  LEU176      0.1561
    125  C         21.3950  -18.9760  320.8420 C.2   176  LEU176      0.2260
    126  O         21.1180  -17.9990  320.1510 O.2   176  LEU176     -0.2867
    127  CB        19.8880  -18.2160  322.5740 C.3   176  LEU176      0.0270
    128  CG        19.4900  -17.4790  323.8460 C.3   176  LEU176      0.0019
    129  CD1       18.4380  -16.4210  323.4640 C.3   176  LEU176      0.0001
    130  CD2       18.9590  -18.4610  324.9060 C.3   176  LEU176      0.0001
@<TRIPOS>BOND
     1   115   113   ar
     2   115   116   ar
     3   126   125    2
     4   113   111   ar
     5   117   116    1
     6   109   108    2
     7   108   107    1
     8   116   114   ar
     9   125   124    1
    10   120   121    2
    11   120   119    1
    12   111   110    1
    13   111   112   ar
    14   118   119    1
    15   110   107    1
    16   107   106    1
    17   114   112   ar
    18    95    96    1
    19   119   122    1
    20   106    97   am
    21    98    97    2
    22   124   127    1
    23   124   123    1
    24    97    96    1
    25   127   128    1
    26    96    99    1
    27    90    91    2
    28    90    89    1
    29    38    36   ar
    30    38    39   ar
    31   129   128    1
    32    36    35   ar
    33   128   130    1
    34    39    41   ar
    35    39    37   ar
    36    41    43   ar
    37    35    34    1
    38    35    37   ar
    39    99   100    1
    40    89    88    1
    41    89    92    1
    42    34    31    1
    43    37    40   ar
    44    88    94    1
    45    92    93    1
    46    43    42   ar
    47     8     6    1
    48   100   101   ar
    49   100   102   ar
    50    93    94    1
    51   101   103   ar
    52    40    42   ar
    53    50    49    1
    54   102   104   ar
    55   103   105   ar
    56    31    30    1
    57    31    32    1
    58     7     6    1
    59   104   105   ar
    60     6     5    1
    61    32    33    2
    62    49    51    1
    63    49    48    1
    64     5     2    1
    65    20    19    1
    66    20    21    1
    67    48    45    1
    68    19    18    1
    69    77    76    2
    70    83    82    2
    71    79    78    1
    72     2     1    1
    73     2     3    1
    74    75    76    1
    75    75    78    1
    76    75    74    1
    77    76    80   am
    78    82    81    1
    79    18    15    1
    80    64    65    1
    81    64    63    1
    82     3     4    2
    83    45    44    1
    84    45    46    1
    85    80    81    1
    86    81    84    1
    87    15    14    1
    88    15    16    1
    89    46    47    2
    90    28    27    1
    91    63    62    1
    92    14    11   am
    93    84    85    1
    94    62    61    1
    95    16    17    2
    96    29    27    1
    97    13    10    1
    98    27    26    1
    99    11    12    2
   100    11    10    1
   101    87    85    1
   102    25    24    2
   103    85    86    1
   104    10     9    1
   105    72    71    1
   106    56    53    1
   107    61    58    1
   108    26    23    1
   109    24    23    1
   110    58    57    1
   111    58    59    1
   112    57    54   am
   113    52    53    1
   114    54    53    1
   115    54    55    2
   116    71    73    1
   117    71    70    1
   118    23    22    1
   119    59    60    2
   120    70    67    1
   121    67    66    1
   122    67    68    1
   123    69    68    2
