@<TRIPOS>MOLECULE
tmp/3j0aA05.pdb
 80 79 0 0 0
SMALL
GASTEIGER

@<TRIPOS>ATOM
      1  N         72.3390   97.9430   88.9650 N.3   569  ILE569     -0.1231
      2  CA        73.2410   97.5450   87.8860 C.3   569  ILE569      0.1692
      3  C         72.7560   98.1080   86.5540 C.2   569  ILE569      0.2592
      4  O         73.4970   98.1460   85.5630 O.2   569  ILE569     -0.2718
      5  CB        73.3500   96.0050   87.7980 C.3   569  ILE569      0.0266
      6  CG1       71.9630   95.3780   87.6410 C.3   569  ILE569      0.0019
      7  CG2       74.0500   95.4700   89.0520 C.3   569  ILE569      0.0020
      8  CD1       71.9910   93.8890   87.2910 C.3   569  ILE569      0.0001
      9  N         71.5040   98.5460   86.5410 N.am  570  ASN570     -0.1974
     10  CA        70.8910   99.1210   85.3450 C.3   570  ASN570      0.1688
     11  C         71.1800  100.6180   85.2420 C.2   570  ASN570      0.2292
     12  O         71.2810  101.1580   84.1430 O.2   570  ASN570     -0.2864
     13  CB        69.3680   98.8770   85.3770 C.3   570  ASN570      0.1181
     14  CG        68.6560   99.4330   84.1550 C.2   570  ASN570      0.2629
     15  OD1       68.8760   98.9730   83.0350 O.2   570  ASN570     -0.2716
     16  ND2       67.7950  100.4160   84.3640 N.am  570  ASN570     -0.0877
     17  N         74.7890  101.4430   83.9670 N.3   573  ASN573     -0.1225
     18  CA        74.9500  101.1570   82.5400 C.3   573  ASN573      0.1785
     19  C         74.3700  102.2960   81.7140 C.2   573  ASN573      0.2597
     20  O         74.8700  102.6470   80.6480 O.2   573  ASN573     -0.2718
     21  CB        74.2560   99.8300   82.2200 C.3   573  ASN573      0.1169
     22  CG        74.4980   99.3620   80.7880 C.2   573  ASN573      0.2627
     23  OD1       74.8150  100.1750   79.9030 O.2   573  ASN573     -0.2716
     24  ND2       74.2810   98.0630   80.5630 N.am  573  ASN573     -0.0877
     25  N         73.2840  102.8530   82.2310 N.am  574  HIS574     -0.1975
     26  CA        72.5510  103.9490   81.5820 C.3   574  HIS574      0.1656
     27  C         73.3330  105.2530   81.6640 C.2   574  HIS574      0.2291
     28  O         73.1800  106.1470   80.8260 O.2   574  HIS574     -0.2864
     29  CB        71.1760  104.0730   82.2320 C.3   574  HIS574      0.0771
     30  CG        70.3690  105.2390   81.7600 C.ar  574  HIS574      0.0820
     31  ND1       69.9130  105.3710   80.4610 N.ar  574  HIS574     -0.2267
     32  CD2       69.9600  106.3480   82.4180 C.ar  574  HIS574      0.1154
     33  CE1       69.2650  106.5150   80.3460 C.ar  574  HIS574      0.1986
     34  NE2       69.2780  107.1240   81.5180 N.ar  574  HIS574     -0.2212
     35  N         80.9740   95.0070   86.3100 N.3   599  LEU599     -0.1231
     36  CA        79.5300   95.1800   86.2490 C.3   599  LEU599      0.1693
     37  C         79.0230   95.3780   84.8160 C.2   599  LEU599      0.2592
     38  O         77.8400   95.1380   84.5250 O.2   599  LEU599     -0.2718
     39  CB        79.1090   96.3650   87.1260 C.3   599  LEU599      0.0284
     40  CG        79.4840   96.2760   88.6210 C.3   599  LEU599      0.0019
     41  CD1       79.2360   97.6370   89.2800 C.3   599  LEU599      0.0001
     42  CD2       78.6680   95.1610   89.2870 C.3   599  LEU599      0.0001
     43  N         79.9140   95.8100   83.9210 N.am  600  PHE600     -0.1962
     44  CA        79.5400   96.0230   82.5270 C.3   600  PHE600      0.1771
     45  C         79.7840   94.7450   81.7170 C.2   600  PHE600      0.2620
     46  O         80.2690   94.8010   80.5690 O.2   600  PHE600     -0.2715
     47  CB        80.3180   97.2210   81.9410 C.3   600  PHE600      0.0574
     48  CG        80.1250   98.5030   82.7180 C.ar  600  PHE600     -0.0200
     49  CD1       78.8350   99.0680   82.8310 C.ar  600  PHE600     -0.0042
     50  CD2       81.2050   99.1710   83.3250 C.ar  600  PHE600     -0.0042
     51  CE1       78.6450  100.3180   83.5600 C.ar  600  PHE600     -0.0003
     52  CE2       81.0280  100.4000   84.0390 C.ar  600  PHE600     -0.0003
     53  CZ        79.7570  100.9680   84.1560 C.ar  600  PHE600     -0.0000
     54  N         79.4200   93.5970   82.2950 N.am  601  SER601     -0.1936
     55  CA        79.6150   92.2850   81.6450 C.3   601  SER601      0.2055
     56  C         78.5850   91.2580   82.1560 C.2   601  SER601      0.2643
     57  O         78.2980   90.2870   81.4410 O.2   601  SER601     -0.2714
     58  CB        81.0300   91.7700   81.9230 C.3   601  SER601      0.2130
     59  OG        82.0080   92.7190   81.4430 O.3   601  SER601     -0.2179
     60  N         78.0530   91.4710   83.3420 N.am  602  LEU602     -0.1963
     61  CA        77.0750   90.5880   83.9470 C.3   602  LEU602      0.1728
     62  C         75.7950   90.5710   83.1120 C.2   602  LEU602      0.2617
     63  O         75.4080   91.5810   82.5490 O.2   602  LEU602     -0.2715
     64  CB        76.7840   91.0210   85.4050 C.3   602  LEU602      0.0311
     65  CG        77.7380   90.5610   86.5420 C.3   602  LEU602      0.0022
     66  CD1       77.7360   89.0370   86.5700 C.3   602  LEU602      0.0001
     67  CD2       79.1480   91.0960   86.3340 C.3   602  LEU602      0.0001
     68  N         75.1550   89.4080   83.0590 N.am  603  SER603     -0.1936
     69  CA        73.9140   89.2210   82.3240 C.3   603  SER603      0.2055
     70  C         72.7140   89.4160   83.2260 C.2   603  SER603      0.2643
     71  O         72.6390   88.8090   84.2950 O.2   603  SER603     -0.2714
     72  CB        73.8580   87.8120   81.7340 C.3   603  SER603      0.2130
     73  OG        74.0330   86.8450   82.7580 O.3   603  SER603     -0.2179
     74  N         71.7910   90.2630   82.8050 N.am  604  THR604     -0.1950
     75  CA        70.5880   90.4960   83.5920 C.3   604  THR604      0.1897
     76  C         69.5260   89.4440   83.2590 C.2   604  THR604      0.2313
     77  O         68.5590   89.7150   82.5500 O.2   604  THR604     -0.2863
     78  CB        69.9950   91.8980   83.3470 C.3   604  THR604      0.1794
     79  OG1       69.7040   92.0500   81.9520 O.3   604  THR604     -0.2208
     80  CG2       70.9500   92.9900   83.8030 C.3   604  THR604      0.0378
@<TRIPOS>BOND
     1    23    22    2
     2    33    31   ar
     3    33    34   ar
     4    31    30   ar
     5    24    22   am
     6    46    45    2
     7    20    19    2
     8    22    21    1
     9    28    27    2
    10    57    56    2
    11    59    58    1
    12    34    32   ar
    13    26    27    1
    14    26    25    1
    15    26    29    1
    16    55    58    1
    17    55    56    1
    18    55    54    1
    19    19    25   am
    20    19    18    1
    21    45    54   am
    22    45    44    1
    23    72    69    1
    24    72    73    1
    25    30    29    1
    26    30    32   ar
    27    47    44    1
    28    47    48    1
    29    79    78    1
    30    56    60   am
    31    21    18    1
    32    69    68    1
    33    69    70    1
    34    44    43    1
    35    18    17    1
    36    63    62    2
    37    77    76    2
    38    48    49   ar
    39    48    50   ar
    40    74    70   am
    41    74    75    1
    42    49    51   ar
    43    15    14    2
    44    68    62   am
    45    62    61    1
    46    70    71    2
    47    76    75    1
    48    50    52   ar
    49    60    61    1
    50    78    75    1
    51    78    80    1
    52    51    53   ar
    53    43    37   am
    54    61    64    1
    55    52    53   ar
    56    12    11    2
    57    14    16   am
    58    14    13    1
    59    38    37    2
    60    37    36    1
    61    11    10    1
    62    10    13    1
    63    10     9    1
    64    64    65    1
    65     4     3    2
    66    36    35    1
    67    36    39    1
    68    67    65    1
    69     9     3   am
    70    65    66    1
    71     3     2    1
    72    39    40    1
    73     8     6    1
    74     6     5    1
    75     5     2    1
    76     5     7    1
    77     2     1    1
    78    40    41    1
    79    40    42    1
