@<TRIPOS>MOLECULE
tmp/3j0aA00.pdb
 84 85 0 0 0
SMALL
GASTEIGER

@<TRIPOS>ATOM
      1  N        128.1370  100.9480   85.8190 N.3    13  PHE13      -0.1227
      2  CA       127.9700   99.9030   84.7990 C.3    13  PHE13       0.1736
      3  C        129.3730   99.5190   84.2670 C.2    13  PHE13       0.2596
      4  O        129.4880   98.6610   83.3710 O.2    13  PHE13      -0.2718
      5  CB       127.1050  100.3970   83.6210 C.3    13  PHE13       0.0547
      6  CG       125.6190  100.4350   83.9500 C.ar   13  PHE13      -0.0202
      7  CD1      124.9390   99.2820   84.4130 C.ar   13  PHE13      -0.0042
      8  CD2      124.8880  101.6180   83.7690 C.ar   13  PHE13      -0.0042
      9  CE1      123.5370   99.3140   84.6670 C.ar   13  PHE13      -0.0003
     10  CE2      123.4870  101.6620   84.0190 C.ar   13  PHE13      -0.0003
     11  CZ       122.8180  100.4900   84.4610 C.ar   13  PHE13      -0.0000
     12  N        130.3930  100.1840   84.8310 N.am   14  CYS14      -0.1956
     13  CA       131.7940   99.9340   84.4760 C.3    14  CYS14       0.1843
     14  C        132.1190  100.0050   82.9840 C.2    14  CYS14       0.2625
     15  O        132.5740   99.0030   82.4110 O.2    14  CYS14      -0.2714
     16  CB       132.1990   98.5850   85.0540 C.3    14  CYS14       0.0997
     17  SG       131.9590   98.5050   86.8200 S.3    14  CYS14      -0.0797
     18  N        131.8380  101.1430   82.3850 N.am   15  ASN15      -0.1958
     19  CA       132.1430  101.2540   80.9680 C.3    15  ASN15       0.1819
     20  C        133.4740  101.9910   80.7140 C.2    15  ASN15       0.2621
     21  O        133.9540  102.7510   81.5750 O.2    15  ASN15      -0.2715
     22  CB       130.9820  102.0270   80.2560 C.3    15  ASN15       0.1195
     23  CG       129.6580  101.2510   80.3920 C.2    15  ASN15       0.2630
     24  OD1      129.1000  101.1100   81.4460 O.2    15  ASN15      -0.2716
     25  ND2      129.1150  100.7160   79.2100 N.am   15  ASN15      -0.0877
     26  N        134.0640  101.7180   79.5470 N.am   16  LEU16      -0.1963
     27  CA       135.3530  102.3230   79.2230 C.3    16  LEU16       0.1728
     28  C        135.1370  103.6710   78.4580 C.2    16  LEU16       0.2617
     29  O        135.6590  104.6840   78.8440 O.2    16  LEU16      -0.2715
     30  CB       136.1730  101.3820   78.3500 C.3    16  LEU16       0.0311
     31  CG       137.5650  101.8180   77.9240 C.3    16  LEU16       0.0022
     32  CD1      138.4820  101.9730   79.1230 C.3    16  LEU16       0.0001
     33  CD2      138.1800  100.8220   76.9200 C.3    16  LEU16       0.0001
     34  N        134.3600  103.5790   77.3890 N.am   17  THR17      -0.1937
     35  CA       134.0610  104.7880   76.6050 C.3    17  THR17       0.2028
     36  C        132.6010  105.1790   76.8600 C.2    17  THR17       0.2642
     37  O        131.8020  104.3620   77.3350 O.2    17  THR17      -0.2714
     38  CB       134.2680  104.4870   75.1010 C.3    17  THR17       0.1808
     39  OG1      135.5180  103.8460   74.9120 O.3    17  THR17      -0.2208
     40  CG2      134.2570  105.7720   74.3130 C.3    17  THR17       0.0379
     41  N        132.2990  106.4350   76.5710 N.am   18  GLN18      -0.1963
     42  CA       130.9450  106.9610   76.7480 C.3    18  GLN18       0.1733
     43  C        129.8920  106.1500   75.9950 C.2    18  GLN18       0.2616
     44  O        130.2030  105.4420   75.0290 O.2    18  GLN18      -0.2715
     45  CB       130.8800  108.4250   76.3040 C.3    18  GLN18       0.0408
     46  CG       131.3580  108.6980   74.8820 C.3    18  GLN18       0.0908
     47  CD       132.8610  108.9490   74.7580 C.2    18  GLN18       0.2608
     48  OE1      133.3990  108.9890   73.6520 O.2    18  GLN18      -0.2717
     49  NE2      133.5360  109.1390   75.8860 N.am   18  GLN18      -0.0878
     50  N        128.6430  106.2710   76.4230 N.am   19  VAL19      -0.1964
     51  CA       127.5350  105.5530   75.8080 C.3    19  VAL19       0.1712
     52  C        126.9810  106.2820   74.5850 C.2    19  VAL19       0.2458
     53  O        126.3880  107.3620   74.7110 O.2    19  VAL19      -0.2730
     54  CB       126.3740  105.3420   76.8070 C.3    19  VAL19       0.0289
     55  CG1      125.3180  104.4250   76.1890 C.3    19  VAL19       0.0023
     56  CG2      126.9040  104.7520   78.1000 C.3    19  VAL19       0.0023
     57  N        127.1730  105.7040   73.3750 N.am   20  PRO20      -0.2716
     58  CA       126.6610  106.3360   72.1560 C.3    20  PRO20       0.1536
     59  C        125.1880  106.0370   71.8790 C.2    20  PRO20       0.2598
     60  O        124.5230  106.7940   71.1720 O.2    20  PRO20      -0.2715
     61  CB       127.5950  105.7820   71.0850 C.3    20  PRO20       0.0310
     62  CG       127.8130  104.3970   71.5520 C.3    20  PRO20       0.0237
     63  CD       128.0540  104.5670   73.0370 C.3    20  PRO20       0.0939
     64  N        124.6880  104.9390   72.4490 N.am   21  GLN21      -0.1978
     65  CA       123.3080  104.5140   72.2700 C.3    21  GLN21       0.1601
     66  C        122.2720  105.5780   72.6490 C.2    21  GLN21       0.2287
     67  O        121.1310  105.5390   72.1860 O.2    21  GLN21      -0.2864
     68  CB       123.0340  103.2460   73.0970 C.3    21  GLN21       0.0394
     69  CG       123.8940  102.0520   72.6920 C.3    21  GLN21       0.0908
     70  CD       123.4660  100.7790   73.3810 C.2    21  GLN21       0.2608
     71  OE1      122.2850  100.4330   73.3940 O.2    21  GLN21      -0.2717
     72  NE2      124.4300  100.0640   73.9590 N.am   21  GLN21      -0.0878
     73  N        134.9690  104.4920   84.6790 N.3    35  TYR35      -0.1241
     74  CA       136.3310  104.9290   84.4110 C.3    35  TYR35       0.1605
     75  C        136.5780  105.1990   82.9260 C.2    35  TYR35       0.2264
     76  O        136.1930  104.4060   82.0680 O.2    35  TYR35      -0.2867
     77  CB       137.3370  103.8910   84.9420 C.3    35  TYR35       0.0534
     78  CG       136.9720  102.4390   84.7020 C.ar   35  TYR35      -0.0201
     79  CD1      137.0220  101.8750   83.4010 C.ar   35  TYR35      -0.0009
     80  CD2      136.5700  101.6060   85.7710 C.ar   35  TYR35      -0.0009
     81  CE1      136.6670  100.4960   83.1760 C.ar   35  TYR35       0.0417
     82  CE2      136.2150  100.2270   85.5520 C.ar   35  TYR35       0.0417
     83  CZ       136.2680   99.6920   84.2540 C.ar   35  TYR35       0.1957
     84  OH       135.9390   98.3760   84.0370 O.3    35  TYR35      -0.2866
@<TRIPOS>BOND
     1    61    62    1
     2    61    58    1
     3    60    59    2
     4    62    63    1
     5    59    58    1
     6    59    64   am
     7    58    57    1
     8    67    66    2
     9    65    64    1
    10    65    66    1
    11    65    68    1
    12    69    68    1
    13    69    70    1
    14    63    57    1
    15    57    52   am
    16    70    71    2
    17    70    72   am
    18    48    47    2
    19    40    38    1
    20    52    53    2
    21    52    51    1
    22    47    46    1
    23    47    49   am
    24    46    45    1
    25    39    38    1
    26    44    43    2
    27    38    35    1
    28    51    50    1
    29    51    54    1
    30    43    50   am
    31    43    42    1
    32    55    54    1
    33    45    42    1
    34    41    42    1
    35    41    36   am
    36    35    36    1
    37    35    34    1
    38    54    56    1
    39    36    37    2
    40    33    31    1
    41    34    28   am
    42    31    30    1
    43    31    32    1
    44    30    27    1
    45    28    29    2
    46    28    27    1
    47    25    23   am
    48    27    26    1
    49    26    20   am
    50    22    23    1
    51    22    19    1
    52    23    24    2
    53    20    19    1
    54    20    21    2
    55    19    18    1
    56    76    75    2
    57    18    14   am
    58    15    14    2
    59    75    74    1
    60    14    13    1
    61    81    79   ar
    62    81    83   ar
    63     4     3    2
    64    79    78   ar
    65     5     6    1
    66     5     2    1
    67     8     6   ar
    68     8    10   ar
    69     6     7   ar
    70    10    11   ar
    71    84    83    1
    72    83    82   ar
    73     3     2    1
    74     3    12   am
    75    74    73    1
    76    74    77    1
    77     7     9   ar
    78    11     9   ar
    79    13    12    1
    80    13    16    1
    81    78    77    1
    82    78    80   ar
    83     2     1    1
    84    16    17    1
    85    82    80   ar
