@<TRIPOS>MOLECULE
tmp/3j0aA03.pdb
 98 91 0 0 0
SMALL
GASTEIGER

@<TRIPOS>ATOM
      1  N        128.0390  133.7360  109.7260 N.3   237  ILE237     -0.1245
      2  CA       127.8030  132.5540  110.5560 C.3   237  ILE237      0.1561
      3  C        129.0580  132.1210  111.3170 C.2   237  ILE237      0.2260
      4  O        130.0890  131.8440  110.7180 O.2   237  ILE237     -0.2867
      5  CB       127.2720  131.3550  109.6830 C.3   237  ILE237      0.0252
      6  CG1      127.1160  130.1000  110.5440 C.3   237  ILE237      0.0019
      7  CG2      128.2080  131.1180  108.5030 C.3   237  ILE237      0.0019
      8  CD1      126.6490  128.8460  109.7800 C.3   237  ILE237      0.0001
      9  N        124.2370  133.7850  112.2530 N.3   272  ASP272     -0.1239
     10  CA       123.7700  132.4090  112.4230 C.3   272  ASP272      0.1674
     11  C        124.7780  131.5600  113.1830 C.2   272  ASP272      0.2266
     12  O        125.9850  131.7460  113.0390 O.2   272  ASP272     -0.2867
     13  CB       123.4680  131.7950  111.0470 C.3   272  ASP272      0.1410
     14  CG       123.1530  130.3110  111.1310 C.2   272  ASP272      0.3668
     15  OD1      122.3020  129.9260  111.9600 O.co2 272  ASP272     -0.2456
     16  OD2      123.7550  129.5270  110.3610 O.co2 272  ASP272     -0.2456
     17  N        124.6330  127.7680  113.4960 N.3   274  SER274     -0.1202
     18  CA       124.1390  126.4170  113.2400 C.3   274  SER274      0.2020
     19  C        125.1840  125.3570  113.5600 C.2   274  SER274      0.2618
     20  O        126.3700  125.5700  113.3320 O.2   274  SER274     -0.2717
     21  CB       123.7090  126.2840  111.7760 C.3   274  SER274      0.2103
     22  OG       122.7390  127.2650  111.4440 O.3   274  SER274     -0.2182
     23  N        124.7410  124.2190  114.0870 N.am  275  HIS275     -0.1975
     24  CA       125.6300  123.1080  114.4580 C.3   275  HIS275      0.1656
     25  C        126.6940  123.5710  115.4560 C.2   275  HIS275      0.2291
     26  O        127.8010  123.0210  115.4980 O.2   275  HIS275     -0.2864
     27  CB       126.3160  122.5230  113.2110 C.3   275  HIS275      0.0771
     28  CG       125.3660  121.9990  112.1820 C.ar  275  HIS275      0.0820
     29  ND1      124.4210  121.0320  112.4610 N.ar  275  HIS275     -0.2267
     30  CD2      125.2270  122.2930  110.8660 C.ar  275  HIS275      0.1154
     31  CE1      123.7440  120.7560  111.3650 C.ar  275  HIS275      0.1986
     32  NE2      124.2150  121.5030  110.3850 N.ar  275  HIS275     -0.2212
     33  N        119.6200  133.5200  113.0880 N.3   296  ASN296     -0.1240
     34  CA       119.3690  132.1230  112.7560 C.3   296  ASN296      0.1653
     35  C        120.0760  131.1490  113.7040 C.2   296  ASN296      0.2266
     36  O        121.2550  131.3210  114.0190 O.2   296  ASN296     -0.2867
     37  CB       119.7990  131.8490  111.3150 C.3   296  ASN296      0.1155
     38  CG       119.3220  130.5080  110.8080 C.2   296  ASN296      0.2627
     39  OD1      118.1800  130.1190  111.0310 O.2   296  ASN296     -0.2716
     40  ND2      120.1990  129.7960  110.1030 N.am  296  ASN296     -0.0877
     41  N        120.0260  127.0180  113.8870 N.3   298  ALA298     -0.1231
     42  CA       119.5790  125.6840  113.5010 C.3   298  ALA298      0.1694
     43  C        120.4240  124.5810  114.1440 C.2   298  ALA298      0.2592
     44  O        121.6490  124.6900  114.2130 O.2   298  ALA298     -0.2718
     45  CB       119.6170  125.5490  111.9750 C.3   298  ALA298      0.0304
     46  N        119.7530  123.5170  114.5860 N.am  299  TYR299     -0.1976
     47  CA       120.3900  122.3650  115.2170 C.3   299  TYR299      0.1639
     48  C        121.2550  122.7240  116.4270 C.2   299  TYR299      0.2290
     49  O        122.4910  122.7530  116.3490 O.2   299  TYR299     -0.2864
     50  CB       121.2240  121.5880  114.1850 C.3   299  TYR299      0.0560
     51  CG       120.4320  121.0170  113.0120 C.ar  299  TYR299     -0.0198
     52  CD1      119.8690  121.8740  112.0240 C.ar  299  TYR299     -0.0009
     53  CD2      120.2240  119.6200  112.8810 C.ar  299  TYR299     -0.0009
     54  CE1      119.1110  121.3490  110.9290 C.ar  299  TYR299      0.0417
     55  CE2      119.4570  119.0880  111.7810 C.ar  299  TYR299      0.0417
     56  CZ       118.9100  119.9610  110.8200 C.ar  299  TYR299      0.1957
     57  OH       118.1520  119.4560  109.7830 O.3   299  TYR299     -0.2866
     58  N        113.5040  137.9110  111.0590 N.3   318  VAL318     -0.1245
     59  CA       113.5470  136.4630  110.9010 C.3   318  VAL318      0.1561
     60  C        114.3090  135.7990  112.0560 C.2   318  VAL318      0.2260
     61  O        115.2660  136.3740  112.5810 O.2   318  VAL318     -0.2867
     62  CB       114.2080  136.0620  109.5550 C.3   318  VAL318      0.0252
     63  CG1      114.1980  134.5650  109.3980 C.3   318  VAL318      0.0019
     64  CG2      113.4700  136.7300  108.4050 C.3   318  VAL318      0.0019
     65  N        114.9590  131.4820  112.9590 N.3   320  ASN320     -0.1240
     66  CA       114.6180  130.0710  112.9050 C.3   320  ASN320      0.1653
     67  C        115.2460  129.3000  114.0480 C.2   320  ASN320      0.2266
     68  O        116.4440  129.0810  114.0690 O.2   320  ASN320     -0.2867
     69  CB       115.0780  129.5050  111.5710 C.3   320  ASN320      0.1155
     70  CG       114.6210  130.3020  110.3940 C.2   320  ASN320      0.2627
     71  OD1      113.4800  130.8090  110.4180 O.2   320  ASN320     -0.2716
     72  ND2      115.4360  130.4010  109.3510 N.am  320  ASN320     -0.0877
     73  N        115.1950  126.1410  114.9290 N.3   322  SER322     -0.1217
     74  CA       114.9760  124.7460  114.5300 C.3   322  SER322      0.1889
     75  C        115.7500  123.7220  115.3400 C.2   322  SER322      0.2288
     76  O        116.9860  123.6970  115.3040 O.2   322  SER322     -0.2866
     77  CB       115.3330  124.5670  113.0590 C.3   322  SER322      0.2089
     78  OG       114.5380  125.4260  112.2590 O.3   322  SER322     -0.2183
     79  N        108.7950  136.4290  111.4900 N.3   342  TYR342     -0.1241
     80  CA       108.9320  134.9990  111.1900 C.3   342  TYR342      0.1605
     81  C        109.8170  134.2440  112.1860 C.2   342  TYR342      0.2264
     82  O        110.9590  134.6110  112.4240 O.2   342  TYR342     -0.2867
     83  CB       109.4980  134.8040  109.7740 C.3   342  TYR342      0.0534
     84  CG       109.6700  133.3620  109.3660 C.ar  342  TYR342     -0.0201
     85  CD1      108.5810  132.4600  109.3790 C.ar  342  TYR342     -0.0009
     86  CD2      110.9380  132.8790  108.9600 C.ar  342  TYR342     -0.0009
     87  CE1      108.7570  131.0830  108.9940 C.ar  342  TYR342      0.0417
     88  CE2      111.1190  131.5100  108.5750 C.ar  342  TYR342      0.0417
     89  CZ       110.0270  130.6230  108.5940 C.ar  342  TYR342      0.1957
     90  OH       110.1930  129.3110  108.2120 O.3   342  TYR342     -0.2866
     91  N        110.7230  130.0440  113.3500 N.3   344  ASP344     -0.1239
     92  CA       110.5800  128.6400  112.9840 C.3   344  ASP344      0.1674
     93  C        111.0640  127.7050  114.0800 C.2   344  ASP344      0.2266
     94  O        112.2610  127.4220  114.1830 O.2   344  ASP344     -0.2867
     95  CB       111.3640  128.3590  111.6970 C.3   344  ASP344      0.1410
     96  CG       111.0040  127.0200  111.0770 C.2   344  ASP344      0.3668
     97  OD1      111.5950  126.6850  110.0300 O.co2 344  ASP344     -0.2456
     98  OD2      110.1370  126.3080  111.6240 O.co2 344  ASP344     -0.2456
@<TRIPOS>BOND
     1    90    89    1
     2    64    62    1
     3     7     5    1
     4    88    89   ar
     5    88    86   ar
     6    89    87   ar
     7    86    84   ar
     8    87    85   ar
     9    72    70   am
    10    84    85   ar
    11    84    83    1
    12    63    62    1
    13    62    59    1
    14     5     6    1
    15     5     2    1
    16     1     2    1
    17    83    80    1
    18     8     6    1
    19    57    56    1
    20    97    96   ar
    21    40    38   am
    22    16    14   ar
    23    32    30   ar
    24    32    31   ar
    25    70    71    2
    26    70    69    1
    27     2     3    1
    28     4     3    2
    29    38    39    2
    30    38    37    1
    31    56    54   ar
    32    56    55   ar
    33    30    28   ar
    34    59    58    1
    35    59    60    1
    36    54    52   ar
    37    13    14    1
    38    13    10    1
    39    96    98   ar
    40    96    95    1
    41    14    15   ar
    42    80    79    1
    43    80    81    1
    44    37    34    1
    45    31    29   ar
    46    22    21    1
    47    69    66    1
    48    95    92    1
    49    21    18    1
    50    55    53   ar
    51    45    42    1
    52    52    51   ar
    53    60    61    2
    54    28    29   ar
    55    28    27    1
    56    81    82    2
    57     9    10    1
    58    78    77    1
    59    10    11    1
    60    34    33    1
    61    34    35    1
    62    53    51   ar
    63    66    65    1
    64    66    67    1
    65    92    91    1
    66    92    93    1
    67    51    50    1
    68    12    11    2
    69    77    74    1
    70    27    24    1
    71    18    17    1
    72    18    19    1
    73    20    19    2
    74    42    41    1
    75    42    43    1
    76    19    23   am
    77    35    36    2
    78    67    68    2
    79    93    94    2
    80    23    24    1
    81    43    44    2
    82    43    46   am
    83    50    47    1
    84    24    25    1
    85    74    73    1
    86    74    75    1
    87    46    47    1
    88    47    48    1
    89    76    75    2
    90    25    26    2
    91    49    48    2
