@<TRIPOS>MOLECULE
tmp/3j1fK00.pdb
 182 172 0 0 0
SMALL
GASTEIGER

@<TRIPOS>ATOM
      1  N         48.6700  -34.6390  -18.6950 N.3    23  TYR23      -0.1227
      2  CA        50.1170  -34.7730  -18.8900 C.3    23  TYR23       0.1736
      3  C         50.5730  -36.2250  -18.3940 C.2    23  TYR23       0.2596
      4  O         49.8460  -36.8870  -17.6870 O.2    23  TYR23      -0.2718
      5  CB        50.9210  -33.8300  -17.9250 C.3    23  TYR23       0.0548
      6  CG        52.3700  -33.5740  -18.3580 C.ar   23  TYR23      -0.0200
      7  CD1       52.6120  -33.2070  -19.7000 C.ar   23  TYR23      -0.0009
      8  CD2       53.3810  -33.8210  -17.4310 C.ar   23  TYR23      -0.0009
      9  CE1       53.9970  -33.1080  -20.1130 C.ar   23  TYR23       0.0417
     10  CE2       54.7030  -33.6430  -17.8670 C.ar   23  TYR23       0.0417
     11  CZ        54.9980  -33.3340  -19.1500 C.ar   23  TYR23       0.1957
     12  OH        56.3380  -32.9760  -19.4370 O.3    23  TYR23      -0.2866
     13  N         51.7500  -36.7300  -18.9780 N.am   24  GLY24      -0.1943
     14  CA        52.1960  -38.1580  -18.7450 C.3    24  GLY24       0.1998
     15  C         51.2830  -39.2020  -19.4120 C.2    24  GLY24       0.2480
     16  O         50.1480  -38.9100  -19.8690 O.2    24  GLY24      -0.2729
     17  N         51.6890  -40.4880  -19.6220 N.am   25  PRO25      -0.2726
     18  CA        50.8990  -41.4520  -20.3990 C.3    25  PRO25       0.1402
     19  C         49.7130  -41.9130  -19.6910 C.2    25  PRO25       0.2269
     20  O         48.8680  -42.5380  -20.3710 O.2    25  PRO25      -0.2865
     21  CB        51.8420  -42.6510  -20.7750 C.3    25  PRO25       0.0296
     22  CG        52.9430  -42.5290  -19.7150 C.3    25  PRO25       0.0237
     23  CD        53.0540  -40.9990  -19.4820 C.3    25  PRO25       0.0939
     24  N         44.6470  -34.5230  -27.2360 N.3    44  ASP44      -0.1225
     25  CA        45.5690  -33.6560  -28.0000 C.3    44  ASP44       0.1805
     26  C         45.6390  -32.2690  -27.4820 C.2    44  ASP44       0.2598
     27  O         44.7020  -31.5170  -27.5470 O.2    44  ASP44      -0.2718
     28  CB        45.0420  -33.7640  -29.4490 C.3    44  ASP44       0.1424
     29  CG        46.0380  -33.1060  -30.3610 C.2    44  ASP44       0.3668
     30  OD1       45.7240  -32.0690  -31.0430 O.co2  44  ASP44      -0.2456
     31  OD2       47.1530  -33.6560  -30.5090 O.co2  44  ASP44      -0.2456
     32  N         46.8440  -31.9590  -26.9230 N.am   45  GLY45      -0.1957
     33  CA        47.1080  -30.5910  -26.3910 C.3    45  GLY45       0.1869
     34  C         46.7300  -29.4350  -27.2950 C.2    45  GLY45       0.2309
     35  O         45.9030  -28.6420  -26.9370 O.2    45  GLY45      -0.2863
     36  N         55.7820  -32.0290  -33.7070 N.3    74  ALA74      -0.1231
     37  CA        54.8800  -31.1520  -32.9510 C.3    74  ALA74       0.1694
     38  C         54.8950  -31.4500  -31.5010 C.2    74  ALA74       0.2592
     39  O         53.9860  -30.9620  -30.8240 O.2    74  ALA74      -0.2718
     40  CB        53.3930  -31.4050  -33.4420 C.3    74  ALA74       0.0304
     41  N         55.7420  -32.2630  -31.0090 N.am   75  ASP75      -0.1960
     42  CA        55.8210  -32.7880  -29.6980 C.3    75  ASP75       0.1840
     43  C         56.2470  -31.7590  -28.6290 C.2    75  ASP75       0.2623
     44  O         56.9720  -30.7960  -28.9110 O.2    75  ASP75      -0.2715
     45  CB        56.7730  -33.9610  -29.7360 C.3    75  ASP75       0.1450
     46  CG        56.3570  -35.1770  -28.9870 C.2    75  ASP75       0.3671
     47  OD1       56.2820  -36.2580  -29.6070 O.co2  75  ASP75      -0.2456
     48  OD2       56.0710  -35.0630  -27.7610 O.co2  75  ASP75      -0.2456
     49  N         55.7700  -31.8650  -27.3960 N.am   76  GLY76      -0.1940
     50  CA        56.0850  -31.0270  -26.2380 C.3    76  GLY76       0.2014
     51  C         55.0460  -29.8440  -25.9650 C.2    76  GLY76       0.2640
     52  O         55.3140  -28.9580  -25.1980 O.2    76  GLY76      -0.2714
     53  N         53.8850  -29.7620  -26.6830 N.am   77  THR77      -0.1936
     54  CA        52.9120  -28.7230  -26.5040 C.3    77  THR77       0.2028
     55  C         52.1950  -28.7960  -25.1640 C.2    77  THR77       0.2642
     56  O         51.9300  -27.7490  -24.5600 O.2    77  THR77      -0.2714
     57  CB        51.7860  -28.6040  -27.5710 C.3    77  THR77       0.1808
     58  OG1       52.2100  -28.1470  -28.8500 O.3    77  THR77      -0.2208
     59  CG2       50.6170  -27.7130  -27.1900 C.3    77  THR77       0.0379
     60  N         51.9340  -30.0140  -24.6180 N.am   78  LYS78      -0.1963
     61  CA        51.3830  -30.0640  -23.2820 C.3    78  LYS78       0.1728
     62  C         52.3380  -29.5400  -22.2610 C.2    78  LYS78       0.2616
     63  O         51.8900  -28.9160  -21.2850 O.2    78  LYS78      -0.2715
     64  CB        50.9340  -31.4930  -23.0480 C.3    78  LYS78       0.0311
     65  CG        49.9140  -32.0420  -24.0740 C.3    78  LYS78       0.0038
     66  CD        49.0620  -33.2360  -23.6740 C.3    78  LYS78       0.0206
     67  CE        49.7910  -34.4440  -23.0700 C.3    78  LYS78       0.1093
     68  NZ        50.5160  -35.1050  -24.1710 N.3    78  LYS78      -0.1314
     69  N         53.6720  -29.8900  -22.4820 N.am   79  THR79      -0.1951
     70  CA        54.7460  -29.4910  -21.5080 C.3    79  THR79       0.1897
     71  C         54.8900  -28.0170  -21.6040 C.2    79  THR79       0.2313
     72  O         54.6150  -27.3410  -20.5950 O.2    79  THR79      -0.2863
     73  CB        56.1480  -29.9240  -21.8930 C.3    79  THR79       0.1794
     74  OG1       56.1880  -31.3560  -21.7360 O.3    79  THR79      -0.2208
     75  CG2       57.2760  -29.3770  -20.9680 C.3    79  THR79       0.0378
     76  N         58.8200  -45.3680  -27.1720 N.3   140  THR140     -0.1218
     77  CA        58.6680  -44.1240  -26.4470 C.3   140  THR140      0.1862
     78  C         57.6990  -43.0800  -27.1080 C.2   140  THR140      0.2287
     79  O         57.2690  -42.1650  -26.4660 O.2   140  THR140     -0.2866
     80  CB        59.9670  -43.4340  -26.1930 C.3   140  THR140      0.1770
     81  OG1       60.8910  -44.4400  -25.8160 O.3   140  THR140     -0.2211
     82  CG2       59.8110  -42.4280  -24.9660 C.3   140  THR140      0.0375
     83  N         52.4200  -44.5930  -25.8230 N.3   144  SER144     -0.1217
     84  CA        51.5060  -43.6990  -25.1340 C.3   144  SER144      0.1889
     85  C         50.2550  -43.3450  -25.9960 C.2   144  SER144      0.2288
     86  O         49.3700  -42.4920  -25.7880 O.2   144  SER144     -0.2866
     87  CB        52.1240  -42.3070  -24.8820 C.3   144  SER144      0.2089
     88  OG        53.1180  -42.3280  -23.8990 O.3   144  SER144     -0.2183
     89  N         64.3810  -39.8650  -20.5570 N.3   390  GLY390     -0.1210
     90  CA        63.0980  -39.2270  -20.0700 C.3   390  GLY390      0.1956
     91  C         62.8290  -39.7230  -18.6400 C.2   390  GLY390      0.2612
     92  O         63.6540  -40.1740  -17.8760 O.2   390  GLY390     -0.2717
     93  N         61.5300  -39.7130  -18.2560 N.am  391  GLY391     -0.1956
     94  CA        60.9990  -40.1380  -16.9840 C.3   391  GLY391      0.1869
     95  C         61.4970  -39.3350  -15.7950 C.2   391  GLY391      0.2309
     96  O         61.7310  -39.8280  -14.6980 O.2   391  GLY391     -0.2863
     97  N         65.2250  -33.2190  -15.7960 N.3   395  GLU395     -0.1245
     98  CA        64.4690  -32.3210  -14.9530 C.3   395  GLU395      0.1567
     99  C         65.1560  -32.3170  -13.6460 C.2   395  GLU395      0.2260
    100  O         65.6400  -31.2600  -13.3240 O.2   395  GLU395     -0.2867
    101  CB        63.0020  -32.8370  -14.8990 C.3   395  GLU395      0.0388
    102  CG        62.2670  -32.7800  -16.2650 C.3   395  GLU395      0.1160
    103  CD        62.4560  -33.9850  -17.1570 C.2   395  GLU395      0.3649
    104  OE1       63.3530  -34.8010  -16.9310 O.co2 395  GLU395     -0.2457
    105  OE2       61.6650  -34.1540  -18.1010 O.co2 395  GLU395     -0.2457
    106  N         53.1580  -34.9950  -13.1820 N.3   431  LEU431     -0.1245
    107  CA        53.5020  -36.2850  -13.7280 C.3   431  LEU431      0.1561
    108  C         53.4370  -37.4690  -12.7910 C.2   431  LEU431      0.2260
    109  O         52.7970  -38.4220  -13.2030 O.2   431  LEU431     -0.2867
    110  CB        55.0030  -36.2350  -14.3960 C.3   431  LEU431      0.0270
    111  CG        55.1200  -37.4180  -15.3160 C.3   431  LEU431      0.0019
    112  CD1       55.0460  -37.0760  -16.7920 C.3   431  LEU431      0.0001
    113  CD2       56.4650  -38.1620  -15.1060 C.3   431  LEU431      0.0001
    114  N         61.5790  -41.6160  -12.4370 N.3   460  ILE460     -0.1231
    115  CA        60.4900  -42.3870  -11.8040 C.3   460  ILE460      0.1692
    116  C         59.7550  -43.1790  -12.7790 C.2   460  ILE460      0.2592
    117  O         58.8300  -42.6980  -13.4780 O.2   460  ILE460     -0.2718
    118  CB        59.5560  -41.5970  -10.8400 C.3   460  ILE460      0.0266
    119  CG1       59.2070  -40.1830  -11.1460 C.3   460  ILE460      0.0019
    120  CG2       60.0580  -41.7570   -9.4000 C.3   460  ILE460      0.0020
    121  CD1       58.1290  -40.0900  -12.1720 C.3   460  ILE460      0.0001
    122  N         59.9250  -44.4950  -12.7090 N.am  461  ASP461     -0.1960
    123  CA        59.0630  -45.4140  -13.4340 C.3   461  ASP461      0.1840
    124  C         57.6110  -45.1930  -13.0190 C.2   461  ASP461      0.2622
    125  O         57.2340  -45.5000  -11.8750 O.2   461  ASP461     -0.2715
    126  CB        59.5450  -46.9450  -13.3350 C.3   461  ASP461      0.1450
    127  CG        58.6980  -47.8390  -14.1470 C.2   461  ASP461      0.3671
    128  OD1       57.4700  -47.8750  -14.0460 O.co2 461  ASP461     -0.2456
    129  OD2       59.2700  -48.5580  -14.9680 O.co2 461  ASP461     -0.2456
    130  N         56.7890  -44.6670  -13.9320 N.am  462  LEU462     -0.1963
    131  CA        55.4240  -44.2850  -13.6900 C.3   462  LEU462      0.1728
    132  C         54.4640  -45.4780  -13.5570 C.2   462  LEU462      0.2616
    133  O         53.2510  -45.2580  -13.5580 O.2   462  LEU462     -0.2715
    134  CB        54.9430  -43.3340  -14.8250 C.3   462  LEU462      0.0311
    135  CG        53.9950  -42.2670  -14.3490 C.3   462  LEU462      0.0022
    136  CD1       54.7130  -41.1650  -13.4500 C.3   462  LEU462      0.0001
    137  CD2       53.3030  -41.6460  -15.5370 C.3   462  LEU462      0.0001
    138  N         54.9510  -46.6700  -13.2240 N.am  463  TYR463     -0.1974
    139  CA        54.0340  -47.7210  -12.7630 C.3   463  TYR463      0.1639
    140  C         54.7780  -48.4210  -11.6010 C.2   463  TYR463      0.2290
    141  O         54.1920  -49.0880  -10.7270 O.2   463  TYR463     -0.2864
    142  CB        53.8320  -48.8100  -13.8620 C.3   463  TYR463      0.0560
    143  CG        52.7460  -48.4000  -14.8620 C.ar  463  TYR463     -0.0198
    144  CD1       52.9220  -47.5890  -15.9430 C.ar  463  TYR463     -0.0009
    145  CD2       51.4310  -48.7070  -14.5230 C.ar  463  TYR463     -0.0009
    146  CE1       51.8740  -47.1880  -16.7560 C.ar  463  TYR463      0.0417
    147  CE2       50.3380  -48.2410  -15.2250 C.ar  463  TYR463      0.0417
    148  CZ        50.5480  -47.5490  -16.3810 C.ar  463  TYR463      0.1957
    149  OH        49.4040  -46.9380  -17.1580 O.3   463  TYR463     -0.2866
    150  N         66.1120  -44.8440  -16.3060 N.3   470  MET470     -0.1245
    151  CA        65.2090  -44.6300  -17.3910 C.3   470  MET470      0.1570
    152  C         65.6890  -44.9970  -18.7700 C.2   470  MET470      0.2261
    153  O         65.0090  -45.8050  -19.4580 O.2   470  MET470     -0.2867
    154  CB        64.7240  -43.1850  -17.2490 C.3   470  MET470      0.0387
    155  CG        64.0730  -42.8820  -15.8870 C.3   470  MET470      0.0595
    156  SD        62.7900  -44.0120  -15.2350 S.3   470  MET470     -0.1393
    157  CE        61.6350  -43.9250  -16.6310 C.3   470  MET470      0.0692
    158  N         63.2080  -45.7270  -21.9960 N.3   475  VAL475     -0.1245
    159  CA        62.6540  -44.3120  -22.0550 C.3   475  VAL475      0.1561
    160  C         63.7880  -43.3750  -22.4610 C.2   475  VAL475      0.2260
    161  O         64.5810  -42.8760  -21.7290 O.2   475  VAL475     -0.2867
    162  CB        61.9980  -43.9000  -20.7210 C.3   475  VAL475      0.0252
    163  CG1       61.4530  -42.5010  -20.9470 C.3   475  VAL475      0.0019
    164  CG2       60.9160  -44.8950  -20.2990 C.3   475  VAL475      0.0019
    165  N         64.5510  -39.7740  -24.9310 N.3   477  GLU477     -0.1245
    166  CA        63.7670  -38.6920  -25.5560 C.3   477  GLU477      0.1567
    167  C         64.6870  -37.7550  -26.2200 C.2   477  GLU477      0.2260
    168  O         65.8040  -37.6060  -25.7650 O.2   477  GLU477     -0.2867
    169  CB        63.0050  -37.9410  -24.4890 C.3   477  GLU477      0.0388
    170  CG        61.6900  -38.6470  -24.2180 C.3   477  GLU477      0.1160
    171  CD        60.9390  -37.8460  -23.2580 C.2   477  GLU477      0.3649
    172  OE1       61.1590  -37.9290  -22.0360 O.co2 477  GLU477     -0.2457
    173  OE2       60.1860  -36.9590  -23.6760 O.co2 477  GLU477     -0.2457
    174  N         63.0160  -31.0800  -25.6470 N.3   482  LYS482     -0.1301
    175  CA        62.9000  -30.6680  -24.2550 C.3   482  LYS482      0.1247
    176  C         63.8240  -29.5140  -23.9190 C.3   482  LYS482      0.2009
    177  O         63.8970  -29.2740  -22.7480 O.3   482  LYS482     -0.2188
    178  CB        63.2260  -31.8450  -23.2800 C.3   482  LYS482      0.0218
    179  CG        62.6650  -33.1410  -23.8080 C.3   482  LYS482      0.0031
    180  CD        62.7600  -34.2810  -22.6940 C.3   482  LYS482      0.0205
    181  CE        61.4230  -34.3500  -21.9170 C.3   482  LYS482      0.1093
    182  NZ        61.4800  -35.4610  -20.9070 N.3   482  LYS482     -0.1314
@<TRIPOS>BOND
     1    36    37    1
     2    40    37    1
     3    37    38    1
     4    38    41   am
     5    38    39    2
     6    30    29   ar
     7    41    42    1
     8    31    29   ar
     9    29    28    1
    10    45    42    1
    11    45    46    1
    12    42    43    1
    13    47    46   ar
    14    28    25    1
    15    46    48   ar
    16    44    43    2
    17    58    57    1
    18    43    49   am
    19    25    26    1
    20    25    24    1
    21    57    59    1
    22    57    54    1
    23    27    26    2
    24    26    32   am
    25    49    50    1
    26    34    35    2
    27    34    33    1
    28    76    77    1
    29    78    79    2
    30    78    77    1
    31    32    33    1
    32    53    54    1
    33    53    51   am
    34    54    55    1
    35    77    80    1
    36    50    51    1
    37   167   168    2
    38   167   166    1
    39    80    81    1
    40    80    82    1
    41    85    86    2
    42    85    84    1
    43    51    52    2
    44    83    84    1
    45   174   175    1
    46   166   165    1
    47   166   169    1
    48    55    60   am
    49    55    56    2
    50    84    87    1
    51    87    88    1
    52    60    61    1
    53   169   170    1
    54   175   176    1
    55   175   178    1
    56   170   171    1
    57    68    67    1
    58    65    66    1
    59    65    64    1
    60   176   177    1
    61   179   178    1
    62   179   180    1
    63   173   171   ar
    64    66    67    1
    65    61    64    1
    66    61    62    1
    67   171   172   ar
    68   180   181    1
    69    69    62   am
    70    69    70    1
    71   160   159    1
    72   160   161    2
    73    62    63    2
    74   159   158    1
    75   159   162    1
    76   181   182    1
    77    73    74    1
    78    73    70    1
    79    73    75    1
    80    71    70    1
    81    71    72    2
    82   163   162    1
    83    21    18    1
    84    21    22    1
    85   162   164    1
    86    89    90    1
    87    18    19    1
    88    18    17    1
    89    20    19    2
    90     9     7   ar
    91     9    11   ar
    92    90    91    1
    93    16    15    2
    94    22    23    1
    95     7     6   ar
    96    17    23    1
    97    17    15   am
    98   153   152    2
    99    12    11    1
   100    15    14    1
   101    11    10   ar
   102    13    14    1
   103    13     3   am
   104     2     1    1
   105     2     3    1
   106     2     5    1
   107   152   151    1
   108    91    93   am
   109    91    92    2
   110     3     4    2
   111     6     5    1
   112     6     8   ar
   113    93    94    1
   114   105   103   ar
   115    10     8   ar
   116   151   154    1
   117   151   150    1
   118   154   155    1
   119   149   148    1
   120   103   104   ar
   121   103   102    1
   122    94    95    1
   123   112   111    1
   124   146   148   ar
   125   146   144   ar
   126   157   156    1
   127   148   147   ar
   128   102   101    1
   129   144   143   ar
   130   155   156    1
   131    97    98    1
   132    95    96    2
   133   137   135    1
   134   111   113    1
   135   111   110    1
   136   147   145   ar
   137   129   127   ar
   138    98   101    1
   139    98    99    1
   140   143   145   ar
   141   143   142    1
   142   134   135    1
   143   134   131    1
   144   110   107    1
   145   135   136    1
   146   127   128   ar
   147   127   126    1
   148   130   131    1
   149   130   124   am
   150   142   139    1
   151   107   106    1
   152   107   108    1
   153   131   132    1
   154    99   100    2
   155   133   132    2
   156   132   138   am
   157   117   116    2
   158   123   126    1
   159   123   124    1
   160   123   122    1
   161   138   139    1
   162   109   108    2
   163   124   125    2
   164   116   122   am
   165   116   115    1
   166   139   140    1
   167   114   115    1
   168   121   119    1
   169   115   118    1
   170   140   141    2
   171   119   118    1
   172   118   120    1
