@<TRIPOS>MOLECULE
tmp/3j25A00.pdb
 137 132 0 0 0
SMALL
GASTEIGER

@<TRIPOS>ATOM
      1  N        -16.5460   43.5210  -61.9080 N.3    11  VAL11      -0.1231
      2  CA       -16.0970   42.2970  -61.2360 C.3    11  VAL11       0.1692
      3  C        -14.9310   42.5150  -60.2680 C.2    11  VAL11       0.2592
      4  O        -14.5430   43.6530  -59.9960 O.2    11  VAL11      -0.2718
      5  CB       -15.7150   41.2530  -62.2740 C.3    11  VAL11       0.0266
      6  CG1      -14.5320   41.6180  -63.1330 C.3    11  VAL11       0.0020
      7  CG2      -15.5650   39.8750  -61.6500 C.3    11  VAL11       0.0020
      8  N        -14.3820   41.4180  -59.7460 N.am   12  ASP12      -0.1960
      9  CA       -13.2880   41.4870  -58.7800 C.3    12  ASP12       0.1840
     10  C        -11.8970   41.5260  -59.4280 C.2    12  ASP12       0.2622
     11  O        -11.7100   41.0760  -60.5530 O.2    12  ASP12      -0.2715
     12  CB       -13.3760   40.3110  -57.8190 C.3    12  ASP12       0.1450
     13  CG       -13.1750   39.0110  -58.3930 C.2    12  ASP12       0.3671
     14  OD1      -12.9510   38.8250  -59.6190 O.co2  12  ASP12      -0.2456
     15  OD2      -13.1820   37.9880  -57.6130 O.co2  12  ASP12      -0.2456
     16  N        -10.9300   42.0790  -58.7080 N.am   13  ALA13      -0.1963
     17  CA        -9.5470   42.1880  -59.1670 C.3    13  ALA13       0.1728
     18  C         -9.3400   42.9320  -60.4790 C.2    13  ALA13       0.2617
     19  O         -8.2420   42.8990  -61.0370 O.2    13  ALA13      -0.2715
     20  CB        -8.9490   40.7940  -59.2830 C.3    13  ALA13       0.0334
     21  N        -10.3740   43.6160  -60.9630 N.am   14  GLY14      -0.1940
     22  CA       -10.2730   44.3440  -62.2250 C.3    14  GLY14       0.2014
     23  C         -9.8470   45.8190  -62.1420 C.2    14  GLY14       0.2639
     24  O        -10.0870   46.5820  -63.0710 O.2    14  GLY14      -0.2714
     25  N         -9.2210   46.2210  -61.0400 N.am   15  LYS15      -0.1963
     26  CA        -8.7490   47.5950  -60.9340 C.3    15  LYS15       0.1728
     27  C         -9.6800   48.6810  -60.4200 C.2    15  LYS15       0.2617
     28  O         -9.2930   49.8510  -60.3470 O.2    15  LYS15      -0.2715
     29  CB        -8.2370   48.0220  -62.3010 C.3    15  LYS15       0.0311
     30  CG        -7.5110   49.3290  -62.3090 C.3    15  LYS15       0.0038
     31  CD        -6.1330   49.1950  -62.9750 C.3    15  LYS15       0.0206
     32  CE        -5.2980   50.4850  -62.7990 C.3    15  LYS15       0.1093
     33  NZ        -5.9560   51.7280  -63.3410 N.3    15  LYS15      -0.1314
     34  N        -10.9000   48.3000  -60.0660 N.am   16  THR16      -0.1937
     35  CA       -11.9130   49.2180  -59.5440 C.3    16  THR16       0.2028
     36  C        -11.3540   50.2760  -58.5800 C.2    16  THR16       0.2643
     37  O        -11.5310   51.4810  -58.7830 O.2    16  THR16      -0.2714
     38  CB       -13.0150   48.4270  -58.8560 C.3    16  THR16       0.1808
     39  OG1      -12.4450   47.5660  -57.8780 O.3    16  THR16      -0.2208
     40  CG2      -13.8180   47.6110  -59.8520 C.3    16  THR16       0.0379
     41  N        -10.6850   49.8030  -57.5300 N.am   17  THR17      -0.1936
     42  CA       -10.1000   50.6710  -56.5050 C.3    17  THR17       0.2028
     43  C         -8.9010   51.4900  -57.0100 C.2    17  THR17       0.2642
     44  O         -8.9000   52.7210  -56.9070 O.2    17  THR17      -0.2714
     45  CB        -9.6870   49.8390  -55.3000 C.3    17  THR17       0.1808
     46  OG1       -8.7280   48.8820  -55.7250 O.3    17  THR17      -0.2208
     47  CG2      -10.8730   49.1550  -54.6480 C.3    17  THR17       0.0379
     48  N         -7.8780   50.8150  -57.5360 N.am   18  LEU18      -0.1977
     49  CA        -6.6970   51.5100  -58.0540 C.3    18  LEU18       0.1596
     50  C         -7.1000   52.5850  -59.0590 C.2    18  LEU18       0.2287
     51  O         -6.6440   53.7260  -58.9860 O.2    18  LEU18      -0.2864
     52  CB        -5.7310   50.5200  -58.6880 C.3    18  LEU18       0.0297
     53  CG        -4.9930   49.5840  -57.7320 C.3    18  LEU18       0.0022
     54  CD1       -4.2000   48.5890  -58.5470 C.3    18  LEU18       0.0001
     55  CD2       -4.0560   50.3320  -56.8180 C.3    18  LEU18       0.0001
     56  N         -0.4530   50.0690  -53.3170 N.3    38  GLY38      -0.1225
     57  CA        -0.1030   49.2550  -52.1620 C.3    38  GLY38       0.1811
     58  C         -1.1570   49.3950  -51.0780 C.2    38  GLY38       0.2280
     59  O         -1.5160   48.4240  -50.4150 O.2    38  GLY38      -0.2866
     60  N         -6.7410   43.9890  -48.2070 N.3    52  GLY52      -0.1210
     61  CA        -6.3860   44.1590  -49.6110 C.3    52  GLY52       0.1956
     62  C         -7.4930   44.8770  -50.3770 C.2    52  GLY52       0.2612
     63  O         -7.3040   45.9960  -50.8560 O.2    52  GLY52      -0.2717
     64  N         -8.6460   44.2270  -50.4890 N.am   53  ILE53      -0.1965
     65  CA        -9.7830   44.8000  -51.1990 C.3    53  ILE53       0.1727
     66  C        -10.6360   45.6600  -50.2710 C.2    53  ILE53       0.2616
     67  O        -10.4610   45.6380  -49.0530 O.2    53  ILE53      -0.2715
     68  CB       -10.6250   43.7010  -51.8290 C.3    53  ILE53       0.0290
     69  CG1      -11.2730   42.7850  -50.7810 C.3    53  ILE53       0.0022
     70  CG2       -9.7610   42.9180  -52.7940 C.3    53  ILE53       0.0023
     71  CD1      -12.2540   41.8020  -51.3860 C.3    53  ILE53       0.0001
     72  N        -11.5580   46.4170  -50.8570 N.am   54  THR54      -0.1951
     73  CA       -12.4400   47.2850  -50.0850 C.3    54  THR54       0.1897
     74  C        -13.8230   46.6610  -49.9230 C.2    54  THR54       0.2313
     75  O        -14.6390   46.6910  -50.8430 O.2    54  THR54      -0.2863
     76  CB       -12.5470   48.6520  -50.7420 C.3    54  THR54       0.1794
     77  OG1      -13.0750   48.4800  -52.0480 O.3    54  THR54      -0.2208
     78  CG2      -11.2090   49.3640  -50.7960 C.3    54  THR54       0.0378
     79  N        -17.5980   51.0880  -55.1280 N.3    74  THR74      -0.1204
     80  CA       -18.2300   49.8260  -54.7540 C.3    74  THR74       0.1979
     81  C        -17.2660   48.6580  -54.6870 C.2    74  THR74       0.2460
     82  O        -16.1450   48.7370  -55.1860 O.2    74  THR74      -0.2732
     83  CB       -19.3570   49.5090  -55.7260 C.3    74  THR74       0.1783
     84  OG1      -18.8000   49.3700  -57.0020 O.3    74  THR74      -0.2211
     85  CG2      -20.4310   50.6030  -55.7840 C.3    74  THR74       0.0376
     86  N        -17.7070   47.5680  -54.0670 N.am   75  PRO75      -0.2717
     87  CA       -16.8810   46.3740  -53.9350 C.3    75  PRO75       0.1536
     88  C        -17.3010   45.3020  -54.9350 C.2    75  PRO75       0.2599
     89  O        -18.4800   45.1780  -55.2680 O.2    75  PRO75      -0.2715
     90  CB       -17.1050   45.9060  -52.5110 C.3    75  PRO75       0.0310
     91  CG       -18.5980   46.1250  -52.4030 C.3    75  PRO75       0.0237
     92  CD       -18.7890   47.5050  -53.0270 C.3    75  PRO75       0.0939
     93  N        -16.3300   44.5290  -55.4090 N.am   76  GLY76      -0.1941
     94  CA       -16.5970   43.4670  -56.3720 C.3    76  GLY76       0.2014
     95  C        -17.1770   42.2340  -55.6860 C.2    76  GLY76       0.2638
     96  O        -17.7670   42.3300  -54.6110 O.2    76  GLY76      -0.2714
     97  N        -17.0040   41.0760  -56.3170 N.am   77  HIS77      -0.1973
     98  CA       -17.5090   39.8230  -55.7690 C.3    77  HIS77       0.1656
     99  C        -18.9690   39.9530  -55.3480 C.2    77  HIS77       0.2291
    100  O        -19.6030   40.9810  -55.5830 O.2    77  HIS77      -0.2864
    101  CB       -16.6530   39.3750  -54.5940 C.3    77  HIS77       0.0771
    102  CG       -16.4870   40.2450  -53.4180 C.ar   77  HIS77       0.0820
    103  ND1      -17.4970   40.4690  -52.4580 N.ar   77  HIS77      -0.2267
    104  CD2      -15.4400   41.0250  -53.0250 C.ar   77  HIS77       0.1154
    105  CE1      -17.0130   41.3100  -51.5630 C.ar   77  HIS77       0.1986
    106  NE2      -15.7500   41.6210  -51.8670 N.ar   77  HIS77      -0.2212
    107  N         -5.9180   46.6100  -67.5270 N.3   129  ILE129     -0.1245
    108  CA        -5.0140   45.4700  -67.6180 C.3   129  ILE129      0.1561
    109  C         -4.6280   45.1870  -69.0660 C.2   129  ILE129      0.2260
    110  O         -4.3710   44.0420  -69.4380 O.2   129  ILE129     -0.2867
    111  CB        -5.6450   44.2390  -66.9850 C.3   129  ILE129      0.0252
    112  CG1       -5.8510   44.6800  -65.5350 C.3   129  ILE129      0.0019
    113  CG2       -4.7520   43.0500  -67.1010 C.3   129  ILE129      0.0019
    114  CD1       -4.8020   45.4710  -64.7500 C.3   129  ILE129      0.0001
    115  N         -2.3500   44.8260  -70.4510 N.3   131  GLN131     -0.1245
    116  CA        -1.0090   44.2540  -70.4820 C.3   131  GLN131      0.1566
    117  C         -0.8150   43.3690  -71.7080 C.2   131  GLN131      0.2260
    118  O         -0.3480   43.8280  -72.7500 O.2   131  GLN131     -0.2867
    119  CB        -0.7400   43.4670  -69.2090 C.3   131  GLN131      0.0367
    120  CG        -0.7940   44.3220  -67.9690 C.3   131  GLN131      0.0905
    121  CD        -0.5160   43.5490  -66.7100 C.2   131  GLN131      0.2608
    122  OE1       -0.0770   42.4380  -66.7470 O.2   131  GLN131     -0.2717
    123  NE2       -0.8280   44.1410  -65.5680 N.am  131  GLN131     -0.0878
    124  N         -4.1670   51.4230  -68.4980 N.3   220  ALA220     -0.1231
    125  CA        -4.3710   51.6340  -67.0700 C.3   220  ALA220      0.1694
    126  C         -3.0680   51.4620  -66.2960 C.2   220  ALA220      0.2591
    127  O         -2.5120   52.4290  -65.7760 O.2   220  ALA220     -0.2718
    128  CB        -5.4340   50.6840  -66.5400 C.3   220  ALA220      0.0304
    129  N         -2.5880   50.2250  -66.2230 N.am  221  LYS221     -0.1980
    130  CA        -1.3500   49.9240  -65.5130 C.3   221  LYS221      0.1596
    131  C         -0.3640   51.0840  -65.6100 C.2   221  LYS221      0.2287
    132  O         -0.2200   51.8690  -64.6730 O.2   221  LYS221     -0.2864
    133  CB        -0.7260   48.6470  -66.0540 C.3   221  LYS221      0.0298
    134  CG         0.5280   48.1660  -65.3800 C.3   221  LYS221      0.0038
    135  CD         0.1840   47.6130  -64.0340 C.3   221  LYS221      0.0206
    136  CE         1.3730   46.8520  -63.4380 C.3   221  LYS221      0.1093
    137  NZ         2.4230   47.7490  -62.9900 N.3   221  LYS221     -0.1314
@<TRIPOS>BOND
     1   118   117    2
     2   117   116    1
     3   116   115    1
     4   116   119    1
     5   110   109    2
     6   119   120    1
     7   109   108    1
     8   124   125    1
     9   120   121    1
    10   108   107    1
    11   108   111    1
    12   113   111    1
    13   125   128    1
    14   125   126    1
    15   111   112    1
    16   122   121    2
    17   121   123   am
    18   126   129   am
    19   126   127    2
    20   129   130    1
    21   133   130    1
    22   133   134    1
    23   131   130    1
    24   131   132    2
    25   112   114    1
    26   134   135    1
    27   135   136    1
    28   136   137    1
    29    33    32    1
    30     6     5    1
    31    24    23    2
    32    31    32    1
    33    31    30    1
    34    30    29    1
    35    29    26    1
    36     5     7    1
    37     5     2    1
    38    22    23    1
    39    22    21    1
    40    23    25   am
    41     1     2    1
    42     2     3    1
    43    25    26    1
    44    19    18    2
    45    21    18   am
    46    26    27    1
    47    11    10    2
    48    18    17    1
    49    27    28    2
    50    27    34   am
    51     3     4    2
    52     3     8   am
    53    34    35    1
    54    40    38    1
    55     8     9    1
    56    14    13   ar
    57    35    38    1
    58    35    36    1
    59    10     9    1
    60    10    16   am
    61    20    17    1
    62    17    16    1
    63    50    51    2
    64    50    49    1
    65    38    39    1
    66    37    36    2
    67     9    12    1
    68    52    49    1
    69    52    53    1
    70    36    41   am
    71    54    53    1
    72    13    12    1
    73    13    15   ar
    74    49    48    1
    75    53    55    1
    76    48    43   am
    77    41    42    1
    78    43    44    2
    79    43    42    1
    80    84    83    1
    81    42    45    1
    82    94    95    1
    83    94    93    1
    84    97    98    1
    85    97    95   am
    86    85    83    1
    87    98    99    1
    88    98   101    1
    89    83    80    1
    90    46    45    1
    91    95    96    2
    92   100    99    2
    93    93    88   am
    94    45    47    1
    95    89    88    2
    96    82    81    2
    97    79    80    1
    98    88    87    1
    99    80    81    1
   100    81    86   am
   101   101   102    1
   102    86    87    1
   103    86    92    1
   104    87    90    1
   105   102   104   ar
   106   102   103   ar
   107    56    57    1
   108    92    91    1
   109   104   106   ar
   110    70    68    1
   111    90    91    1
   112   103   105   ar
   113    57    58    1
   114    77    76    1
   115   106   105   ar
   116    68    65    1
   117    68    69    1
   118    71    69    1
   119    65    64    1
   120    65    66    1
   121    58    59    2
   122    72    66   am
   123    72    73    1
   124    63    62    2
   125    75    74    2
   126    78    76    1
   127    76    73    1
   128    64    62   am
   129    62    61    1
   130    66    67    2
   131    73    74    1
   132    61    60    1
