@<TRIPOS>MOLECULE
tmp/3j5vA00.pdb
 146 134 0 0 0
SMALL
GASTEIGER

@<TRIPOS>ATOM
      1  N        -31.5550   -3.3970  -42.3480 N.3    10  GLY10      -0.1210
      2  CA       -30.8400   -3.1830  -41.1080 C.3    10  GLY10       0.1956
      3  C        -31.0010   -1.7440  -40.6470 C.2    10  GLY10       0.2612
      4  O        -31.6060   -0.9240  -41.3430 O.2    10  GLY10      -0.2717
      5  N        -30.4510   -1.4260  -39.4800 N.am   11  GLY11      -0.1942
      6  CA       -30.5200   -0.0690  -38.9560 C.3    11  GLY11       0.2014
      7  C        -29.9930    1.0150  -39.8800 C.2    11  GLY11       0.2639
      8  O        -30.6490    2.0440  -40.0830 O.2    11  GLY11      -0.2714
      9  N        -28.8130    0.7910  -40.4510 N.am   12  THR12      -0.1950
     10  CA       -28.1950    1.7910  -41.3060 C.3    12  THR12       0.1897
     11  C        -29.0710    2.0560  -42.5230 C.2    12  THR12       0.2313
     12  O        -29.2780    3.2110  -42.9030 O.2    12  THR12      -0.2863
     13  CB       -26.7930    1.3750  -41.7430 C.3    12  THR12       0.1794
     14  OG1      -25.9270    1.3650  -40.6060 O.3    12  THR12      -0.2208
     15  CG2      -26.2520    2.3480  -42.7590 C.3    12  THR12       0.0378
     16  N        -32.0010    4.0890  -41.5120 N.3    15  ASN15      -0.1240
     17  CA       -31.5980    5.4630  -41.2840 C.3    15  ASN15       0.1653
     18  C        -31.4330    6.2130  -42.6120 C.2    15  ASN15       0.2266
     19  O        -31.8740    7.3480  -42.7430 O.2    15  ASN15      -0.2867
     20  CB       -30.3150    5.5370  -40.4490 C.3    15  ASN15       0.1155
     21  CG       -30.4920    5.0140  -39.0230 C.2    15  ASN15       0.2627
     22  OD1      -31.6130    4.7930  -38.5440 O.2    15  ASN15      -0.2716
     23  ND2      -29.3730    4.8410  -38.3300 N.am   15  ASN15      -0.0877
     24  N        -36.0030   -5.1150  -41.6810 N.3    31  ASP31      -0.1239
     25  CA       -35.1890   -5.2430  -40.4810 C.3    31  ASP31       0.1674
     26  C        -35.7230   -6.3890  -39.6380 C.2    31  ASP31       0.2266
     27  O        -36.7600   -6.9820  -39.9540 O.2    31  ASP31      -0.2867
     28  CB       -35.1910   -3.9390  -39.6660 C.3    31  ASP31       0.1410
     29  CG       -33.8810   -3.7080  -38.9110 C.2    31  ASP31       0.3668
     30  OD1      -33.0630   -4.6490  -38.7840 O.co2  31  ASP31      -0.2456
     31  OD2      -33.6570   -2.5690  -38.4470 O.co2  31  ASP31      -0.2456
     32  N        -35.1100    0.9940  -35.2660 N.3    36  ASN36      -0.1240
     33  CA       -34.8030    2.1050  -36.1610 C.3    36  ASN36       0.1653
     34  C        -35.9950    2.6650  -36.9110 C.2    36  ASN36       0.2266
     35  O        -35.8410    3.5570  -37.7390 O.2    36  ASN36      -0.2867
     36  CB       -33.7280    1.6840  -37.1650 C.3    36  ASN36       0.1155
     37  CG       -32.3740    1.5410  -36.5280 C.2    36  ASN36       0.2627
     38  OD1      -32.1180    0.5780  -35.8060 O.2    36  ASN36      -0.2716
     39  ND2      -31.4810    2.4910  -36.8040 N.am   36  ASN36      -0.0877
     40  N        -26.6110   -8.2290  -34.0230 N.3    54  GLY54      -0.1225
     41  CA       -25.2060   -7.9730  -34.2860 C.3    54  GLY54       0.1811
     42  C        -24.4130   -9.2000  -34.6990 C.2    54  GLY54       0.2280
     43  O        -23.3150   -9.0850  -35.2570 O.2    54  GLY54      -0.2866
     44  N        -25.5820   -1.6410  -44.0300 N.3    85  SER85      -0.1217
     45  CA       -24.2520   -1.6970  -43.4440 C.3    85  SER85       0.1889
     46  C        -23.6360   -3.0930  -43.5640 C.2    85  SER85       0.2288
     47  O        -24.3130   -4.0970  -43.3430 O.2    85  SER85      -0.2866
     48  CB       -24.2920   -1.2800  -41.9660 C.3    85  SER85       0.2089
     49  OG       -22.9800   -1.2600  -41.4030 O.3    85  SER85      -0.2183
     50  N        -23.0430   -4.7370  -39.3020 N.3    88  GLY88      -0.1210
     51  CA       -23.9880   -5.1740  -38.2790 C.3    88  GLY88       0.1956
     52  C        -24.3920   -6.6260  -38.5050 C.2    88  GLY88       0.2612
     53  O        -23.7100   -7.3580  -39.2260 O.2    88  GLY88      -0.2717
     54  N        -25.5050   -7.0270  -37.9040 N.am   89  GLY89      -0.1942
     55  CA       -25.9460   -8.4080  -37.9410 C.3    89  GLY89       0.2014
     56  C        -27.1390   -8.6390  -38.8470 C.2    89  GLY89       0.2640
     57  O        -27.2920   -9.7300  -39.3960 O.2    89  GLY89      -0.2714
     58  N        -27.9740   -7.6150  -39.0190 N.am   90  SER90      -0.1935
     59  CA       -29.2440   -7.7620  -39.7350 C.3    90  SER90       0.2055
     60  C        -29.1900   -7.2910  -41.1870 C.2    90  SER90       0.2644
     61  O        -29.5630   -8.0390  -42.1040 O.2    90  SER90      -0.2714
     62  CB       -30.3760   -7.0430  -38.9940 C.3    90  SER90       0.2130
     63  OG       -30.6040   -7.6390  -37.7310 O.3    90  SER90      -0.2179
     64  N        -28.7430   -6.0500  -41.3920 N.am   91  GLY91      -0.1939
     65  CA       -28.5780   -5.5220  -42.7350 C.3    91  GLY91       0.2014
     66  C        -27.6210   -6.3720  -43.5450 C.2    91  GLY91       0.2639
     67  O        -27.8710   -6.6450  -44.7200 O.2    91  GLY91      -0.2714
     68  N        -26.5340   -6.8080  -42.9140 N.am   92  SER92      -0.1949
     69  CA       -25.4870   -7.5250  -43.6320 C.3    92  SER92       0.1924
     70  C        -25.8690   -8.9800  -43.9210 C.2    92  SER92       0.2314
     71  O        -25.0740   -9.7180  -44.5000 O.2    92  SER92      -0.2863
     72  CB       -24.1870   -7.4880  -42.8410 C.3    92  SER92       0.2116
     73  OG       -24.3300   -8.2700  -41.6540 O.3    92  SER92      -0.2180
     74  N        -22.0080    0.2000  -46.3090 N.3   114  VAL114     -0.1245
     75  CA       -21.1990    0.9970  -45.3920 C.3   114  VAL114      0.1561
     76  C        -20.1540    0.1220  -44.6990 C.2   114  VAL114      0.2260
     77  O        -20.4740   -0.9460  -44.1640 O.2   114  VAL114     -0.2867
     78  CB       -22.0890    1.6810  -44.3320 C.3   114  VAL114      0.0252
     79  CG1      -21.2520    2.2760  -43.2040 C.3   114  VAL114      0.0019
     80  CG2      -22.9400    2.7570  -44.9680 C.3   114  VAL114      0.0019
     81  N        -18.3350   -0.3650  -41.6000 N.3   116  ALA116     -0.1231
     82  CA       -18.4360    0.0460  -40.1990 C.3   116  ALA116      0.1694
     83  C        -17.1110   -0.2030  -39.4970 C.2   116  ALA116      0.2592
     84  O        -16.4580   -1.2210  -39.7310 O.2   116  ALA116     -0.2718
     85  CB       -19.5520   -0.7290  -39.5010 C.3   116  ALA116      0.0304
     86  N        -16.7150    0.7040  -38.6070 N.am  117  MET117     -0.1965
     87  CA       -15.3340    0.6980  -38.1430 C.3   117  MET117      0.1736
     88  C        -15.1780    0.7510  -36.6250 C.2   117  MET117      0.2616
     89  O        -14.0590    0.8730  -36.1360 O.2   117  MET117     -0.2715
     90  CB       -14.5620    1.8740  -38.7620 C.3   117  MET117      0.0427
     91  CG       -14.6070    1.9600  -40.2790 C.3   117  MET117      0.0599
     92  SD       -13.7520    0.5920  -41.0610 S.3   117  MET117     -0.1393
     93  CE       -13.9360    1.0250  -42.7910 C.3   117  MET117      0.0692
     94  N        -16.2800    0.6550  -35.8870 N.am  118  GLU118     -0.1977
     95  CA       -16.2440    0.8580  -34.4340 C.3   118  GLU118      0.1602
     96  C        -15.3950   -0.1560  -33.6620 C.2   118  GLU118      0.2287
     97  O        -14.7030    0.1980  -32.7010 O.2   118  GLU118     -0.2864
     98  CB       -17.6620    0.8270  -33.8500 C.3   118  GLU118      0.0415
     99  CG       -18.5920    1.9380  -34.2940 C.3   118  GLU118      0.1163
    100  CD       -19.9310    1.8720  -33.5710 C.2   118  GLU118      0.3649
    101  OE1      -20.1260    0.9260  -32.7730 O.co2 118  GLU118     -0.2457
    102  OE2      -20.7890    2.7560  -33.7920 O.co2 118  GLU118     -0.2457
    103  N        -17.5110   -5.2110  -35.8360 N.3   122  ASN122     -0.1240
    104  CA       -17.8510   -4.5050  -37.0700 C.3   122  ASN122      0.1653
    105  C        -16.9010   -4.9280  -38.1930 C.2   122  ASN122      0.2266
    106  O        -17.3220   -5.2240  -39.3100 O.2   122  ASN122     -0.2867
    107  CB       -17.6870   -2.9920  -36.8900 C.3   122  ASN122      0.1155
    108  CG       -18.9200   -2.3060  -36.2910 C.2   122  ASN122      0.2627
    109  OD1      -18.8810   -1.1080  -36.0120 O.2   122  ASN122     -0.2716
    110  ND2      -19.9970   -3.0490  -36.0980 N.am  122  ASN122     -0.0877
    111  N        -17.0390    4.3140  -42.8510 N.3   151  ASN151     -0.1240
    112  CA       -17.2460    5.2500  -41.7600 C.3   151  ASN151      0.1653
    113  C        -15.8960    5.7480  -41.2590 C.2   151  ASN151      0.2266
    114  O        -15.3210    5.1930  -40.3210 O.2   151  ASN151     -0.2867
    115  CB       -18.0140    4.5950  -40.6110 C.3   151  ASN151      0.1155
    116  CG       -19.4780    4.3700  -40.9270 C.2   151  ASN151      0.2627
    117  OD1      -20.0240    4.9570  -41.8510 O.2   151  ASN151     -0.2716
    118  ND2      -20.1330    3.5200  -40.1320 N.am  151  ASN151     -0.0877
    119  N        -22.3680    9.8280  -38.5150 N.3   157  TYR157     -0.1241
    120  CA       -23.1730    8.9200  -39.3210 C.3   157  TYR157      0.1605
    121  C        -24.1940    9.7320  -40.1170 C.2   157  TYR157      0.2264
    122  O        -24.5920    9.3560  -41.2190 O.2   157  TYR157     -0.2867
    123  CB       -23.8660    7.8810  -38.4360 C.3   157  TYR157      0.0534
    124  CG       -22.9130    6.9000  -37.7860 C.ar  157  TYR157     -0.0201
    125  CD1      -21.5830    6.8180  -38.1850 C.ar  157  TYR157     -0.0009
    126  CD2      -23.3450    6.0460  -36.7760 C.ar  157  TYR157     -0.0009
    127  CE1      -20.7050    5.9170  -37.5920 C.ar  157  TYR157      0.0417
    128  CE2      -22.4730    5.1410  -36.1760 C.ar  157  TYR157      0.0417
    129  CZ       -21.1560    5.0830  -36.5870 C.ar  157  TYR157      0.1957
    130  OH       -20.2900    4.1850  -35.9890 O.3   157  TYR157     -0.2866
    131  N        -22.4120   10.8730  -43.2640 N.3   160  ILE160     -0.1231
    132  CA       -22.2280    9.7630  -44.1790 C.3   160  ILE160      0.1692
    133  C        -23.5590    9.3850  -44.8250 C.2   160  ILE160      0.2592
    134  O        -23.6260    9.1420  -46.0370 O.2   160  ILE160     -0.2718
    135  CB       -21.5770    8.5560  -43.4590 C.3   160  ILE160      0.0266
    136  CG1      -20.1360    8.9040  -43.0920 C.3   160  ILE160      0.0019
    137  CG2      -21.6160    7.3050  -44.3350 C.3   160  ILE160      0.0020
    138  CD1      -19.6860    8.3440  -41.7680 C.3   160  ILE160      0.0001
    139  N        -24.6210    9.3530  -44.0230 N.am  161  ASN161     -0.1974
    140  CA       -25.9420    8.9830  -44.5320 C.3   161  ASN161      0.1688
    141  C        -26.4200    9.9900  -45.5800 C.2   161  ASN161      0.2292
    142  O        -27.0140    9.6140  -46.5900 O.2   161  ASN161     -0.2864
    143  CB       -26.9640    8.8910  -43.4000 C.3   161  ASN161      0.1181
    144  CG       -26.7630    7.6680  -42.5240 C.2   161  ASN161      0.2629
    145  OD1      -25.8890    6.8380  -42.7780 O.2   161  ASN161     -0.2716
    146  ND2      -27.5800    7.5510  -41.4770 N.am  161  ASN161     -0.0877
@<TRIPOS>BOND
     1   142   141    2
     2    74    75    1
     3   134   133    2
     4   141   140    1
     5    75    76    1
     6    75    78    1
     7    80    78    1
     8   133   132    1
     9   133   139   am
    10    67    66    2
    11    76    77    2
    12   140   139    1
    13   140   143    1
    14    71    70    2
    15   137   135    1
    16    78    79    1
    17   132   135    1
    18   132   131    1
    19    44    45    1
    20    70    69    1
    21    69    68    1
    22    69    72    1
    23    46    45    1
    24    46    47    2
    25    66    68   am
    26    66    65    1
    27   135   136    1
    28    45    48    1
    29   143   144    1
    30   136   138    1
    31    12    11    2
    32   111   112    1
    33    72    73    1
    34    93    92    1
    35   145   144    2
    36    15    13    1
    37    19    18    2
    38    65    64    1
    39    18    17    1
    40   144   146   am
    41    11    10    1
    42     1     2    1
    43    61    60    2
    44    48    49    1
    45   117   116    2
    46   112   113    1
    47   112   115    1
    48    13    10    1
    49    13    14    1
    50    24    25    1
    51    81    82    1
    52    16    17    1
    53    64    60   am
    54     4     3    2
    55    10     9    1
    56    17    20    1
    57   113   114    2
    58   122   121    2
    59    60    59    1
    60     2     3    1
    61    92    91    1
    62   116   115    1
    63   116   118   am
    64     3     5   am
    65    25    28    1
    66    25    26    1
    67     9     7   am
    68    20    21    1
    69    91    90    1
    70    82    85    1
    71    82    83    1
    72   121   120    1
    73     8     7    2
    74    27    26    2
    75     7     6    1
    76    59    58    1
    77    59    62    1
    78    84    83    2
    79    28    29    1
    80    83    86   am
    81     5     6    1
    82    57    56    2
    83   120   119    1
    84   120   123    1
    85   106   105    2
    86    50    51    1
    87    53    52    2
    88    21    22    2
    89    21    23   am
    90    58    56   am
    91    62    63    1
    92    29    30   ar
    93    29    31   ar
    94    56    55    1
    95    90    87    1
    96    86    87    1
    97    52    51    1
    98    52    54   am
    99   123   124    1
   100   105   104    1
   101   125   124   ar
   102   125   127   ar
   103    87    88    1
   104    55    54    1
   105   124   126   ar
   106    35    34    2
   107   127   129   ar
   108    36    37    1
   109    36    33    1
   110   104   107    1
   111   104   103    1
   112    34    33    1
   113   107   108    1
   114    39    37   am
   115   126   128   ar
   116    88    89    2
   117    88    94   am
   118   129   128   ar
   119   129   130    1
   120    37    38    2
   121   108   110   am
   122   108   109    2
   123    33    32    1
   124    94    95    1
   125    43    42    2
   126    42    41    1
   127    95    98    1
   128    95    96    1
   129    99    98    1
   130    99   100    1
   131    41    40    1
   132   102   100   ar
   133    96    97    2
   134   100   101   ar
