@<TRIPOS>MOLECULE
tmp/3j7bD01.pdb
 211 206 0 0 0
SMALL
GASTEIGER

@<TRIPOS>ATOM
      1  N         52.8230  -13.1690   54.9600 N.3   148  PRO148     -0.2116
      2  CA        53.0860  -14.1320   53.8820 C.3   148  PRO148      0.1372
      3  C         51.8610  -14.9390   53.4660 C.2   148  PRO148      0.2244
      4  O         51.9020  -15.6290   52.4500 O.2   148  PRO148     -0.2868
      5  CB        54.1520  -15.0480   54.4870 C.3   148  PRO148      0.0268
      6  CG        53.9270  -14.9640   55.9510 C.3   148  PRO148      0.0207
      7  CD        53.5100  -13.5450   56.2080 C.3   148  PRO148      0.0892
      8  N         45.2830  -19.6920   60.2280 N.3   191  HIS191     -0.1241
      9  CA        46.6830  -19.3300   60.0450 C.3   191  HIS191      0.1621
     10  C         46.9120  -17.8260   60.1190 C.2   191  HIS191      0.2264
     11  O         47.6920  -17.3540   60.9450 O.2   191  HIS191     -0.2867
     12  CB        47.2100  -19.8470   58.7070 C.3   191  HIS191      0.0745
     13  CG        48.6940  -20.0370   58.6830 C.ar  191  HIS191      0.0817
     14  ND1       49.3600  -20.5640   57.5980 N.ar  191  HIS191     -0.2268
     15  CD2       49.6410  -19.7710   59.6140 C.ar  191  HIS191      0.1154
     16  CE1       50.6550  -20.6070   57.8580 C.ar  191  HIS191      0.1986
     17  NE2       50.8520  -20.1330   59.0750 N.ar  191  HIS191     -0.2212
     18  N         48.4170  -14.7720   62.9790 N.3   195  PHE195     -0.1241
     19  CA        49.3830  -13.7130   62.7040 C.3   195  PHE195      0.1605
     20  C         48.8590  -12.3720   63.1840 C.2   195  PHE195      0.2264
     21  O         49.5490  -11.6240   63.8800 O.2   195  PHE195     -0.2867
     22  CB        49.6780  -13.6010   61.2080 C.3   195  PHE195      0.0534
     23  CG        50.6620  -14.6010   60.6990 C.ar  195  PHE195     -0.0203
     24  CD1       51.0950  -15.6480   61.4940 C.ar  195  PHE195     -0.0042
     25  CD2       51.1890  -14.4710   59.4250 C.ar  195  PHE195     -0.0042
     26  CE1       52.0160  -16.5670   61.0120 C.ar  195  PHE195     -0.0003
     27  CE2       52.1140  -15.3790   58.9420 C.ar  195  PHE195     -0.0003
     28  CZ        52.5260  -16.4290   59.7340 C.ar  195  PHE195     -0.0000
     29  N         48.5680  -11.3630   67.3030 N.3   198  SER198     -0.1202
     30  CA        49.7200  -11.1510   68.1630 C.3   198  SER198      0.2020
     31  C         50.5000  -10.0140   67.5040 C.2   198  SER198      0.2619
     32  O         50.0630   -9.4560   66.4900 O.2   198  SER198     -0.2717
     33  CB        50.5690  -12.4180   68.3620 C.3   198  SER198      0.2103
     34  OG        51.7230  -12.1260   69.1550 O.3   198  SER198     -0.2182
     35  N         51.7010   -9.7540   68.0020 N.am  199  ASP199     -0.1959
     36  CA        52.2640   -8.4070   68.0590 C.3   199  ASP199      0.1840
     37  C         52.2510   -7.6650   66.7250 C.2   199  ASP199      0.2621
     38  O         51.9790   -6.4620   66.6830 O.2   199  ASP199     -0.2715
     39  CB        53.7010   -8.4960   68.5950 C.3   199  ASP199      0.1450
     40  CG        53.7540   -9.0040   70.0250 C.2   199  ASP199      0.3671
     41  OD1       52.6840   -9.0380   70.6690 O.co2 199  ASP199     -0.2456
     42  OD2       54.8500   -9.3800   70.4970 O.co2 199  ASP199     -0.2456
     43  N         52.4980   -8.3900   65.6390 N.am  200  ARG200     -0.1977
     44  CA        52.6510   -7.7690   64.3290 C.3   200  ARG200      0.1597
     45  C         51.3460   -7.3350   63.6570 C.2   200  ARG200      0.2287
     46  O         51.3550   -6.8440   62.5260 O.2   200  ARG200     -0.2864
     47  CB        53.4100   -8.7170   63.4100 C.3   200  ARG200      0.0334
     48  CG        54.7730   -9.0490   63.9410 C.3   200  ARG200      0.0492
     49  CD        55.6670   -9.5640   62.8580 C.3   200  ARG200      0.2205
     50  NE        56.9800   -9.9060   63.3830 N.pl3 200  ARG200     -0.0865
     51  CZ        57.9800  -10.3540   62.6360 C.cat 200  ARG200      0.5346
     52  NH1       57.8170  -10.4980   61.3270 N.pl3 200  ARG200      0.1354
     53  NH2       59.1470  -10.6410   63.1930 N.pl3 200  ARG200      0.1354
     54  N         57.6530   -6.0230   57.4820 N.3   210  ASN210     -0.1240
     55  CA        58.1350   -6.7090   56.2950 C.3   210  ASN210      0.1653
     56  C         57.0180   -6.7280   55.2790 C.2   210  ASN210      0.2266
     57  O         55.8600   -6.5040   55.6200 O.2   210  ASN210     -0.2867
     58  CB        58.5900   -8.1410   56.6070 C.3   210  ASN210      0.1155
     59  CG        59.5870   -8.2100   57.7490 C.2   210  ASN210      0.2627
     60  OD1       60.7420   -7.7650   57.5670 O.2   210  ASN210     -0.2716
     61  ND2       59.2240   -8.7370   58.8220 N.am  210  ASN210     -0.0877
     62  N         55.4430   -9.1200   51.8990 N.3   212  TYR212     -0.1241
     63  CA        55.4920  -10.4220   51.2560 C.3   212  TYR212      0.1605
     64  C         54.6620  -10.4440   49.9930 C.2   212  TYR212      0.2264
     65  O         53.6250   -9.8040   49.9240 O.2   212  TYR212     -0.2867
     66  CB        54.9670  -11.4980   52.1950 C.3   212  TYR212      0.0534
     67  CG        55.6310  -11.5460   53.5420 C.ar  212  TYR212     -0.0201
     68  CD1       56.7120  -12.3820   53.7740 C.ar  212  TYR212     -0.0009
     69  CD2       55.1660  -10.7650   54.5910 C.ar  212  TYR212     -0.0009
     70  CE1       57.3140  -12.4400   55.0130 C.ar  212  TYR212      0.0417
     71  CE2       55.7590  -10.8130   55.8320 C.ar  212  TYR212      0.0417
     72  CZ        56.8350  -11.6530   56.0400 C.ar  212  TYR212      0.1957
     73  OH        57.4400  -11.7080   57.2790 O.3   212  TYR212     -0.2866
     74  N         59.9260  -12.0430   49.4420 N.3   232  HIS232     -0.1241
     75  CA        60.0010  -11.4220   50.7590 C.3   232  HIS232      0.1621
     76  C         60.8500  -10.1480   50.7150 C.2   232  HIS232      0.2264
     77  O         62.0520  -10.2130   50.4620 O.2   232  HIS232     -0.2867
     78  CB        60.5810  -12.3890   51.7980 C.3   232  HIS232      0.0745
     79  CG        59.8310  -13.6780   51.9220 C.ar  232  HIS232      0.0817
     80  ND1       59.3730  -14.1520   53.1320 N.ar  232  HIS232     -0.2268
     81  CD2       59.4890  -14.6100   51.0010 C.ar  232  HIS232      0.1154
     82  CE1       58.7590  -15.3070   52.9480 C.ar  232  HIS232      0.1986
     83  NE2       58.8180  -15.6100   51.6640 N.ar  232  HIS232     -0.2212
     84  N         61.9950   -7.6370   53.2660 N.3   234  LYS234     -0.1245
     85  CA        62.0750   -7.4380   54.7040 C.3   234  LYS234      0.1561
     86  C         62.6730   -6.0870   55.0720 C.2   234  LYS234      0.2260
     87  O         63.5900   -5.5890   54.4130 O.2   234  LYS234     -0.2867
     88  CB        62.8870   -8.5750   55.3330 C.3   234  LYS234      0.0271
     89  CG        62.2380   -9.9370   55.1110 C.3   234  LYS234      0.0035
     90  CD        62.5200  -10.9040   56.2390 C.3   234  LYS234      0.0206
     91  CE        61.8690  -12.2430   55.9500 C.3   234  LYS234      0.1093
     92  NZ        61.6830  -13.0410   57.1830 N.3   234  LYS234     -0.1314
     93  N         61.6610   -4.9730   62.5420 N.3   239  ILE239     -0.1245
     94  CA        60.2980   -5.1020   63.0480 C.3   239  ILE239      0.1561
     95  C         60.1180   -4.4090   64.4020 C.2   239  ILE239      0.2260
     96  O         60.8490   -4.6870   65.3540 O.2   239  ILE239     -0.2867
     97  CB        59.9010   -6.5900   63.1820 C.3   239  ILE239      0.0252
     98  CG1       59.7120   -7.2230   61.8030 C.3   239  ILE239      0.0019
     99  CG2       58.6330   -6.7430   64.0000 C.3   239  ILE239      0.0019
    100  CD1       58.6280   -6.5810   60.9950 C.3   239  ILE239      0.0001
    101  N         62.2620  -16.9870   47.4480 N.3   279  GLN279     -0.1245
    102  CA        62.4640  -18.4070   47.7000 C.3   279  GLN279      0.1566
    103  C         62.2300  -19.1310   46.3940 C.2   279  GLN279      0.2260
    104  O         61.4150  -18.6950   45.5960 O.2   279  GLN279     -0.2867
    105  CB        61.5230  -18.9090   48.7880 C.3   279  GLN279      0.0367
    106  CG        61.7930  -18.2950   50.1520 C.3   279  GLN279      0.0905
    107  CD        60.7520  -18.6760   51.1910 C.2   279  GLN279      0.2608
    108  OE1       59.5950  -18.2580   51.1120 O.2   279  GLN279     -0.2717
    109  NE2       61.1580  -19.4770   52.1690 N.am  279  GLN279     -0.0878
    110  N         52.9290  -21.2730   54.0940 N.3   299  VAL299     -0.1231
    111  CA        54.2500  -20.7180   53.8360 C.3   299  VAL299      0.1692
    112  C         55.1980  -21.8220   53.3900 C.2   299  VAL299      0.2592
    113  O         54.9100  -23.0040   53.5700 O.2   299  VAL299     -0.2718
    114  CB        54.8380  -20.0280   55.0790 C.3   299  VAL299      0.0266
    115  CG1       53.9700  -18.8590   55.4970 C.3   299  VAL299      0.0020
    116  CG2       54.9810  -21.0230   56.2190 C.3   299  VAL299      0.0020
    117  N         56.3250  -21.4370   52.8040 N.am  300  TRP300     -0.1963
    118  CA        57.4140  -22.3820   52.5940 C.3   300  TRP300      0.1756
    119  C         58.4000  -22.2220   53.7430 C.2   300  TRP300      0.2461
    120  O         58.9890  -21.1520   53.8990 O.2   300  TRP300     -0.2730
    121  CB        58.1240  -22.1450   51.2600 C.3   300  TRP300      0.0590
    122  CG        57.2610  -22.2760   50.0500 C.ar  300  TRP300      0.0006
    123  CD1       55.9770  -22.7360   49.9990 C.ar  300  TRP300      0.0946
    124  CD2       57.6300  -21.9610   48.7020 C.ar  300  TRP300      0.0152
    125  NE1       55.5190  -22.7150   48.7010 N.ar  300  TRP300     -0.2442
    126  CE2       56.5160  -22.2430   47.8870 C.ar  300  TRP300      0.0810
    127  CE3       58.7930  -21.4630   48.1050 C.ar  300  TRP300      0.0012
    128  CZ2       56.5320  -22.0430   46.5040 C.ar  300  TRP300      0.0191
    129  CZ3       58.8060  -21.2670   46.7330 C.ar  300  TRP300      0.0001
    130  CH2       57.6840  -21.5560   45.9490 C.ar  300  TRP300      0.0015
    131  N         58.5800  -23.2740   54.5540 N.am  301  PRO301     -0.2716
    132  CA        59.4450  -23.1560   55.7310 C.3   301  PRO301      0.1536
    133  C         60.8740  -22.8190   55.3360 C.2   301  PRO301      0.2599
    134  O         61.3760  -23.3230   54.3310 O.2   301  PRO301     -0.2715
    135  CB        59.3570  -24.5380   56.3790 C.3   301  PRO301      0.0310
    136  CG        58.0890  -25.1160   55.8690 C.3   301  PRO301      0.0237
    137  CD        57.9300  -24.5890   54.4780 C.3   301  PRO301      0.0939
    138  N         61.5120  -21.9640   56.1270 N.am  302  HIS302     -0.1960
    139  CA        62.8270  -21.4410   55.7920 C.3   302  HIS302      0.1787
    140  C         63.8590  -22.5600   55.7820 C.2   302  HIS302      0.2620
    141  O         64.8300  -22.5160   55.0290 O.2   302  HIS302     -0.2715
    142  CB        63.2150  -20.3320   56.7730 C.3   302  HIS302      0.0785
    143  CG        62.4000  -19.0820   56.6230 C.ar  302  HIS302      0.0821
    144  ND1       61.9010  -18.3830   57.7010 N.ar  302  HIS302     -0.2267
    145  CD2       61.9980  -18.4060   55.5190 C.ar  302  HIS302      0.1154
    146  CE1       61.2280  -17.3310   57.2700 C.ar  302  HIS302      0.1986
    147  NE2       61.2720  -17.3220   55.9500 N.ar  302  HIS302     -0.2212
    148  N         63.6420  -23.5550   56.6330 N.am  303  GLY303     -0.1954
    149  CA        64.4880  -24.7330   56.6710 C.3   303  GLY303      0.1869
    150  C         64.5370  -25.4460   55.3260 C.2   303  GLY303      0.2309
    151  O         65.6080  -25.8150   54.8440 O.2   303  GLY303     -0.2863
    152  N         50.8000  -25.8650   60.0500 N.3   439  GLN439     -0.1245
    153  CA        51.7180  -24.7460   60.0060 C.3   439  GLN439      0.1566
    154  C         51.3590  -23.7530   61.1020 C.2   439  GLN439      0.2260
    155  O         52.2150  -23.0300   61.6050 O.2   439  GLN439     -0.2867
    156  CB        51.6800  -24.0990   58.6300 C.3   439  GLN439      0.0367
    157  CG        52.2360  -25.0160   57.5610 C.3   439  GLN439      0.0905
    158  CD        52.6680  -24.2820   56.3220 C.2   439  GLN439      0.2608
    159  OE1       52.1840  -23.1870   56.0340 O.2   439  GLN439     -0.2717
    160  NE2       53.5850  -24.8840   55.5690 N.am  439  GLN439     -0.0878
    161  N         52.7370  -25.0940   64.2860 N.3   442  THR442     -0.1203
    162  CA        54.1590  -24.7550   64.2660 C.3   442  THR442      0.1994
    163  C         54.4100  -23.3110   64.7030 C.2   442  THR442      0.2617
    164  O         55.2780  -23.0520   65.5370 O.2   442  THR442     -0.2717
    165  CB        54.7690  -24.9710   62.8660 C.3   442  THR442      0.1784
    166  OG1       54.6780  -26.3560   62.5110 O.3   442  THR442     -0.2211
    167  CG2       56.2300  -24.5550   62.8450 C.3   442  THR442      0.0376
    168  N         53.6470  -22.3790   64.1360 N.am  443  PHE443     -0.1975
    169  CA        53.7290  -20.9660   64.5010 C.3   443  PHE443      0.1639
    170  C         53.5130  -20.7600   65.9990 C.2   443  PHE443      0.2290
    171  O         54.2690  -20.0450   66.6530 O.2   443  PHE443     -0.2864
    172  CB        52.7010  -20.1490   63.7170 C.3   443  PHE443      0.0560
    173  CG        52.6730  -18.6880   64.0830 C.ar  443  PHE443     -0.0200
    174  CD1       53.7190  -17.8470   63.7250 C.ar  443  PHE443     -0.0042
    175  CD2       51.6080  -18.1580   64.8030 C.ar  443  PHE443     -0.0042
    176  CE1       53.6970  -16.5030   64.0630 C.ar  443  PHE443     -0.0003
    177  CE2       51.5840  -16.8140   65.1470 C.ar  443  PHE443     -0.0003
    178  CZ        52.6290  -15.9880   64.7760 C.ar  443  PHE443     -0.0000
    179  N         56.4550  -23.1120   68.2360 N.3   446  LYS446     -0.1231
    180  CA        57.8850  -22.9380   67.9510 C.3   446  LYS446      0.1693
    181  C         58.3110  -21.4820   67.8270 C.2   446  LYS446      0.2592
    182  O         59.4140  -21.1200   68.2400 O.2   446  LYS446     -0.2718
    183  CB        58.2880  -23.6700   66.6640 C.3   446  LYS446      0.0285
    184  CG        58.1810  -25.1910   66.6950 C.3   446  LYS446      0.0035
    185  CD        58.5700  -25.8330   65.3470 C.3   446  LYS446      0.0206
    186  CE        59.4820  -24.9680   64.4460 C.3   446  LYS446      0.1093
    187  NZ        60.7520  -24.4360   65.0390 N.3   446  LYS446     -0.1314
    188  N         57.4380  -20.6410   67.2890 N.am  447  VAL447     -0.1966
    189  CA        57.8440  -19.2860   66.9630 C.3   447  VAL447      0.1727
    190  C         57.5400  -18.2940   68.0760 C.2   447  VAL447      0.2616
    191  O         58.3660  -17.4340   68.3850 O.2   447  VAL447     -0.2715
    192  CB        57.1680  -18.8140   65.6710 C.3   447  VAL447      0.0290
    193  CG1       57.6630  -17.4320   65.2900 C.3   447  VAL447      0.0023
    194  CG2       57.4490  -19.7920   64.5530 C.3   447  VAL447      0.0023
    195  N         56.3690  -18.4160   68.6900 N.am  448  LEU448     -0.1977
    196  CA        55.9910  -17.5310   69.7910 C.3   448  LEU448      0.1596
    197  C         56.5570  -18.0470   71.1200 C.2   448  LEU448      0.2287
    198  O         56.6590  -19.2550   71.3210 O.2   448  LEU448     -0.2864
    199  CB        54.4680  -17.3980   69.8740 C.3   448  LEU448      0.0297
    200  CG        53.7630  -16.7790   68.6650 C.3   448  LEU448      0.0022
    201  CD1       52.2890  -16.5350   68.9580 C.3   448  LEU448      0.0001
    202  CD2       54.4500  -15.4910   68.2520 C.3   448  LEU448      0.0001
    203  N         54.1110  -14.1750   74.4780 N.3   452  GLN452     -0.1245
    204  CA        53.5020  -13.7750   73.2140 C.3   452  GLN452      0.1566
    205  C         52.2740  -14.6290   72.9410 C.2   452  GLN452      0.2260
    206  O         51.2900  -14.1300   72.4000 O.2   452  GLN452     -0.2867
    207  CB        54.4840  -13.8660   72.0390 C.3   452  GLN452      0.0367
    208  CG        55.7400  -13.0190   72.1880 C.3   452  GLN452      0.0905
    209  CD        56.7830  -13.3210   71.1280 C.2   452  GLN452      0.2608
    210  OE1       56.6050  -14.2200   70.3030 O.2   452  GLN452     -0.2717
    211  NE2       57.8840  -12.5740   71.1480 N.am  452  GLN452     -0.0878
@<TRIPOS>BOND
     1   104   103    2
     2   130   128   ar
     3   130   129   ar
     4   103   102    1
     5   128   126   ar
     6   129   127   ar
     7   101   102    1
     8   102   105    1
     9   126   125   ar
    10   126   124   ar
    11   127   124   ar
    12   125   123   ar
    13   124   122   ar
    14   105   106    1
    15    74    75    1
    16    65    64    2
    17    64    63    1
    18   123   122   ar
    19   122   121    1
    20   106   107    1
    21    77    76    2
    22    76    75    1
    23    75    78    1
    24    81    83   ar
    25    81    79   ar
    26   108   107    2
    27   107   109   am
    28    63    62    1
    29    63    66    1
    30   121   118    1
    31    83    82   ar
    32    78    79    1
    33    79    80   ar
    34    66    67    1
    35     4     3    2
    36   118   117    1
    37   118   119    1
    38   117   112   am
    39    82    80   ar
    40    84    85    1
    41   112   113    2
    42   112   111    1
    43     3     2    1
    44    67    68   ar
    45    67    69   ar
    46   119   120    2
    47   119   131   am
    48    68    70   ar
    49   111   110    1
    50   111   114    1
    51     2     5    1
    52     2     1    1
    53   134   133    2
    54    87    86    2
    55   137   131    1
    56   137   136    1
    57     5     6    1
    58   131   132    1
    59    69    71   ar
    60    85    86    1
    61    85    88    1
    62   151   150    2
    63     1     7    1
    64    70    72   ar
    65   141   140    2
    66   114   115    1
    67   114   116    1
    68    89    88    1
    69    89    90    1
    70    56    57    2
    71    56    55    1
    72   150   149    1
    73   133   132    1
    74   133   138   am
    75   145   147   ar
    76   145   143   ar
    77   160   158   am
    78   132   135    1
    79   140   139    1
    80   140   148   am
    81   139   138    1
    82   139   142    1
    83    71    72   ar
    84   136   135    1
    85    91    90    1
    86    91    92    1
    87   147   146   ar
    88     6     7    1
    89   159   158    2
    90    72    73    1
    91    55    58    1
    92    55    54    1
    93   158   157    1
    94    58    59    1
    95   143   142    1
    96   143   144   ar
    97   148   149    1
    98   146   144   ar
    99   157   156    1
   100    60    59    2
   101    14    16   ar
   102    14    13   ar
   103    59    61   am
   104    16    17   ar
   105   156   153    1
   106    13    12    1
   107    13    15   ar
   108    12     9    1
   109    27    25   ar
   110    27    28   ar
   111    17    15   ar
   112    25    23   ar
   113    28    26   ar
   114   153   152    1
   115   153   154    1
   116     9    10    1
   117     9     8    1
   118    10    11    2
   119    23    22    1
   120    23    24   ar
   121   100    98    1
   122    26    24   ar
   123   154   155    2
   124    22    19    1
   125    52    51    1
   126    98    97    1
   127   166   165    1
   128    46    45    2
   129    93    94    1
   130    51    53    1
   131    51    50    2
   132    19    18    1
   133    19    20    1
   134   167   165    1
   135    49    50    1
   136    49    48    1
   137   165   162    1
   138    94    97    1
   139    94    95    1
   140    97    99    1
   141    20    21    2
   142    47    48    1
   143    47    44    1
   144    45    44    1
   145   172   173    1
   146   172   169    1
   147   174   176   ar
   148   174   173   ar
   149   176   178   ar
   150   173   175   ar
   151   168   169    1
   152   168   163   am
   153   162   161    1
   154   162   163    1
   155    44    43    1
   156    95    96    2
   157   186   187    1
   158   186   185    1
   159   169   170    1
   160   194   192    1
   161   163   164    2
   162   178   177   ar
   163   175   177   ar
   164   193   192    1
   165   185   184    1
   166    43    37   am
   167   192   189    1
   168   170   171    2
   169    32    31    2
   170   183   184    1
   171   183   180    1
   172    38    37    2
   173    37    36    1
   174   189   188    1
   175   189   190    1
   176   188   181   am
   177    29    30    1
   178    31    35   am
   179    31    30    1
   180   181   180    1
   181   181   182    2
   182   180   179    1
   183    35    36    1
   184    36    39    1
   185   190   191    2
   186   190   195   am
   187    30    33    1
   188   202   200    1
   189    33    34    1
   190    39    40    1
   191   200   201    1
   192   200   199    1
   193   195   196    1
   194   196   199    1
   195   196   197    1
   196    40    42   ar
   197    40    41   ar
   198   210   209    2
   199   197   198    2
   200   209   211   am
   201   209   208    1
   202   207   208    1
   203   207   204    1
   204   206   205    2
   205   205   204    1
   206   204   203    1
