@<TRIPOS>MOLECULE
tmp/3j8yA00.pdb
 158 153 0 0 0
SMALL
GASTEIGER

@<TRIPOS>ATOM
      1  N        -57.2860  149.1970  -30.4470 N.3    10  ARG10      -0.1231
      2  CA       -56.2630  150.0850  -30.9660 C.3    10  ARG10       0.1694
      3  C        -55.5310  149.4290  -32.1140 C.2    10  ARG10       0.2592
      4  O        -54.8670  148.3950  -31.9320 O.2    10  ARG10      -0.2718
      5  CB       -55.2790  150.5610  -29.9580 C.3    10  ARG10       0.0321
      6  CG       -54.2350  151.6530  -30.5770 C.3    10  ARG10       0.0489
      7  CD       -53.2580  152.1680  -29.4460 C.3    10  ARG10       0.2205
      8  NE       -52.4390  153.3130  -30.0510 N.pl3  10  ARG10      -0.0865
      9  CZ       -51.3700  153.9130  -29.5150 C.cat  10  ARG10       0.5346
     10  NH1      -50.6630  153.3400  -28.5400 N.pl3  10  ARG10       0.1354
     11  NH2      -50.8650  155.0510  -30.0190 N.pl3  10  ARG10       0.1354
     12  N        -55.6250  150.1260  -33.2930 N.am   11  PHE11      -0.1962
     13  CA       -54.7190  149.7210  -34.3860 C.3    11  PHE11       0.1771
     14  C        -53.4890  150.5620  -34.4300 C.2    11  PHE11       0.2619
     15  O        -53.5800  151.7930  -34.3890 O.2    11  PHE11      -0.2715
     16  CB       -55.3620  149.8210  -35.8080 C.3    11  PHE11       0.0574
     17  CG       -56.3550  148.6520  -35.9610 C.ar   11  PHE11      -0.0200
     18  CD1      -56.0510  147.6080  -36.8710 C.ar   11  PHE11      -0.0042
     19  CD2      -57.6010  148.7930  -35.4250 C.ar   11  PHE11      -0.0042
     20  CE1      -57.0590  146.6360  -37.1950 C.ar   11  PHE11      -0.0003
     21  CE2      -58.5220  147.7220  -35.6700 C.ar   11  PHE11      -0.0003
     22  CZ       -58.2180  146.6440  -36.5170 C.ar   11  PHE11      -0.0000
     23  N        -52.2800  150.0040  -34.5530 N.am   12  ARG12      -0.1964
     24  CA       -51.0750  150.8450  -34.8000 C.3    12  ARG12       0.1714
     25  C        -50.8760  151.1630  -36.2950 C.2    12  ARG12       0.2458
     26  O        -51.6160  150.6220  -37.0880 O.2    12  ARG12      -0.2730
     27  CB       -49.8190  150.0740  -34.2460 C.3    12  ARG12       0.0347
     28  CG       -49.6010  148.6130  -34.6820 C.3    12  ARG12       0.0492
     29  CD       -48.2070  148.1700  -34.2930 C.3    12  ARG12       0.2205
     30  NE       -48.1780  146.8030  -34.7830 N.pl3  12  ARG12      -0.0865
     31  CZ       -47.9260  146.3810  -36.0250 C.cat  12  ARG12       0.5346
     32  NH1      -47.9230  147.1950  -37.1130 N.pl3  12  ARG12       0.1354
     33  NH2      -47.5070  145.1540  -36.2220 N.pl3  12  ARG12       0.1354
     34  N        -49.8990  151.8990  -36.7730 N.am   13  PRO13      -0.2727
     35  CA       -49.4880  151.9160  -38.1510 C.3    13  PRO13       0.1402
     36  C        -48.9660  150.5930  -38.6410 C.2    13  PRO13       0.2269
     37  O        -48.7330  149.7100  -37.8740 O.2    13  PRO13      -0.2865
     38  CB       -48.3580  153.0170  -38.1870 C.3    13  PRO13       0.0296
     39  CG       -48.6440  153.9600  -37.0530 C.3    13  PRO13       0.0237
     40  CD       -49.3280  153.0270  -36.0380 C.3    13  PRO13       0.0939
     41  N        -45.6740  148.7200  -39.4050 N.3    15  ASN15      -0.1240
     42  CA       -44.2820  148.9120  -39.0030 C.3    15  ASN15       0.1653
     43  C        -43.3450  148.7730  -40.2300 C.2    15  ASN15       0.2266
     44  O        -43.7230  148.5460  -41.3550 O.2    15  ASN15      -0.2867
     45  CB       -43.9170  148.0910  -37.7960 C.3    15  ASN15       0.1155
     46  CG       -43.5850  146.6500  -37.9320 C.2    15  ASN15       0.2627
     47  OD1      -42.4730  146.3710  -38.4500 O.2    15  ASN15      -0.2716
     48  ND2      -44.3260  145.7080  -37.4680 N.am   15  ASN15      -0.0877
     49  N        -55.2960  154.6030  -36.5060 N.3    50  SER50      -0.1217
     50  CA       -53.7570  154.4270  -36.3770 C.3    50  SER50       0.1889
     51  C        -53.1420  155.6470  -35.9200 C.2    50  SER50       0.2288
     52  O        -52.2360  155.6160  -35.0930 O.2    50  SER50      -0.2866
     53  CB       -53.0340  154.0730  -37.6640 C.3    50  SER50       0.2089
     54  OG       -53.5390  152.7880  -38.1410 O.3    50  SER50      -0.2183
     55  N        -53.9080  157.9380  -33.7770 N.3    52  THR52      -0.1218
     56  CA       -54.1010  158.2030  -32.3010 C.3    52  THR52       0.1862
     57  C        -52.7990  158.2350  -31.5020 C.2    52  THR52       0.2287
     58  O        -52.0910  157.2850  -31.4350 O.2    52  THR52      -0.2866
     59  CB       -54.9160  157.1330  -31.6580 C.3    52  THR52       0.1770
     60  OG1      -56.1120  156.7620  -32.3930 O.3    52  THR52      -0.2211
     61  CG2      -55.4190  157.4380  -30.2390 C.3    52  THR52       0.0375
     62  N        -48.2320  139.2600  -30.8720 N.3    83  THR83      -0.1203
     63  CA       -46.8750  139.9560  -30.9120 C.3    83  THR83       0.1994
     64  C        -46.7070  141.1420  -31.8780 C.2    83  THR83       0.2619
     65  O        -47.1440  141.1600  -33.0300 O.2    83  THR83      -0.2717
     66  CB       -45.6850  138.9850  -30.8220 C.3    83  THR83       0.1784
     67  OG1      -44.4600  139.6850  -30.6420 O.3    83  THR83      -0.2211
     68  CG2      -45.6040  138.3920  -32.2030 C.3    83  THR83       0.0376
     69  N        -46.0610  142.2710  -31.4340 N.am   84  SER84      -0.1937
     70  CA       -45.8770  143.5650  -32.1330 C.3    84  SER84       0.2055
     71  C        -47.1020  144.3820  -32.3210 C.2    84  SER84       0.2644
     72  O        -47.1450  145.5110  -32.7790 O.2    84  SER84      -0.2714
     73  CB       -45.1010  143.5220  -33.4940 C.3    84  SER84       0.2130
     74  OG       -45.8240  142.9630  -34.6020 O.3    84  SER84      -0.2179
     75  N        -48.2640  143.9420  -31.9450 N.am   85  SER85      -0.1935
     76  CA       -49.5010  144.6660  -32.3040 C.3    85  SER85       0.2055
     77  C        -49.6600  145.9320  -31.4980 C.2    85  SER85       0.2644
     78  O        -50.6700  146.6310  -31.7470 O.2    85  SER85      -0.2714
     79  CB       -50.7880  143.8840  -32.0820 C.3    85  SER85       0.2130
     80  OG       -50.9210  143.4300  -30.7500 O.3    85  SER85      -0.2179
     81  N        -48.7710  146.3100  -30.5070 N.am   86  GLY86      -0.1939
     82  CA       -48.6960  147.6170  -29.9040 C.3    86  GLY86       0.2014
     83  C        -49.2300  147.6030  -28.5610 C.2    86  GLY86       0.2639
     84  O        -49.8570  148.5880  -28.0980 O.2    86  GLY86      -0.2714
     85  N        -48.9380  146.5550  -27.7260 N.am   87  LYS87      -0.1963
     86  CA       -49.3590  146.5490  -26.3620 C.3    87  LYS87       0.1728
     87  C        -48.3540  147.3120  -25.4640 C.2    87  LYS87       0.2617
     88  O        -48.7360  148.1720  -24.6970 O.2    87  LYS87      -0.2715
     89  CB       -49.4910  145.0220  -25.9320 C.3    87  LYS87       0.0311
     90  CG       -50.4210  144.1940  -26.9110 C.3    87  LYS87       0.0038
     91  CD       -50.5290  142.7430  -26.4860 C.3    87  LYS87       0.0206
     92  CE       -49.1200  142.0350  -26.4870 C.3    87  LYS87       0.1093
     93  NZ       -48.7010  141.9770  -27.8920 N.3    87  LYS87      -0.1314
     94  N        -47.0480  147.0300  -25.6320 N.am   88  THR88      -0.1937
     95  CA       -46.0670  147.5970  -24.7580 C.3    88  THR88       0.2028
     96  C        -45.8860  149.0520  -25.0460 C.2    88  THR88       0.2642
     97  O        -45.7790  149.8200  -24.0700 O.2    88  THR88      -0.2714
     98  CB       -44.7420  146.8550  -24.7900 C.3    88  THR88       0.1808
     99  OG1      -44.8820  145.5260  -24.3680 O.3    88  THR88      -0.2208
    100  CG2      -43.8440  147.5190  -23.7470 C.3    88  THR88       0.0379
    101  N        -45.9260  149.4530  -26.2580 N.am   89  HIS89      -0.1973
    102  CA       -46.0510  150.8340  -26.6550 C.3    89  HIS89       0.1656
    103  C        -47.2130  151.5760  -26.0000 C.2    89  HIS89       0.2291
    104  O        -47.0980  152.6540  -25.4260 O.2    89  HIS89      -0.2864
    105  CB       -46.2860  150.9510  -28.1870 C.3    89  HIS89       0.0771
    106  CG       -46.1800  152.3560  -28.6210 C.ar   89  HIS89       0.0820
    107  ND1      -47.2530  153.1010  -29.0210 N.ar   89  HIS89      -0.2267
    108  CD2      -45.0300  153.0960  -28.6650 C.ar   89  HIS89       0.1154
    109  CE1      -46.7210  154.3000  -29.3630 C.ar   89  HIS89       0.1986
    110  NE2      -45.3540  154.2980  -29.2100 N.ar   89  HIS89      -0.2212
    111  N        -42.4210  154.9800  -24.2780 N.3    94  LYS94      -0.1245
    112  CA       -41.2020  155.6440  -24.0610 C.3    94  LYS94       0.1561
    113  C        -41.3690  156.5150  -22.8440 C.2    94  LYS94       0.2260
    114  O        -41.7200  157.7020  -22.9490 O.2    94  LYS94      -0.2867
    115  CB       -40.8160  156.4680  -25.3210 C.3    94  LYS94       0.0271
    116  CG       -40.9390  155.8140  -26.7480 C.3    94  LYS94       0.0035
    117  CD       -39.7930  156.2990  -27.6260 C.3    94  LYS94       0.0206
    118  CE       -38.4160  155.6320  -27.4100 C.3    94  LYS94       0.1093
    119  NZ       -38.3750  154.3790  -28.1780 N.3    94  LYS94      -0.1314
    120  N        -40.8950  141.0900  -33.2750 N.3   194  ASN194     -0.1240
    121  CA       -40.5830  142.2730  -32.5600 C.3   194  ASN194      0.1653
    122  C        -39.1620  142.2580  -31.9330 C.2   194  ASN194      0.2266
    123  O        -38.7920  141.2710  -31.3240 O.2   194  ASN194     -0.2867
    124  CB       -41.6320  142.5030  -31.5270 C.3   194  ASN194      0.1155
    125  CG       -41.6390  143.8980  -30.8540 C.2   194  ASN194      0.2627
    126  OD1      -40.8480  144.8210  -31.2050 O.2   194  ASN194     -0.2716
    127  ND2      -42.4840  144.0030  -29.8370 N.am  194  ASN194     -0.0877
    128  N        -38.1450  144.3620  -29.5070 N.3   196  HIS196     -0.1226
    129  CA       -38.4330  144.3920  -28.0380 C.3   196  HIS196      0.1752
    130  C        -39.6130  143.5660  -27.7000 C.2   196  HIS196      0.2597
    131  O        -40.6300  144.0730  -27.2530 O.2   196  HIS196     -0.2718
    132  CB       -38.5260  145.7340  -27.4580 C.3   196  HIS196      0.0759
    133  CG       -37.3150  146.5140  -27.6690 C.ar  196  HIS196      0.0818
    134  ND1      -36.3050  146.3390  -26.7100 N.ar  196  HIS196     -0.2268
    135  CD2      -36.8730  147.2610  -28.7000 C.ar  196  HIS196      0.1154
    136  CE1      -35.2560  147.0330  -27.2420 C.ar  196  HIS196      0.1986
    137  NE2      -35.5840  147.6430  -28.4100 N.ar  196  HIS196     -0.2212
    138  N        -39.6110  142.2310  -27.9590 N.am  197  SER197     -0.1938
    139  CA       -40.8060  141.4670  -27.7640 C.3   197  SER197      0.2055
    140  C        -40.9210  141.1610  -26.3270 C.2   197  SER197      0.2643
    141  O        -39.9650  140.6920  -25.7410 O.2   197  SER197     -0.2714
    142  CB       -40.8710  140.0490  -28.5110 C.3   197  SER197      0.2130
    143  OG       -41.9800  139.2200  -28.0630 O.3   197  SER197     -0.2179
    144  N        -42.2140  141.2820  -25.7780 N.am  198  SER198     -0.1949
    145  CA       -42.5220  140.9170  -24.3920 C.3   198  SER198      0.1924
    146  C        -42.6330  139.4510  -24.3870 C.2   198  SER198      0.2314
    147  O        -43.3780  138.8250  -25.1460 O.2   198  SER198     -0.2863
    148  CB       -43.8650  141.5690  -23.8950 C.3   198  SER198      0.2116
    149  OG       -43.8000  143.0060  -23.9540 O.3   198  SER198     -0.2180
    150  N        -48.0680  139.5370  -22.9170 N.3   229  ALA229     -0.1231
    151  CA       -47.4310  139.0810  -24.1440 C.3   229  ALA229      0.1694
    152  C        -48.5190  138.6300  -25.1620 C.2   229  ALA229      0.2592
    153  O        -49.7340  138.6200  -24.8610 O.2   229  ALA229     -0.2718
    154  CB       -46.4060  137.9860  -23.7740 C.3   229  ALA229      0.0304
    155  N        -48.1010  138.4190  -26.4760 N.am  230  GLY230     -0.1957
    156  CA       -49.0570  138.2500  -27.5700 C.3   230  GLY230      0.1869
    157  C        -48.8620  136.9330  -28.2600 C.2   230  GLY230      0.2309
    158  O        -47.9040  136.6740  -29.0550 O.2   230  GLY230     -0.2863
@<TRIPOS>BOND
     1    44    43    2
     2    43    42    1
     3    41    42    1
     4    42    45    1
     5    36    35    1
     6    36    37    2
     7    47    46    2
     8    38    35    1
     9    38    39    1
    10    35    34    1
    11    54    53    1
    12    46    45    1
    13    46    48   am
    14    53    50    1
    15    20    18   ar
    16    20    22   ar
    17    32    31    1
    18    26    25    2
    19    39    40    1
    20    18    17   ar
    21    34    25   am
    22    34    40    1
    23    22    21   ar
    24    49    50    1
    25    50    51    1
    26    25    24    1
    27    33    31    1
    28    31    30    2
    29    17    16    1
    30    17    19   ar
    31    51    52    2
    32    16    13    1
    33    21    19   ar
    34    24    23    1
    35    24    27    1
    36    30    29    1
    37    28    29    1
    38    28    27    1
    39    74    73    1
    40    23    14   am
    41    14    15    2
    42    14    13    1
    43    13    12    1
    44    55    56    1
    45    73    70    1
    46    12     3   am
    47   120   121    1
    48    65    64    2
    49    72    71    2
    50   121   122    1
    51   121   124    1
    52    60    59    1
    53    71    70    1
    54    71    75   am
    55    76    79    1
    56    76    75    1
    57    76    77    1
    58    56    59    1
    59    56    57    1
    60    68    66    1
    61    70    69    1
    62     3     4    2
    63     3     2    1
    64    79    80    1
    65   122   123    2
    66    64    69   am
    67    64    63    1
    68    78    77    2
    69    59    61    1
    70   124   125    1
    71    57    58    2
    72    77    81   am
    73   126   125    2
    74     2     1    1
    75     2     5    1
    76    63    62    1
    77    63    66    1
    78   125   127   am
    79    66    67    1
    80     6     5    1
    81     6     7    1
    82    81    82    1
    83     8     9    2
    84     8     7    1
    85    11     9    1
    86    82    83    1
    87     9    10    1
    88   128   129    1
    89   109   110   ar
    90   109   107   ar
    91   110   108   ar
    92   158   157    2
    93   107   106   ar
    94   135   137   ar
    95   135   133   ar
    96   108   106   ar
    97   106   105    1
    98    83    84    2
    99    83    85   am
   100   142   143    1
   101   142   139    1
   102   137   136   ar
   103   157   156    1
   104   105   102    1
   105   119   118    1
   106   129   130    1
   107   129   132    1
   108   138   139    1
   109   138   130   am
   110    93    92    1
   111   139   140    1
   112    85    86    1
   113   130   131    2
   114   133   132    1
   115   133   134   ar
   116   117   118    1
   117   117   116    1
   118   156   155    1
   119   136   134   ar
   120    90    91    1
   121    90    89    1
   122   116   115    1
   123   102   101    1
   124   102   103    1
   125    92    91    1
   126   155   152   am
   127    86    89    1
   128    86    87    1
   129   140   144   am
   130   140   141    2
   131   101    96   am
   132   103   104    2
   133   144   145    1
   134    94    87   am
   135    94    95    1
   136    87    88    2
   137   115   112    1
   138   152   153    2
   139   152   151    1
   140   147   146    2
   141    96    95    1
   142    96    97    2
   143    98    95    1
   144    98    99    1
   145    98   100    1
   146   145   146    1
   147   145   148    1
   148   111   112    1
   149   151   154    1
   150   151   150    1
   151   112   113    1
   152   149   148    1
   153   114   113    2
