@<TRIPOS>MOLECULE
tmp/3j94A00.pdb
 186 182 0 0 0
SMALL
GASTEIGER

@<TRIPOS>ATOM
      1  N         11.7130   37.2370   20.8360 N.3   254  SER254     -0.1202
      2  CA        10.5600   36.5500   21.4030 C.3   254  SER254      0.2020
      3  C         10.8250   36.0580   22.8250 C.2   254  SER254      0.2619
      4  O          9.9800   36.2250   23.7050 O.2   254  SER254     -0.2717
      5  CB        10.1560   35.3680   20.5160 C.3   254  SER254      0.2103
      6  OG        11.1610   34.3680   20.5050 O.3   254  SER254     -0.2182
      7  N         11.9880   35.4530   23.0550 N.am  255  TYR255     -0.1961
      8  CA        12.3360   34.9860   24.4010 C.3   255  TYR255      0.1771
      9  C         12.5470   36.1460   25.3620 C.2   255  TYR255      0.2619
     10  O         12.1460   36.0850   26.5220 O.2   255  TYR255     -0.2715
     11  CB        13.5820   34.1010   24.3680 C.3   255  TYR255      0.0574
     12  CG        13.3940   32.7920   23.6320 C.ar  255  TYR255     -0.0198
     13  CD1       12.3780   32.6240   22.6970 C.ar  255  TYR255     -0.0009
     14  CD2       14.2280   31.7170   23.8810 C.ar  255  TYR255     -0.0009
     15  CE1       12.2050   31.4320   22.0270 C.ar  255  TYR255      0.0417
     16  CE2       14.0620   30.5220   23.2200 C.ar  255  TYR255      0.0417
     17  CZ        13.0480   30.3810   22.2910 C.ar  255  TYR255      0.1957
     18  OH        12.8750   29.1880   21.6250 O.3   255  TYR255     -0.2866
     19  N         13.1850   37.1940   24.8590 N.am  256  ILE256     -0.1963
     20  CA        13.3730   38.4490   25.5710 C.3   256  ILE256      0.1727
     21  C         12.0130   39.0980   25.8400 C.2   256  ILE256      0.2616
     22  O         11.7380   39.6120   26.9340 O.2   256  ILE256     -0.2715
     23  CB        14.2970   39.3790   24.7520 C.3   256  ILE256      0.0290
     24  CG1       15.7460   38.8890   24.8530 C.3   256  ILE256      0.0022
     25  CG2       14.2590   40.7750   25.2570 C.3   256  ILE256      0.0023
     26  CD1       16.7600   39.8520   24.2880 C.3   256  ILE256      0.0001
     27  N         11.1580   39.0530   24.8260 N.am  257  MET257     -0.1963
     28  CA         9.8300   39.6530   24.8810 C.3   257  MET257      0.1736
     29  C          9.7270   40.9360   25.7090 C.2   257  MET257      0.2616
     30  O          9.0430   41.8680   25.2820 O.2   257  MET257     -0.2715
     31  CB         8.8240   38.6250   25.4110 C.3   257  MET257      0.0427
     32  CG         7.3750   39.0850   25.4580 C.3   257  MET257      0.0599
     33  SD         6.2740   37.7560   25.9910 S.3   257  MET257     -0.1393
     34  CE         6.1500   36.7950   24.4870 C.3   257  MET257      0.0692
     35  N         10.3760   41.0250   26.8750 N.am  258  ASN258     -0.1958
     36  CA        10.2820   42.3240   27.5690 C.3   258  ASN258      0.1819
     37  C         11.6330   42.9720   27.9070 C.2   258  ASN258      0.2622
     38  O         11.6860   44.0730   28.4570 O.2   258  ASN258     -0.2715
     39  CB         9.3870   42.2220   28.8080 C.3   258  ASN258      0.1195
     40  CG         8.0650   41.5220   28.5170 C.2   258  ASN258      0.2630
     41  OD1        7.6730   40.5880   29.2180 O.2   258  ASN258     -0.2716
     42  ND2        7.3750   41.9700   27.4750 N.am  258  ASN258     -0.0877
     43  N         12.7170   42.2860   27.5670 N.am  259  GLY259     -0.1940
     44  CA        14.0570   42.7310   27.9060 C.3   259  GLY259      0.2014
     45  C         14.4530   42.3380   29.3050 C.2   259  GLY259      0.2639
     46  O         13.6610   41.7780   30.0520 O.2   259  GLY259     -0.2714
     47  N         15.6950   42.6360   29.6610 N.am  260  ILE260     -0.1963
     48  CA        16.1720   42.3550   31.0030 C.3   260  ILE260      0.1727
     49  C         16.6190   43.5870   31.7630 C.2   260  ILE260      0.2616
     50  O         17.4080   44.3970   31.2800 O.2   260  ILE260     -0.2715
     51  CB        17.3490   41.3630   30.9760 C.3   260  ILE260      0.0290
     52  CG1       16.9520   40.0920   30.2310 C.3   260  ILE260      0.0022
     53  CG2       17.8010   41.0240   32.3880 C.3   260  ILE260      0.0023
     54  CD1       17.8850   38.9410   30.4830 C.3   260  ILE260      0.0001
     55  N         16.0970   43.6980   32.9760 N.am  261  ILE261     -0.1977
     56  CA        16.4690   44.7490   33.8970 C.3   261  ILE261      0.1596
     57  C         16.9040   44.0270   35.1650 C.2   261  ILE261      0.2287
     58  O         16.2050   43.1500   35.6810 O.2   261  ILE261     -0.2864
     59  CB        15.3110   45.7450   34.1490 C.3   261  ILE261      0.0276
     60  CG1       14.0960   45.0340   34.7530 C.3   261  ILE261      0.0022
     61  CG2       14.8830   46.3950   32.8430 C.3   261  ILE261      0.0022
     62  CD1       13.0110   45.9670   35.2210 C.3   261  ILE261      0.0001
     63  N         17.0280   43.7230   38.4980 N.3   263  TRP263     -0.1241
     64  CA        16.4580   44.1480   39.7590 C.3   263  TRP263      0.1605
     65  C         17.4310   43.8420   40.8890 C.2   263  TRP263      0.2264
     66  O         17.6030   44.6350   41.8120 O.2   263  TRP263     -0.2867
     67  CB        15.0880   43.4840   39.9480 C.3   263  TRP263      0.0550
     68  CG        15.0710   41.9970   39.6720 C.ar  263  TRP263      0.0003
     69  CD1       14.6650   41.3910   38.5170 C.ar  263  TRP263      0.0946
     70  CD2       15.4230   40.9360   40.5740 C.ar  263  TRP263      0.0152
     71  NE1       14.7710   40.0270   38.6330 N.ar  263  TRP263     -0.2442
     72  CE2       15.2290   39.7220   39.8890 C.ar  263  TRP263      0.0810
     73  CE3       15.8860   40.8950   41.8920 C.ar  263  TRP263      0.0012
     74  CZ2       15.4890   38.4810   40.4760 C.ar  263  TRP263      0.0191
     75  CZ3       16.1480   39.6620   42.4720 C.ar  263  TRP263      0.0001
     76  CH2       15.9460   38.4750   41.7650 C.ar  263  TRP263      0.0015
     77  N         20.9520   38.0020   39.3120 N.3   267  VAL267     -0.1245
     78  CA        20.7480   37.7970   37.8750 C.3   267  VAL267      0.1561
     79  C         22.0380   38.1210   37.1240 C.2   267  VAL267      0.2260
     80  O         22.4670   37.3750   36.2290 O.2   267  VAL267     -0.2867
     81  CB        19.5970   38.6740   37.3320 C.3   267  VAL267      0.0252
     82  CG1       19.6100   38.6960   35.8040 C.3   267  VAL267      0.0019
     83  CG2       18.2580   38.1670   37.8420 C.3   267  VAL267      0.0019
     84  N          8.5850   28.6490   38.5480 N.3   298  PRO298     -0.2102
     85  CA         8.0280   29.1160   37.2750 C.3   298  PRO298      0.1504
     86  C          7.6940   30.6010   37.3330 C.2   298  PRO298      0.2576
     87  O          7.3190   31.0530   38.4160 O.2   298  PRO298     -0.2718
     88  CB         6.7640   28.2630   37.1320 C.3   298  PRO298      0.0282
     89  CG         6.3840   27.9790   38.5730 C.3   298  PRO298      0.0208
     90  CD         7.7160   27.6340   39.1650 C.3   298  PRO298      0.0893
     91  N          7.9060   31.3230   36.2250 N.am  299  HIS299     -0.1962
     92  CA         7.8270   32.7940   36.1460 C.3   299  HIS299      0.1787
     93  C          9.1450   33.4580   36.5630 C.2   299  HIS299      0.2621
     94  O          9.2190   34.6800   36.6970 O.2   299  HIS299     -0.2715
     95  CB         6.6520   33.3640   36.9520 C.3   299  HIS299      0.0785
     96  CG         5.3870   32.5780   36.8030 C.ar  299  HIS299      0.0821
     97  ND1        4.4600   32.4650   37.8140 N.ar  299  HIS299     -0.2267
     98  CD2        4.9050   31.8560   35.7650 C.ar  299  HIS299      0.1154
     99  CE1        3.4580   31.7060   37.4060 C.ar  299  HIS299      0.1986
    100  NE2        3.7030   31.3250   36.1650 N.ar  299  HIS299     -0.2212
    101  N         10.1790   32.6460   36.7710 N.am  300  SER300     -0.1936
    102  CA        11.5020   33.1320   37.1750 C.3   300  SER300      0.2055
    103  C         12.1140   34.0310   36.1080 C.2   300  SER300      0.2644
    104  O         12.8790   34.9380   36.4180 O.2   300  SER300     -0.2714
    105  CB        12.4490   31.9650   37.4710 C.3   300  SER300      0.2130
    106  OG        12.4080   31.6010   38.8420 O.3   300  SER300     -0.2179
    107  N         11.8300   33.7240   34.8490 N.am  301  GLY301     -0.1939
    108  CA        12.4200   34.4180   33.7200 C.3   301  GLY301      0.2014
    109  C         13.7070   33.7360   33.3150 C.2   301  GLY301      0.2639
    110  O         14.4650   34.2450   32.4900 O.2   301  GLY301     -0.2714
    111  N         13.9320   32.5670   33.9080 N.am  302  LYS302     -0.1963
    112  CA        15.1070   31.7340   33.6610 C.3   302  LYS302      0.1728
    113  C         15.1000   31.3690   32.1850 C.2   302  LYS302      0.2617
    114  O         16.1380   31.3190   31.5300 O.2   302  LYS302     -0.2715
    115  CB        15.1370   30.4860   34.5390 C.3   302  LYS302      0.0311
    116  CG        13.9840   29.5520   34.3140 C.3   302  LYS302      0.0038
    117  CD        14.0860   28.3550   35.2010 C.3   302  LYS302      0.0206
    118  CE        12.9190   27.4360   34.9590 C.3   302  LYS302      0.1093
    119  NZ        11.6420   28.0920   35.3590 N.3   302  LYS302     -0.1314
    120  N         13.8970   31.1050   31.6820 N.am  303  THR303     -0.1937
    121  CA        13.6810   30.6650   30.3190 C.3   303  THR303      0.2028
    122  C         14.0620   31.7880   29.3740 C.2   303  THR303      0.2642
    123  O         14.7500   31.5780   28.3740 O.2   303  THR303     -0.2714
    124  CB        12.1710   30.3120   30.1060 C.3   303  THR303      0.1808
    125  OG1       11.8050   29.2130   30.9510 O.3   303  THR303     -0.2208
    126  CG2       11.9010   29.9440   28.6650 C.3   303  THR303      0.0379
    127  N         13.6280   32.9870   29.7280 N.am  304  ALA304     -0.1963
    128  CA        13.9810   34.2150   29.0320 C.3   304  ALA304      0.1728
    129  C         15.4610   34.5640   29.1530 C.2   304  ALA304      0.2616
    130  O         16.0910   35.0320   28.2030 O.2   304  ALA304     -0.2715
    131  CB        13.1410   35.3340   29.5530 C.3   304  ALA304      0.0334
    132  N         15.9950   34.3170   30.3430 N.am  305  LEU305     -0.1977
    133  CA        17.3770   34.6210   30.6880 C.3   305  LEU305      0.1596
    134  C         18.3270   33.7620   29.8500 C.2   305  LEU305      0.2287
    135  O         19.3850   34.2340   29.4120 O.2   305  LEU305     -0.2864
    136  CB        17.5900   34.4050   32.1970 C.3   305  LEU305      0.0297
    137  CG        18.8330   34.7930   33.0110 C.3   305  LEU305      0.0022
    138  CD1       18.5970   34.4240   34.4680 C.3   305  LEU305      0.0001
    139  CD2       20.1210   34.1590   32.5320 C.3   305  LEU305      0.0001
    140  N         13.1350   24.7830   28.3450 N.3   357  ASP357     -0.1239
    141  CA        11.9700   24.2030   29.0220 C.3   357  ASP357      0.1674
    142  C         12.0350   22.6740   29.0300 C.2   357  ASP357      0.2266
    143  O         11.1900   21.9970   28.4420 O.2   357  ASP357     -0.2867
    144  CB        10.6720   24.6980   28.3680 C.3   357  ASP357      0.1410
    145  CG         9.4170   24.2240   29.0950 C.2   357  ASP357      0.3668
    146  OD1        9.5300   23.5260   30.1280 O.co2 357  ASP357     -0.2456
    147  OD2        8.3070   24.5510   28.6220 O.co2 357  ASP357     -0.2456
    148  N         11.8130   24.0470   35.5000 N.3   400  SER400     -0.1217
    149  CA        11.1950   24.6850   36.6580 C.3   400  SER400      0.1889
    150  C         10.9300   23.6970   37.7840 C.2   400  SER400      0.2288
    151  O         10.4080   24.0720   38.8340 O.2   400  SER400     -0.2866
    152  CB         9.8640   25.3410   36.2660 C.3   400  SER400      0.2089
    153  OG        10.0390   26.5820   35.6070 O.3   400  SER400     -0.2183
    154  N         11.0270   49.9690   34.5910 N.3   436  LEU436     -0.1245
    155  CA         9.9090   49.9100   33.6600 C.3   436  LEU436      0.1561
    156  C          9.2340   51.2710   33.4500 C.2   436  LEU436      0.2260
    157  O          8.8650   51.6100   32.3260 O.2   436  LEU436     -0.2867
    158  CB         8.8960   48.8740   34.1490 C.3   436  LEU436      0.0270
    159  CG         9.4730   47.4560   34.1360 C.3   436  LEU436      0.0019
    160  CD1        8.5210   46.4480   34.7550 C.3   436  LEU436      0.0001
    161  CD2        9.8320   47.0560   32.7130 C.3   436  LEU436      0.0001
    162  N          9.4740   37.2140   38.4440 N.3   460  ILE460     -0.1231
    163  CA         9.4800   38.3820   37.5530 C.3   460  ILE460      0.1692
    164  C          8.4650   38.2970   36.4040 C.2   460  ILE460      0.2591
    165  O          7.8590   39.3100   36.0570 O.2   460  ILE460     -0.2718
    166  CB        10.8950   38.6330   36.9580 C.3   460  ILE460      0.0266
    167  CG1       10.9160   39.9250   36.1460 C.3   460  ILE460      0.0019
    168  CG2       11.3300   37.4950   36.0670 C.3   460  ILE460      0.0020
    169  CD1       10.7030   41.1660   36.9650 C.3   460  ILE460      0.0001
    170  N          8.3020   37.1290   35.7850 N.am  461  LYS461     -0.1980
    171  CA         7.2990   36.9620   34.7320 C.3   461  LYS461      0.1596
    172  C          5.9590   37.2850   35.3850 C.2   461  LYS461      0.2287
    173  O          5.1120   37.9990   34.8250 O.2   461  LYS461     -0.2864
    174  CB         7.3200   35.5480   34.1490 C.3   461  LYS461      0.0298
    175  CG         6.3550   35.3160   33.0010 C.3   461  LYS461      0.0038
    176  CD         6.7650   36.0980   31.7710 C.3   461  LYS461      0.0206
    177  CE         5.8000   35.8660   30.6250 C.3   461  LYS461      0.1093
    178  NZ         5.8390   34.4500   30.1750 N.3   461  LYS461     -0.1314
    179  N          5.5370   41.0200   35.8330 N.3   464  LEU464     -0.1245
    180  CA         5.0580   41.6780   34.6220 C.3   464  LEU464      0.1561
    181  C          3.5720   41.4480   34.4630 C.2   464  LEU464      0.2260
    182  O          2.8230   42.3670   34.1230 O.2   464  LEU464     -0.2867
    183  CB         5.8230   41.1790   33.4000 C.3   464  LEU464      0.0270
    184  CG         7.3020   41.5620   33.4500 C.3   464  LEU464      0.0019
    185  CD1        8.0560   40.9300   32.3040 C.3   464  LEU464      0.0001
    186  CD2        7.4480   43.0770   33.4320 C.3   464  LEU464      0.0001
@<TRIPOS>BOND
     1     6     5    1
     2     5     2    1
     3     1     2    1
     4     2     3    1
     5    18    17    1
     6    15    17   ar
     7    15    13   ar
     8    17    16   ar
     9    13    12   ar
    10     3     7   am
    11     3     4    2
    12     7     8    1
    13    16    14   ar
    14    12    14   ar
    15    12    11    1
    16    26    24    1
    17    11     8    1
    18     8     9    1
    19    34    33    1
    20    23    24    1
    21    23    25    1
    22    23    20    1
    23    27    28    1
    24    27    21   am
    25    19     9   am
    26    19    20    1
    27    28    31    1
    28    28    29    1
    29    30    29    2
    30     9    10    2
    31    31    32    1
    32    32    33    1
    33    20    21    1
    34    29    35   am
    35    21    22    2
    36    35    36    1
    37    42    40   am
    38    43    44    1
    39    43    37   am
    40    36    37    1
    41    36    39    1
    42    44    45    1
    43    37    38    2
    44   130   129    2
    45   140   141    1
    46   144   141    1
    47   144   145    1
    48   123   122    2
    49   143   142    2
    50    40    39    1
    51    40    41    2
    52   147   145   ar
    53   126   124    1
    54   141   142    1
    55   128   129    1
    56   128   131    1
    57   128   127    1
    58   145   146   ar
    59   129   132   am
    60    45    47   am
    61    45    46    2
    62   122   127   am
    63   122   121    1
    64   135   134    2
    65    47    48    1
    66   134   133    1
    67   124   121    1
    68   124   125    1
    69   178   177    1
    70    52    54    1
    71    52    51    1
    72   121   120    1
    73   132   133    1
    74   177   176    1
    75   133   136    1
    76    51    48    1
    77    51    53    1
    78    48    49    1
    79    50    49    2
    80   114   113    2
    81   120   113   am
    82    49    55   am
    83   176   175    1
    84   113   112    1
    85   136   137    1
    86   185   184    1
    87   157   156    2
    88   110   109    2
    89   139   137    1
    90   161   159    1
    91    61    59    1
    92    55    56    1
    93   175   174    1
    94   137   138    1
    95   109   108    1
    96   109   111   am
    97   183   184    1
    98   183   180    1
    99   186   184    1
   100   156   155    1
   101   155   158    1
   102   155   154    1
   103   112   111    1
   104   112   115    1
   105   108   107    1
   106    56    59    1
   107    56    57    1
   108   182   181    2
   109   159   158    1
   110   159   160    1
   111   174   171    1
   112    59    60    1
   113   116   115    1
   114   116   117    1
   115   181   180    1
   116   180   179    1
   117   171   172    1
   118   171   170    1
   119    60    62    1
   120   173   172    2
   121   107   103   am
   122   118   117    1
   123   118   119    1
   124    57    58    2
   125   148   149    1
   126   153   152    1
   127    98   100   ar
   128    98    96   ar
   129   170   164   am
   130    82    81    1
   131   165   164    2
   132   168   166    1
   133   103   104    2
   134   103   102    1
   135   167   166    1
   136   167   169    1
   137    92    91    1
   138    92    93    1
   139    92    95    1
   140   100    99   ar
   141    91    86   am
   142    80    79    2
   143   152   149    1
   144   164   163    1
   145    93    94    2
   146    93   101   am
   147   149   150    1
   148   101   102    1
   149    96    95    1
   150    96    97   ar
   151   166   163    1
   152    79    78    1
   153    88    85    1
   154    88    89    1
   155   102   105    1
   156    85    86    1
   157    85    84    1
   158    81    83    1
   159    81    78    1
   160    86    87    2
   161    99    97   ar
   162   105   106    1
   163   163   162    1
   164   150   151    2
   165    78    77    1
   166    63    64    1
   167    69    71   ar
   168    69    68   ar
   169    84    90    1
   170    89    90    1
   171    71    72   ar
   172    68    67    1
   173    68    70   ar
   174    64    67    1
   175    64    65    1
   176    72    74   ar
   177    72    70   ar
   178    74    76   ar
   179    70    73   ar
   180    65    66    2
   181    76    75   ar
   182    73    75   ar
