@<TRIPOS>MOLECULE
tmp/3j94A01.pdb
 144 135 0 0 0
SMALL
GASTEIGER

@<TRIPOS>ATOM
      1  N         35.5590   26.5320   -8.0320 N.3     6  ILE6       -0.1231
      2  CA        35.1860   25.9470   -6.7320 C.3     6  ILE6        0.1692
      3  C         35.1080   26.9990   -5.6290 C.2     6  ILE6        0.2592
      4  O         35.6040   28.1140   -5.7870 O.2     6  ILE6       -0.2718
      5  CB        36.2030   24.8580   -6.2490 C.3     6  ILE6        0.0266
      6  CG1       37.6370   25.3890   -6.3270 C.3     6  ILE6        0.0019
      7  CG2       36.0460   23.5190   -6.9780 C.3     6  ILE6        0.0020
      8  CD1       38.6720   24.5040   -5.6700 C.3     6  ILE6        0.0001
      9  N         34.4800   26.6470   -4.5120 N.am    7  GLY7       -0.1957
     10  CA        34.4790   27.5140   -3.3480 C.3     7  GLY7        0.1869
     11  C         35.2830   26.9130   -2.2090 C.2     7  GLY7        0.2309
     12  O         34.9670   25.8030   -1.7930 O.2     7  GLY7       -0.2863
     13  N         37.4440   24.9110    0.3080 N.3     9  LEU9       -0.1245
     14  CA        37.7510   23.4660    0.3090 C.3     9  LEU9        0.1561
     15  C         38.8520   22.9670   -0.6360 C.2     9  LEU9        0.2260
     16  O         38.9440   21.7750   -0.8900 O.2     9  LEU9       -0.2867
     17  CB        36.4510   22.6850    0.0580 C.3     9  LEU9        0.0270
     18  CG        35.6440   22.8470   -1.2400 C.3     9  LEU9        0.0019
     19  CD1       36.1760   22.0710   -2.4270 C.3     9  LEU9        0.0001
     20  CD2       34.1840   22.4910   -0.9880 C.3     9  LEU9        0.0001
     21  N         23.4170   20.7490    4.1410 N.3    48  PRO48      -0.2116
     22  CA        22.3020   21.6720    3.8810 C.3    48  PRO48       0.1372
     23  C         22.0280   22.9030    4.7600 C.2    48  PRO48       0.2244
     24  O         21.7850   22.7710    5.9600 O.2    48  PRO48      -0.2868
     25  CB        21.1010   20.7310    3.9750 C.3    48  PRO48       0.0268
     26  CG        21.6520   19.4910    3.4590 C.3    48  PRO48       0.0207
     27  CD        22.8830   19.3890    4.2980 C.3    48  PRO48       0.0892
     28  N         24.6740   23.6580    1.6130 N.3    50  CYS50      -0.1221
     29  CA        24.1690   23.3700    0.2720 C.3    50  CYS50       0.1808
     30  C         25.4500   23.2220   -0.5410 C.2    50  CYS50       0.2602
     31  O         26.5400   23.1680    0.0310 O.2    50  CYS50      -0.2717
     32  CB        23.2800   24.4770   -0.2990 C.3    50  CYS50       0.0970
     33  SG        23.1320   24.4830   -2.0820 S.3    50  CYS50      -0.0800
     34  N         25.3420   23.1520   -1.8620 N.am   51  GLY51      -0.1942
     35  CA        26.5190   23.2570   -2.7010 C.3    51  GLY51       0.2014
     36  C         27.3130   22.0160   -3.0530 C.2    51  GLY51       0.2639
     37  O         28.2920   22.1170   -3.7900 O.2    51  GLY51      -0.2714
     38  N         26.9160   20.8500   -2.5520 N.am   52  LYS52      -0.1963
     39  CA        27.5590   19.6140   -2.9850 C.3    52  LYS52       0.1728
     40  C         27.3320   19.2640   -4.4500 C.2    52  LYS52       0.2617
     41  O         28.2570   18.8280   -5.1420 O.2    52  LYS52      -0.2715
     42  CB        27.0730   18.4600   -2.1060 C.3    52  LYS52       0.0311
     43  CG        25.6110   18.3590   -1.8810 C.3    52  LYS52       0.0038
     44  CD        25.3440   17.3940   -0.7170 C.3    52  LYS52       0.0206
     45  CE        23.8670   17.3730   -0.3810 C.3    52  LYS52       0.1093
     46  NZ        23.5210   16.4860    0.7530 N.3    52  LYS52      -0.1314
     47  N         26.1050   19.4680   -4.9170 N.am   53  THR53      -0.1937
     48  CA        25.7150   19.0530   -6.2610 C.3    53  THR53       0.2028
     49  C         26.5190   19.7840   -7.3340 C.2    53  THR53       0.2642
     50  O         26.9610   19.1870   -8.3180 O.2    53  THR53      -0.2714
     51  CB        24.2150   19.2890   -6.4980 C.3    53  THR53       0.1808
     52  OG1       23.4590   18.5520   -5.5340 O.3    53  THR53      -0.2208
     53  CG2       23.8080   18.8840   -7.9130 C.3    53  THR53       0.0379
     54  N         26.7080   21.0850   -7.1200 N.am   54  LEU54      -0.1963
     55  CA        27.4570   21.9340   -8.0410 C.3    54  LEU54       0.1728
     56  C         28.9030   21.4900   -8.1290 C.2    54  LEU54       0.2616
     57  O         29.4950   21.4610   -9.2080 O.2    54  LEU54      -0.2715
     58  CB        27.3790   23.4000   -7.6060 C.3    54  LEU54       0.0311
     59  CG        27.9550   24.4470   -8.5600 C.3    54  LEU54       0.0022
     60  CD1       27.1540   25.7230   -8.4580 C.3    54  LEU54       0.0001
     61  CD2       29.4240   24.7240   -8.2470 C.3    54  LEU54       0.0001
     62  N         29.4610   21.1450   -6.9750 N.am   55  LEU55      -0.1977
     63  CA        30.8230   20.6490   -6.8970 C.3    55  LEU55       0.1596
     64  C         30.9050   19.3420   -7.6670 C.2    55  LEU55       0.2287
     65  O         31.9100   19.0640   -8.3050 O.2    55  LEU55      -0.2864
     66  CB        31.2720   20.4690   -5.4420 C.3    55  LEU55       0.0297
     67  CG        32.7220   20.0250   -5.2060 C.3    55  LEU55       0.0022
     68  CD1       33.1800   20.5330   -3.8580 C.3    55  LEU55       0.0001
     69  CD2       32.9000   18.5070   -5.2720 C.3    55  LEU55       0.0001
     70  N         28.9550   18.4530  -10.3080 N.3    57  ARG57      -0.1245
     71  CA        28.9130   18.7520  -11.7340 C.3    57  ARG57       0.1563
     72  C         30.2710   19.2720  -12.2090 C.2    57  ARG57       0.2260
     73  O         30.8000   18.8000  -13.2200 O.2    57  ARG57      -0.2867
     74  CB        27.8030   19.7540  -12.0430 C.3    57  ARG57       0.0307
     75  CG        26.4140   19.1940  -11.8040 C.3    57  ARG57       0.0489
     76  CD        25.3500   20.0860  -12.4090 C.3    57  ARG57       0.2205
     77  NE        25.7620   21.4860  -12.4270 N.pl3  57  ARG57      -0.0865
     78  CZ        25.4890   22.3590  -11.4630 C.cat  57  ARG57       0.5346
     79  NH1       24.8010   21.9780  -10.3950 N.pl3  57  ARG57       0.1354
     80  NH2       25.9020   23.6150  -11.5640 N.pl3  57  ARG57       0.1354
     81  N         21.3060   13.1680   -5.8350 N.3   114  ASP114     -0.1225
     82  CA        21.2430   13.6480   -4.4620 C.3   114  ASP114      0.1805
     83  C         20.1500   12.9380   -3.6740 C.2   114  ASP114      0.2597
     84  O         19.2810   12.2910   -4.2610 O.2   114  ASP114     -0.2718
     85  CB        20.9980   15.1520   -4.4410 C.3   114  ASP114      0.1424
     86  CG        22.1970   15.9420   -4.9020 C.2   114  ASP114      0.3668
     87  OD1       23.3080   15.3740   -4.9710 O.co2 114  ASP114     -0.2456
     88  OD2       22.0190   17.1360   -5.2060 O.co2 114  ASP114     -0.2456
     89  N         20.2190   13.0420   -2.3460 N.am  115  GLU115     -0.1979
     90  CA        19.2790   12.3540   -1.4620 C.3   115  GLU115      0.1602
     91  C         19.3350   10.8390   -1.6290 C.2   115  GLU115      0.2287
     92  O         18.3000   10.1760   -1.6740 O.2   115  GLU115     -0.2864
     93  CB        17.8500   12.8620   -1.6810 C.3   115  GLU115      0.0415
     94  CG        17.6670   14.3260   -1.3670 C.3   115  GLU115      0.1163
     95  CD        17.8350   14.6950    0.0720 C.2   115  GLU115      0.3649
     96  OE1       17.8090   13.8080    0.9660 O.co2 115  GLU115     -0.2457
     97  OE2       17.8830   15.9110    0.3100 O.co2 115  GLU115     -0.2457
     98  N         34.6610   31.8730   -1.6030 N.3   180  ILE180     -0.1245
     99  CA        33.4240   31.9780   -2.3890 C.3   180  ILE180      0.1561
    100  C         32.9980   33.4270   -2.6050 C.2   180  ILE180      0.2260
    101  O         32.6460   33.8420   -3.7320 O.2   180  ILE180     -0.2867
    102  CB        32.2450   31.2450   -1.7180 C.3   180  ILE180      0.0252
    103  CG1       32.5030   29.7420   -1.6540 C.3   180  ILE180      0.0019
    104  CG2       30.9540   31.5080   -2.4800 C.3   180  ILE180      0.0019
    105  CD1       32.6480   29.2030   -0.2570 C.3   180  ILE180      0.0001
    106  N         32.7870   35.5120   -6.2740 N.3   184  HIS184     -0.1241
    107  CA        31.6160   36.2890   -6.6810 C.3   184  HIS184      0.1621
    108  C         31.9360   37.7870   -6.8360 C.2   184  HIS184      0.2264
    109  O         31.4170   38.4570   -7.7340 O.2   184  HIS184     -0.2867
    110  CB        30.5180   36.0600   -5.6570 C.3   184  HIS184      0.0745
    111  CG        29.8770   34.7200   -5.7990 C.ar  184  HIS184      0.0817
    112  ND1       30.2570   33.8300   -6.7800 N.ar  184  HIS184     -0.2268
    113  CD2       28.9500   34.0800   -5.0490 C.ar  184  HIS184      0.1154
    114  CE1       29.5630   32.7150   -6.6540 C.ar  184  HIS184      0.1986
    115  NE2       28.7690   32.8380   -5.6070 N.ar  184  HIS184     -0.2212
    116  N         28.2290   28.3880    1.5610 N.3   212  GLY212     -0.1210
    117  CA        28.5100   29.1310    0.3450 C.3   212  GLY212      0.1956
    118  C         27.3140   29.4810   -0.5360 C.2   212  GLY212      0.2611
    119  O         27.2170   30.6130   -1.0130 O.2   212  GLY212     -0.2717
    120  N         26.4030   28.5310   -0.7530 N.am  213  ALA213     -0.1979
    121  CA        25.1920   28.7970   -1.5420 C.3   213  ALA213      0.1597
    122  C         24.2890   29.8930   -0.9810 C.2   213  ALA213      0.2287
    123  O         23.7950   30.7640   -1.7270 O.2   213  ALA213     -0.2864
    124  CB        24.4010   27.5340   -1.6830 C.3   213  ALA213      0.0319
    125  N         25.9410   33.1200   -1.7680 N.3   216  GLU216     -0.1245
    126  CA        25.7350   33.6240   -3.1240 C.3   216  GLU216      0.1567
    127  C         24.3610   34.2650   -3.2410 C.2   216  GLU216      0.2260
    128  O         24.2120   35.3730   -3.8050 O.2   216  GLU216     -0.2867
    129  CB        25.8720   32.4850   -4.1520 C.3   216  GLU216      0.0388
    130  CG        25.7540   32.8840   -5.6430 C.3   216  GLU216      0.1160
    131  CD        24.3580   33.3160   -6.0790 C.2   216  GLU216      0.3649
    132  OE1       23.3640   32.8250   -5.5020 O.co2 216  GLU216     -0.2457
    133  OE2       24.2560   34.1630   -6.9910 O.co2 216  GLU216     -0.2457
    134  N         23.1550   38.1990   -4.1410 N.3   220  ARG220     -0.1245
    135  CA        22.0310   38.6030   -4.9760 C.3   220  ARG220      0.1563
    136  C         21.0730   39.5480   -4.2510 C.2   220  ARG220      0.2260
    137  O         20.5960   40.5280   -4.8390 O.2   220  ARG220     -0.2867
    138  CB        21.2810   37.3670   -5.4740 C.3   220  ARG220      0.0307
    139  CG        19.8540   37.6250   -5.9150 C.3   220  ARG220      0.0489
    140  CD        19.3230   36.4820   -6.7660 C.3   220  ARG220      0.2205
    141  NE        19.5910   35.1690   -6.1830 N.pl3 220  ARG220     -0.0865
    142  CZ        20.5400   34.3420   -6.6120 C.cat 220  ARG220      0.5346
    143  NH1       21.3180   34.6930   -7.6260 N.pl3 220  ARG220      0.1354
    144  NH2       20.7150   33.1670   -6.0230 N.pl3 220  ARG220      0.1354
@<TRIPOS>BOND
     1    73    72    2
     2    77    76    1
     3    77    78    2
     4    76    75    1
     5    72    71    1
     6    74    75    1
     7    74    71    1
     8    71    70    1
     9    80    78    1
    10    78    79    1
    11    57    56    2
    12    59    60    1
    13    59    61    1
    14    59    58    1
    15    50    49    2
    16    65    64    2
    17    56    55    1
    18    56    62   am
    19    55    58    1
    20    55    54    1
    21     1     2    1
    22    53    51    1
    23   109   108    2
    24    64    63    1
    25   143   142    1
    26    49    54   am
    27    49    48    1
    28   133   131   ar
    29     7     5    1
    30    62    63    1
    31    63    66    1
    32   108   107    1
    33   112   114   ar
    34   112   111   ar
    35   140   141    1
    36   140   139    1
    37     2     5    1
    38     2     3    1
    39   107   106    1
    40   107   110    1
    41   114   115   ar
    42   142   141    2
    43   142   144    1
    44    51    48    1
    45    51    52    1
    46     6     5    1
    47     6     8    1
    48    48    47    1
    49   131   130    1
    50   131   132   ar
    51   139   138    1
    52    81    82    1
    53   111   110    1
    54   111   113   ar
    55     4     3    2
    56   130   129    1
    57     3     9   am
    58   115   113   ar
    59   138   135    1
    60    66    67    1
    61    69    67    1
    62    67    68    1
    63    88    86   ar
    64    41    40    2
    65   135   136    1
    66   135   134    1
    67    87    86   ar
    68    47    40   am
    69    86    85    1
    70   137   136    2
    71     9    10    1
    72    82    85    1
    73    82    83    1
    74    40    39    1
    75    84    83    2
    76   129   126    1
    77   128   127    2
    78    37    36    2
    79   101   100    2
    80    83    89   am
    81    10    11    1
    82   127   126    1
    83   126   125    1
    84    36    35    1
    85    36    38   am
    86    39    38    1
    87    39    42    1
    88    35    34    1
    89   100    99    1
    90   104   102    1
    91    19    18    1
    92    99   102    1
    93    99    98    1
    94    89    90    1
    95    11    12    2
    96    42    43    1
    97    33    32    1
    98    43    44    1
    99    34    30   am
   100   123   122    2
   101   102   103    1
   102   124   121    1
   103    93    90    1
   104    93    94    1
   105    92    91    2
   106   103   105    1
   107    91    90    1
   108   121   122    1
   109   121   120    1
   110    94    95    1
   111    18    20    1
   112    18    17    1
   113   119   118    2
   114    16    15    2
   115   120   118   am
   116    44    45    1
   117    15    14    1
   118    30    31    2
   119    30    29    1
   120   118   117    1
   121    45    46    1
   122    32    29    1
   123    17    14    1
   124    95    97   ar
   125    95    96   ar
   126    29    28    1
   127    13    14    1
   128   117   116    1
   129    26    25    1
   130    26    27    1
   131    22    25    1
   132    22    21    1
   133    22    23    1
   134    21    27    1
   135    23    24    2
