@<TRIPOS>MOLECULE
tmp/3j95B00.pdb
 159 156 0 0 0
SMALL
GASTEIGER

@<TRIPOS>ATOM
      1  N         21.5010   31.0360   16.3830 N.3   246  TYR246     -0.1227
      2  CA        20.6600   30.4440   17.4340 C.3   246  TYR246      0.1736
      3  C         20.4910   31.2810   18.7160 C.2   246  TYR246      0.2595
      4  O         19.4510   31.2290   19.3690 O.2   246  TYR246     -0.2718
      5  CB        21.0880   29.0330   17.8030 C.3   246  TYR246      0.0548
      6  CG        20.9560   28.0550   16.6660 C.ar  246  TYR246     -0.0200
      7  CD1       19.8340   28.0730   15.8380 C.ar  246  TYR246     -0.0009
      8  CD2       21.8790   27.0480   16.4820 C.ar  246  TYR246     -0.0009
      9  CE1       19.6950   27.1500   14.7970 C.ar  246  TYR246      0.0417
     10  CE2       21.7450   26.1350   15.4620 C.ar  246  TYR246      0.0417
     11  CZ        20.6470   26.1880   14.6260 C.ar  246  TYR246      0.1957
     12  OH        20.5440   25.2620   13.6100 O.3   246  TYR246     -0.2866
     13  N         21.5470   31.9890   19.1340 N.am  247  ILE247     -0.1966
     14  CA        21.4700   32.7360   20.3710 C.3   247  ILE247      0.1727
     15  C         21.1550   34.1980   20.0530 C.2   247  ILE247      0.2616
     16  O         22.0120   34.9380   19.5740 O.2   247  ILE247     -0.2715
     17  CB        22.7810   32.7550   21.1550 C.3   247  ILE247      0.0290
     18  CG1       23.2500   31.3530   21.5230 C.3   247  ILE247      0.0022
     19  CG2       22.6660   33.7150   22.3360 C.3   247  ILE247      0.0023
     20  CD1       24.6630   31.3660   22.0460 C.3   247  ILE247      0.0001
     21  N         19.9230   34.6060   20.2960 N.am  248  MET248     -0.1963
     22  CA        19.5290   35.9580   19.9610 C.3   248  MET248      0.1736
     23  C         20.1920   37.0570   20.7950 C.2   248  MET248      0.2616
     24  O         20.5750   38.0920   20.2460 O.2   248  MET248     -0.2715
     25  CB        18.0210   36.1030   20.0530 C.3   248  MET248      0.0427
     26  CG        17.4810   37.0660   19.0310 C.3   248  MET248      0.0599
     27  SD        15.7590   36.7300   18.6680 S.3   248  MET248     -0.1393
     28  CE        15.9020   35.3740   17.5150 C.3   248  MET248      0.0692
     29  N         20.3280   36.8500   22.1040 N.am  249  ASN249     -0.1958
     30  CA        20.7730   37.9330   22.9800 C.3   249  ASN249      0.1819
     31  C         22.2040   37.7940   23.4580 C.2   249  ASN249      0.2622
     32  O         22.6250   38.5100   24.3540 O.2   249  ASN249     -0.2715
     33  CB        19.8510   38.0190   24.1910 C.3   249  ASN249      0.1195
     34  CG        18.4140   38.1610   23.8150 C.2   249  ASN249      0.2630
     35  OD1       18.0120   39.1740   23.2530 O.2   249  ASN249     -0.2716
     36  ND2       17.6240   37.1470   24.1150 N.am  249  ASN249     -0.0877
     37  N         22.9550   36.8800   22.8500 N.am  250  GLY250     -0.1940
     38  CA        24.3310   36.6740   23.2520 C.3   250  GLY250      0.2014
     39  C         24.4670   36.0160   24.6030 C.2   250  GLY250      0.2639
     40  O         23.4620   35.6190   25.2340 O.2   250  GLY250     -0.2714
     41  N         25.7120   35.9020   25.0630 N.am  251  ILE251     -0.1963
     42  CA        25.9500   35.3090   26.3610 C.3   251  ILE251      0.1727
     43  C         26.3280   36.4150   27.3380 C.2   251  ILE251      0.2616
     44  O         27.2190   37.2340   27.1000 O.2   251  ILE251     -0.2715
     45  CB        27.0410   34.2360   26.3060 C.3   251  ILE251      0.0290
     46  CG1       26.6150   33.1360   25.3390 C.3   251  ILE251      0.0022
     47  CG2       27.2690   33.6370   27.6820 C.3   251  ILE251      0.0023
     48  CD1       25.3150   32.4690   25.7070 C.3   251  ILE251      0.0001
     49  N         25.5990   36.4120   28.4450 N.am  252  ILE252     -0.1977
     50  CA        25.7710   37.3370   29.5430 C.3   252  ILE252      0.1596
     51  C         26.3780   36.5890   30.6990 C.2   252  ILE252      0.2287
     52  O         25.8730   35.5370   31.0860 O.2   252  ILE252     -0.2864
     53  CB        24.4430   37.9660   29.9760 C.3   252  ILE252      0.0276
     54  CG1       23.5950   38.3230   28.7570 C.3   252  ILE252      0.0022
     55  CG2       24.6940   39.1680   30.8650 C.3   252  ILE252      0.0022
     56  CD1       22.2050   37.7200   28.7950 C.3   252  ILE252      0.0001
     57  N         25.9950   36.4350   33.6630 N.3   254  TRP254     -0.1241
     58  CA        25.1740   36.6670   34.8510 C.3   254  TRP254      0.1605
     59  C         25.7350   36.1390   36.1750 C.2   254  TRP254      0.2264
     60  O         25.1980   36.4460   37.2420 O.2   254  TRP254     -0.2867
     61  CB        23.7740   36.0540   34.6890 C.3   254  TRP254      0.0550
     62  CG        23.7720   34.6790   34.0800 C.ar  254  TRP254      0.0003
     63  CD1       23.8780   34.3860   32.7590 C.ar  254  TRP254      0.0946
     64  CD2       24.0630   33.4460   34.7610 C.ar  254  TRP254      0.0152
     65  NE1       23.9610   33.0350   32.5710 N.ar  254  TRP254     -0.2442
     66  CE2       24.0990   32.4300   33.7900 C.ar  254  TRP254      0.0810
     67  CE3       24.1880   33.0890   36.0990 C.ar  254  TRP254      0.0012
     68  CZ2       24.3150   31.0840   34.1140 C.ar  254  TRP254      0.0191
     69  CZ3       24.3750   31.7410   36.4140 C.ar  254  TRP254      0.0001
     70  CH2       24.4480   30.7670   35.4320 C.ar  254  TRP254      0.0015
     71  N         28.5210   30.7090   34.6320 N.3   258  VAL258     -0.1245
     72  CA        28.5890   30.7620   33.1710 C.3   258  VAL258      0.1561
     73  C         30.0000   30.5320   32.7090 C.2   258  VAL258      0.2260
     74  O         30.2600   29.7270   31.8150 O.2   258  VAL258     -0.2867
     75  CB        28.2920   32.1490   32.6050 C.3   258  VAL258      0.0252
     76  CG1       28.3700   32.1160   31.0860 C.3   258  VAL258      0.0019
     77  CG2       26.9940   32.6070   32.9960 C.3   258  VAL258      0.0019
     78  N         14.1930   26.6550   31.1140 N.3   290  HIS290     -0.1226
     79  CA        14.6510   28.0000   30.7190 C.3   290  HIS290      0.1752
     80  C         16.1320   28.0880   31.0950 C.2   290  HIS290      0.2597
     81  O         16.7550   27.0390   31.2080 O.2   290  HIS290     -0.2718
     82  CB        13.8320   29.1340   31.3360 C.3   290  HIS290      0.0759
     83  CG        12.4330   29.2040   30.8140 C.ar  290  HIS290      0.0818
     84  ND1       12.0970   29.9270   29.6910 N.ar  290  HIS290     -0.2268
     85  CD2       11.2940   28.6030   31.2290 C.ar  290  HIS290      0.1154
     86  CE1       10.8040   29.7970   29.4570 C.ar  290  HIS290      0.1986
     87  NE2       10.2910   29.0050   30.3790 N.ar  290  HIS290     -0.2212
     88  N         16.7400   29.2530   30.8930 N.am  291  SER291     -0.1938
     89  CA        18.2000   29.4880   30.9500 C.3   291  SER291      0.2055
     90  C         18.8860   29.0720   29.6600 C.2   291  SER291      0.2644
     91  O         18.2470   28.5270   28.7660 O.2   291  SER291     -0.2714
     92  CB        18.8790   28.7950   32.1530 C.3   291  SER291      0.2130
     93  OG        18.6670   27.3950   32.1780 O.3   291  SER291     -0.2179
     94  N         20.1920   29.3080   29.5690 N.am  292  GLY292     -0.1939
     95  CA        20.9070   29.0130   28.3430 C.3   292  GLY292      0.2014
     96  C         21.4350   27.6090   28.1580 C.2   292  GLY292      0.2639
     97  O         22.6420   27.4150   28.1700 O.2   292  GLY292     -0.2714
     98  N         20.5650   26.6200   28.0180 N.am  293  LYS293     -0.1963
     99  CA        21.0420   25.2890   27.6760 C.3   293  LYS293      0.1728
    100  C         21.5990   25.3090   26.2640 C.2   293  LYS293      0.2617
    101  O         22.7810   25.0190   26.0060 O.2   293  LYS293     -0.2715
    102  CB        19.9050   24.2870   27.8040 C.3   293  LYS293      0.0311
    103  CG        19.5010   24.1760   29.2460 C.3   293  LYS293      0.0038
    104  CD        18.3140   23.2960   29.5200 C.3   293  LYS293      0.0206
    105  CE        18.1070   23.3260   31.0170 C.3   293  LYS293      0.1093
    106  NZ        16.9450   22.5890   31.5450 N.3   293  LYS293     -0.1314
    107  N         20.7290   25.7630   25.3690 N.am  294  THR294     -0.1937
    108  CA        21.0200   25.8330   23.9530 C.3   294  THR294      0.2028
    109  C         22.0620   26.8980   23.6930 C.2   294  THR294      0.2642
    110  O         22.9410   26.7270   22.8520 O.2   294  THR294     -0.2714
    111  CB        19.7530   26.1650   23.1480 C.3   294  THR294      0.1808
    112  OG1       19.2090   27.4110   23.5990 O.3   294  THR294     -0.2208
    113  CG2       18.7160   25.0740   23.3260 C.3   294  THR294      0.0379
    114  N         21.9360   28.0120   24.4040 N.am  295  ALA295     -0.1963
    115  CA        22.8570   29.1220   24.2310 C.3   295  ALA295      0.1728
    116  C         24.2720   28.7480   24.6010 C.2   295  ALA295      0.2616
    117  O         25.2270   29.0300   23.8730 O.2   295  ALA295     -0.2715
    118  CB        22.4220   30.2770   25.0760 C.3   295  ALA295      0.0334
    119  N         24.3910   28.0780   25.7390 N.am  296  LEU296     -0.1977
    120  CA        25.6910   27.6690   26.2230 C.3   296  LEU296      0.1596
    121  C         26.2760   26.6720   25.2440 C.2   296  LEU296      0.2287
    122  O         27.4420   26.7870   24.8660 O.2   296  LEU296     -0.2864
    123  CB        25.5890   27.0930   27.6330 C.3   296  LEU296      0.0297
    124  CG        25.7910   28.1250   28.7550 C.3   296  LEU296      0.0022
    125  CD1       27.2530   28.4320   28.9180 C.3   296  LEU296      0.0001
    126  CD2       25.0070   29.4250   28.5320 C.3   296  LEU296      0.0001
    127  N         17.5530   19.8350   23.1440 N.3   348  ASP348     -0.1239
    128  CA        16.4590   19.3470   23.9660 C.3   348  ASP348      0.1674
    129  C         16.1980   17.8600   23.7430 C.2   348  ASP348      0.2266
    130  O         15.2080   17.4770   23.1290 O.2   348  ASP348     -0.2867
    131  CB        15.1900   20.1520   23.6780 C.3   348  ASP348      0.1410
    132  CG        15.2680   21.5660   24.2070 C.2   348  ASP348      0.3668
    133  OD1       16.1600   21.8520   25.0360 O.co2 348  ASP348     -0.2456
    134  OD2       14.4350   22.3960   23.7920 O.co2 348  ASP348     -0.2456
    135  N         17.9710   32.4770   33.6020 N.3   451  ILE451     -0.1231
    136  CA        18.4720   33.6990   32.9770 C.3   451  ILE451      0.1692
    137  C         17.5220   34.1520   31.8900 C.2   451  ILE451      0.2591
    138  O         17.1730   35.3280   31.8060 O.2   451  ILE451     -0.2718
    139  CB        19.9290   33.5300   32.4480 C.3   451  ILE451      0.0266
    140  CG1       20.4380   34.8230   31.8000 C.3   451  ILE451      0.0019
    141  CG2       20.0580   32.3780   31.4620 C.3   451  ILE451      0.0020
    142  CD1       20.4730   36.0000   32.7500 C.3   451  ILE451      0.0001
    143  N         17.1260   33.2050   31.0460 N.am  452  LYS452     -0.1980
    144  CA        16.1890   33.4870   29.9800 C.3   452  LYS452      0.1596
    145  C         14.9300   33.9240   30.6590 C.2   452  LYS452      0.2287
    146  O         14.2680   34.8630   30.2290 O.2   452  LYS452     -0.2864
    147  CB        15.9720   32.2760   29.0880 C.3   452  LYS452      0.0298
    148  CG        15.0820   32.5290   27.8890 C.3   452  LYS452      0.0038
    149  CD        14.8680   31.2270   27.1880 C.3   452  LYS452      0.0206
    150  CE        16.2210   30.9170   26.6150 C.3   452  LYS452      0.1093
    151  NZ        16.4490   29.6740   25.8440 N.3   452  LYS452     -0.1314
    152  N         15.5710   37.2980   31.7890 N.3   455  LEU455     -0.1245
    153  CA        15.5010   38.2310   30.6700 C.3   455  LEU455      0.1561
    154  C         14.0550   38.5570   30.3630 C.2   455  LEU455      0.2260
    155  O         13.6850   39.7100   30.1000 O.2   455  LEU455     -0.2867
    156  CB        16.1780   37.6510   29.4200 C.3   455  LEU455      0.0270
    157  CG        17.6570   37.2510   29.4640 C.3   455  LEU455      0.0019
    158  CD1       18.1020   36.6440   28.1400 C.3   455  LEU455      0.0001
    159  CD2       18.5270   38.4440   29.8190 C.3   455  LEU455      0.0001
@<TRIPOS>BOND
     1    12    11    1
     2    11     9   ar
     3    11    10   ar
     4     9     7   ar
     5    10     8   ar
     6     7     6   ar
     7     1     2    1
     8     8     6   ar
     9     6     5    1
    10     2     5    1
    11     2     3    1
    12    28    27    1
    13    27    26    1
    14     3    13   am
    15     3     4    2
    16    26    25    1
    17    13    14    1
    18    16    15    2
    19    22    25    1
    20    22    21    1
    21    22    23    1
    22    15    21   am
    23    15    14    1
    24    24    23    2
    25    14    17    1
    26    23    29   am
    27    17    18    1
    28    17    19    1
    29    18    20    1
    30    29    30    1
    31    37    38    1
    32    37    31   am
    33   110   109    2
    34    30    31    1
    35    30    33    1
    36   130   129    2
    37   127   128    1
    38   111   113    1
    39   111   112    1
    40   111   108    1
    41    38    39    1
    42    35    34    2
    43    31    32    2
    44   131   128    1
    45   131   132    1
    46   109   108    1
    47   109   114   am
    48   129   128    1
    49   134   132   ar
    50    34    36   am
    51    34    33    1
    52   117   116    2
    53   108   107    1
    54   132   133   ar
    55   115   114    1
    56   115   116    1
    57   115   118    1
    58   116   119   am
    59    39    41   am
    60    39    40    2
    61   122   121    2
    62    41    42    1
    63   121   120    1
    64    46    48    1
    65    46    45    1
    66   107   100   am
    67   119   120    1
    68   151   150    1
    69   101   100    2
    70   120   123    1
    71   100    99    1
    72    45    42    1
    73    45    47    1
    74    42    43    1
    75   150   149    1
    76    44    43    2
    77   149   148    1
    78    43    49   am
    79   123   124    1
    80    99   102    1
    81    99    98    1
    82   102   103    1
    83   148   147    1
    84    98    96   am
    85   158   157    1
    86    96    97    2
    87    96    95    1
    88    95    94    1
    89    49    50    1
    90   126   124    1
    91   124   125    1
    92    54    56    1
    93    54    53    1
    94    91    90    2
    95   147   144    1
    96   103   104    1
    97   156   157    1
    98   156   153    1
    99    86    84   ar
   100    86    87   ar
   101   157   159    1
   102   104   105    1
   103    50    53    1
   104    50    51    1
   105    94    90   am
   106    90    89    1
   107    84    83   ar
   108    53    55    1
   109   144   145    1
   110   144   143    1
   111   155   154    2
   112   146   145    2
   113   154   153    1
   114    87    85   ar
   115   153   152    1
   116    51    52    2
   117    79    80    1
   118    79    78    1
   119    79    82    1
   120    83    85   ar
   121    83    82    1
   122    88    89    1
   123    88    80   am
   124    89    92    1
   125   105   106    1
   126   143   137   am
   127    76    75    1
   128    80    81    2
   129   141   139    1
   130   140   139    1
   131   140   142    1
   132   138   137    2
   133    74    73    2
   134   137   136    1
   135    92    93    1
   136   139   136    1
   137    65    63   ar
   138    65    66   ar
   139    75    77    1
   140    75    72    1
   141    73    72    1
   142    63    62   ar
   143   136   135    1
   144    72    71    1
   145    57    58    1
   146    66    68   ar
   147    66    64   ar
   148    62    61    1
   149    62    64   ar
   150    68    70   ar
   151    61    58    1
   152    64    67   ar
   153    58    59    1
   154    70    69   ar
   155    67    69   ar
   156    59    60    2
