@<TRIPOS>MOLECULE
tmp/3j9kK00.pdb
 171 165 0 0 0
SMALL
GASTEIGER

@<TRIPOS>ATOM
      1  N        245.6590  177.9950  169.0770 N.3   110  VAL110     -0.1245
      2  CA       246.5130  176.9930  168.4600 C.3   110  VAL110      0.1561
      3  C        247.7340  177.0510  169.3020 C.2   110  VAL110      0.2260
      4  O        248.5950  176.1820  169.2890 O.2   110  VAL110     -0.2867
      5  CB       246.8460  177.3810  167.0410 C.3   110  VAL110      0.0252
      6  CG1      245.6190  177.3030  166.1520 C.3   110  VAL110      0.0019
      7  CG2      247.5020  178.7620  166.9940 C.3   110  VAL110      0.0019
      8  N        249.4230  174.0940  170.9140 N.3   114  TYR114     -0.1227
      9  CA       250.6690  173.9930  170.1660 C.3   114  TYR114      0.1736
     10  C        251.8540  174.7530  170.7620 C.2   114  TYR114      0.2595
     11  O        252.9170  174.7840  170.1470 O.2   114  TYR114     -0.2718
     12  CB       250.4370  174.4640  168.7270 C.3   114  TYR114      0.0548
     13  CG       249.7610  173.4340  167.8510 C.ar  114  TYR114     -0.0200
     14  CD1      250.1750  172.1090  167.8620 C.ar  114  TYR114     -0.0009
     15  CD2      248.7100  173.7830  167.0180 C.ar  114  TYR114     -0.0009
     16  CE1      249.5650  171.1600  167.0570 C.ar  114  TYR114      0.0417
     17  CE2      248.0900  172.8430  166.2090 C.ar  114  TYR114      0.0417
     18  CZ       248.5210  171.5340  166.2330 C.ar  114  TYR114      0.1957
     19  OH       247.9030  170.6010  165.4280 O.3   114  TYR114     -0.2866
     20  N        251.6840  175.3430  171.9450 N.am  115  ASN115     -0.1960
     21  CA       252.7560  176.1040  172.6090 C.3   115  ASN115      0.1819
     22  C        254.0170  175.2890  172.8980 C.2   115  ASN115      0.2621
     23  O        253.9680  174.0660  172.9280 O.2   115  ASN115     -0.2715
     24  CB       252.2340  176.6960  173.9260 C.3   115  ASN115      0.1195
     25  CG       253.3330  177.3330  174.7680 C.2   115  ASN115      0.2630
     26  OD1      254.1520  178.1070  174.2650 O.2   115  ASN115     -0.2716
     27  ND2      253.3740  176.9820  176.0490 N.am  115  ASN115     -0.0877
     28  N        255.1500  175.9570  173.1050 N.am  116  VAL116     -0.1977
     29  CA       256.3470  175.2500  173.5570 C.3   116  VAL116      0.1596
     30  C        257.0580  175.9670  174.7050 C.2   116  VAL116      0.2287
     31  O        257.1980  177.1960  174.7010 O.2   116  VAL116     -0.2864
     32  CB       257.3160  175.0180  172.3870 C.3   116  VAL116      0.0276
     33  CG1      258.7640  174.9410  172.8470 C.3   116  VAL116      0.0022
     34  CG2      256.9010  173.7640  171.6530 C.3   116  VAL116      0.0022
     35  N        259.5350  177.7210  176.4560 N.3   118  ARG118     -0.1245
     36  CA       260.6110  178.5470  175.9310 C.3   118  ARG118      0.1563
     37  C        261.1810  179.4470  177.0300 C.2   118  ARG118      0.2260
     38  O        260.5460  180.4250  177.4050 O.2   118  ARG118     -0.2867
     39  CB       260.0820  179.3830  174.7700 C.3   118  ARG118      0.0307
     40  CG       261.1190  180.1040  173.9690 C.3   118  ARG118      0.0489
     41  CD       260.4580  180.5960  172.7020 C.3   118  ARG118      0.2205
     42  NE       261.3890  181.2780  171.8180 N.pl3 118  ARG118     -0.0865
     43  CZ       261.0710  181.7340  170.6140 C.cat 118  ARG118      0.5346
     44  NH1      259.8430  181.5780  170.1430 N.pl3 118  ARG118      0.1354
     45  NH2      261.9880  182.3420  169.8790 N.pl3 118  ARG118      0.1354
     46  N        260.7410  187.2030  160.5690 N.3   144  LEU144     -0.1231
     47  CA       259.3470  186.7870  160.4000 C.3   144  LEU144      0.1693
     48  C        259.2080  185.3490  160.8480 C.2   144  LEU144      0.2593
     49  O        259.9360  184.4630  160.3870 O.2   144  LEU144     -0.2718
     50  CB       258.8750  186.8720  158.9490 C.3   144  LEU144      0.0284
     51  CG       258.0220  188.0450  158.5110 C.3   144  LEU144      0.0019
     52  CD1      256.5620  187.9730  159.0130 C.3   144  LEU144      0.0001
     53  CD2      258.7650  189.2690  158.9860 C.3   144  LEU144      0.0001
     54  N        258.2220  185.1150  161.7020 N.am  145  GLY145     -0.1942
     55  CA       257.9430  183.7730  162.1430 C.3   145  GLY145      0.2014
     56  C        258.9220  183.4390  163.2390 C.2   145  GLY145      0.2640
     57  O        259.5570  182.3830  163.2100 O.2   145  GLY145     -0.2714
     58  N        259.1450  184.3740  164.1550 N.am  146  SER146     -0.1935
     59  CA       260.0940  184.0770  165.2180 C.3   146  SER146      0.2055
     60  C        259.5360  183.5310  166.5240 C.2   146  SER146      0.2644
     61  O        260.2810  182.9730  167.3320 O.2   146  SER146     -0.2714
     62  CB       260.9150  185.3170  165.5220 C.3   146  SER146      0.2130
     63  OG       262.1810  184.9300  166.0100 O.3   146  SER146     -0.2179
     64  N        258.2380  183.6900  166.7300 N.am  147  GLY147     -0.1939
     65  CA       257.6010  183.2180  167.9390 C.3   147  GLY147      0.2014
     66  C        257.4600  184.4360  168.8220 C.2   147  GLY147      0.2639
     67  O        257.3410  184.3200  170.0400 O.2   147  GLY147     -0.2714
     68  N        257.4670  185.6110  168.2020 N.am  148  LYS148     -0.1963
     69  CA       257.3550  186.8670  168.9320 C.3   148  LYS148      0.1728
     70  C        256.0430  186.9600  169.7060 C.2   148  LYS148      0.2617
     71  O        256.0320  187.3350  170.8790 O.2   148  LYS148     -0.2715
     72  CB       257.4830  188.0550  167.9750 C.3   148  LYS148      0.0311
     73  CG       258.6670  187.9630  167.0270 C.3   148  LYS148      0.0038
     74  CD       258.5110  188.9170  165.8540 C.3   148  LYS148      0.0206
     75  CE       257.9060  188.2150  164.6480 C.3   148  LYS148      0.1093
     76  NZ       256.6520  188.8760  164.1920 N.3   148  LYS148     -0.1314
     77  N        254.9400  186.6210  169.0470 N.am  149  THR149     -0.1937
     78  CA       253.6350  186.7010  169.6710 C.3   149  THR149      0.2028
     79  C        253.4540  185.5480  170.6490 C.2   149  THR149      0.2642
     80  O        252.8400  185.7410  171.6790 O.2   149  THR149     -0.2714
     81  CB       252.4660  186.7200  168.6490 C.3   149  THR149      0.1808
     82  OG1      251.2370  186.9230  169.3480 O.3   149  THR149     -0.2208
     83  CG2      252.3350  185.4350  167.9100 C.3   149  THR149      0.0379
     84  N        253.8980  184.3420  170.3020 N.am  150  TRP150     -0.1959
     85  CA       253.7690  183.2140  171.2230 C.3   150  TRP150      0.1771
     86  C        254.5570  183.5220  172.5000 C.2   150  TRP150      0.2619
     87  O        254.0440  183.2550  173.5800 O.2   150  TRP150     -0.2715
     88  CB       254.1350  181.8990  170.5350 C.3   150  TRP150      0.0590
     89  CG       252.9510  181.4940  169.6560 C.ar  150  TRP150      0.0006
     90  CD1      252.1310  182.3460  168.9770 C.ar  150  TRP150      0.0946
     91  CD2      252.4170  180.1750  169.4340 C.ar  150  TRP150      0.0152
     92  NE1      251.1470  181.6500  168.3200 N.ar  150  TRP150     -0.2442
     93  CE2      251.2950  180.3170  168.5870 C.ar  150  TRP150      0.0810
     94  CE3      252.7810  178.8940  169.8550 C.ar  150  TRP150      0.0012
     95  CZ2      250.5400  179.2310  168.1560 C.ar  150  TRP150      0.0191
     96  CZ3      252.0270  177.8100  169.4140 C.ar  150  TRP150      0.0001
     97  CH2      250.9280  177.9890  168.5660 C.ar  150  TRP150      0.0015
     98  N        255.8140  183.9650  172.4020 N.am  151  VAL151     -0.1977
     99  CA       256.5870  184.2320  173.6230 C.3   151  VAL151      0.1596
    100  C        255.8070  185.2440  174.4510 C.2   151  VAL151      0.2287
    101  O        255.6840  185.1060  175.6680 O.2   151  VAL151     -0.2864
    102  CB       257.9990  184.7920  173.3630 C.3   151  VAL151      0.0276
    103  CG1      258.6310  185.2870  174.6740 C.3   151  VAL151      0.0022
    104  CG2      258.8630  183.7750  172.6420 C.3   151  VAL151      0.0022
    105  N        252.4870  192.7170  165.9700 N.3   237  ASN237     -0.1240
    106  CA       252.7460  192.9800  164.5830 C.3   237  ASN237      0.1653
    107  C        252.5960  194.4550  164.2370 C.2   237  ASN237      0.2266
    108  O        252.0190  194.7910  163.2090 O.2   237  ASN237     -0.2867
    109  CB       251.7920  192.1500  163.7130 C.3   237  ASN237      0.1155
    110  CG       251.6900  190.7030  164.1500 C.2   237  ASN237      0.2627
    111  OD1      252.0770  190.3500  165.2490 O.2   237  ASN237     -0.2716
    112  ND2      251.1600  189.8630  163.2820 N.am  237  ASN237     -0.0877
    113  N        255.1690  193.9620  169.5920 N.3   256  THR256     -0.1218
    114  CA       256.0380  193.0280  168.9270 C.3   256  THR256      0.1862
    115  C        255.9370  193.2740  167.4320 C.2   256  THR256      0.2287
    116  O        254.8180  193.2890  166.8910 O.2   256  THR256     -0.2866
    117  CB       255.7010  191.5880  169.2780 C.3   256  THR256      0.1770
    118  OG1      256.1030  190.7510  168.1970 O.3   256  THR256     -0.2211
    119  CG2      254.2220  191.4230  169.5020 C.3   256  THR256      0.0375
    120  N        265.5440  179.1170  169.6120 N.3   283  LEU283     -0.1245
    121  CA       264.9440  178.0690  170.3810 C.3   283  LEU283      0.1561
    122  C        266.0240  177.1250  170.7710 C.2   283  LEU283      0.2260
    123  O        266.9630  176.9410  170.0310 O.2   283  LEU283     -0.2867
    124  CB       263.8710  177.4010  169.5710 C.3   283  LEU283      0.0270
    125  CG       262.6090  178.2330  169.7680 C.3   283  LEU283      0.0019
    126  CD1      262.4940  179.4140  168.8170 C.3   283  LEU283      0.0001
    127  CD2      261.3950  177.3480  169.6680 C.3   283  LEU283      0.0001
    128  N        259.7080  171.2130  169.8810 N.3   291  LEU291     -0.1245
    129  CA       258.6070  171.8410  169.1950 C.3   291  LEU291      0.1561
    130  C        258.1960  170.8680  168.1080 C.2   291  LEU291      0.2260
    131  O        256.9980  170.6500  167.8580 O.2   291  LEU291     -0.2867
    132  CB       259.0740  173.1860  168.6230 C.3   291  LEU291      0.0270
    133  CG       258.2800  174.0190  167.6280 C.3   291  LEU291      0.0019
    134  CD1      256.9390  174.2260  168.2160 C.3   291  LEU291      0.0001
    135  CD2      258.9430  175.3630  167.3420 C.3   291  LEU291      0.0001
    136  N        253.3180  169.0920  167.1630 N.3   295  TYR295     -0.1241
    137  CA       252.5790  168.7510  165.9470 C.3   295  TYR295      0.1605
    138  C        252.8710  167.2970  165.6840 C.2   295  TYR295      0.2264
    139  O        252.0290  166.5440  165.1860 O.2   295  TYR295     -0.2867
    140  CB       252.9830  169.6080  164.7440 C.3   295  TYR295      0.0534
    141  CG       253.6640  170.8690  165.1350 C.ar  295  TYR295     -0.0201
    142  CD1      254.9300  170.8340  165.6590 C.ar  295  TYR295     -0.0009
    143  CD2      253.0220  172.0770  165.0690 C.ar  295  TYR295     -0.0009
    144  CE1      255.5680  171.9810  166.0660 C.ar  295  TYR295      0.0417
    145  CE2      253.6490  173.2360  165.4720 C.ar  295  TYR295      0.0417
    146  CZ       254.9210  173.1790  165.9670 C.ar  295  TYR295      0.1957
    147  OH       255.5710  174.3060  166.3680 O.3   295  TYR295     -0.2866
    148  N        260.5050  179.1320  164.4280 N.3   312  PRO312     -0.2102
    149  CA       259.3190  178.3740  164.8190 C.3   312  PRO312      0.1504
    150  C        258.2980  178.3440  163.6930 C.2   312  PRO312      0.2575
    151  O        257.5400  177.3750  163.6140 O.2   312  PRO312     -0.2718
    152  CB       258.7920  179.1380  166.0340 C.3   312  PRO312      0.0282
    153  CG       259.9740  179.8270  166.5950 C.3   312  PRO312      0.0208
    154  CD       260.9190  180.1020  165.4550 C.3   312  PRO312      0.0893
    155  N        258.2270  179.3920  162.8750 N.am  313  ARG313     -0.1980
    156  CA       257.2450  179.3610  161.8100 C.3   313  ARG313      0.1597
    157  C        257.6720  178.3090  160.7910 C.2   313  ARG313      0.2287
    158  O        256.8500  177.5140  160.3200 O.2   313  ARG313     -0.2864
    159  CB       257.1110  180.7210  161.1410 C.3   313  ARG313      0.0334
    160  CG       255.8000  181.4320  161.4000 C.3   313  ARG313      0.0492
    161  CD       254.6570  180.4700  161.2940 C.3   313  ARG313      0.2205
    162  NE       254.3470  180.1820  159.9020 N.pl3 313  ARG313     -0.0865
    163  CZ       254.1130  181.1010  158.9730 C.cat 313  ARG313      0.5346
    164  NH1      254.1440  182.3900  159.2720 N.pl3 313  ARG313      0.1354
    165  NH2      253.8370  180.7180  157.7400 N.pl3 313  ARG313      0.1354
    166  N        257.3080  174.8170  162.3180 N.3   316  SER316     -0.1217
    167  CA       255.9820  174.2750  162.4710 C.3   316  SER316      0.1889
    168  C        255.2530  174.0660  161.1680 C.2   316  SER316      0.2288
    169  O        254.4290  173.1700  161.0730 O.2   316  SER316     -0.2866
    170  CB       255.1530  175.2170  163.3290 C.3   316  SER316      0.2089
    171  OG       255.9640  175.7830  164.3370 O.3   316  SER316     -0.2183
@<TRIPOS>BOND
     1   165   163    1
     2    51    50    1
     3    51    53    1
     4    51    52    1
     5    50    47    1
     6   163   164    1
     7   163   162    2
     8   162   161    1
     9   158   157    2
    10    49    48    2
    11    47    46    1
    12    47    48    1
    13   157   156    1
    14    48    54   am
    15   169   168    2
    16   159   160    1
    17   159   156    1
    18   168   167    1
    19   161   160    1
    20    54    55    1
    21   156   155    1
    22    55    56    1
    23   166   167    1
    24   167   170    1
    25   155   150   am
    26   108   107    2
    27    57    56    2
    28    56    58   am
    29   112   110   am
    30   170   171    1
    31   151   150    2
    32   150   149    1
    33   109   110    1
    34   109   106    1
    35   110   111    2
    36    58    59    1
    37    76    75    1
    38   107   106    1
    39   148   149    1
    40   148   154    1
    41   106   105    1
    42    75    74    1
    43   140   141    1
    44   140   137    1
    45   149   152    1
    46   143   141   ar
    47   143   145   ar
    48   141   142   ar
    49   139   138    2
    50    59    62    1
    51    59    60    1
    52    19    18    1
    53   154   153    1
    54   145   146   ar
    55    62    63    1
    56   142   144   ar
    57   138   137    1
    58    74    73    1
    59   137   136    1
    60   146   144   ar
    61   146   147    1
    62   152   153    1
    63     6     5    1
    64    17    18   ar
    65    17    15   ar
    66    18    16   ar
    67    60    64   am
    68    60    61    2
    69    64    65    1
    70   116   115    2
    71     7     5    1
    72    15    13   ar
    73    73    72    1
    74     5     2    1
    75    16    14   ar
    76   135   133    1
    77   115   114    1
    78   133   134    1
    79   133   132    1
    80    13    14   ar
    81    13    12    1
    82   131   130    2
    83    83    81    1
    84    65    66    1
    85    72    69    1
    86   130   129    1
    87    95    97   ar
    88    95    93   ar
    89   118   117    1
    90    68    66   am
    91    68    69    1
    92    92    93   ar
    93    92    90   ar
    94     2     1    1
    95     2     3    1
    96    97    96   ar
    97    93    91   ar
    98   132   129    1
    99    81    82    1
   100    81    78    1
   101    12     9    1
   102   126   125    1
   103    66    67    2
   104   114   117    1
   105   114   113    1
   106    69    70    1
   107    90    89   ar
   108    77    78    1
   109    77    70   am
   110   129   128    1
   111   117   119    1
   112     4     3    2
   113    96    94   ar
   114    91    89   ar
   115    91    94   ar
   116   124   125    1
   117   124   121    1
   118   120   121    1
   119    89    88    1
   120   127   125    1
   121    78    79    1
   122    70    71    2
   123    45    43    1
   124   123   122    2
   125    44    43    1
   126    11    10    2
   127     9    10    1
   128     9     8    1
   129    84    79   am
   130    84    85    1
   131   121   122    1
   132    88    85    1
   133    43    42    2
   134    79    80    2
   135    10    20   am
   136    85    86    1
   137    34    32    1
   138    42    41    1
   139    20    21    1
   140    32    33    1
   141    32    29    1
   142    98    86   am
   143    98    99    1
   144    86    87    2
   145    21    22    1
   146    21    24    1
   147   104   102    1
   148    41    40    1
   149    22    23    2
   150    22    28   am
   151    28    29    1
   152   102    99    1
   153   102   103    1
   154    29    30    1
   155    99   100    1
   156    24    25    1
   157    40    39    1
   158    26    25    2
   159   100   101    2
   160    31    30    2
   161    25    27   am
   162    39    36    1
   163    36    35    1
   164    36    37    1
   165    37    38    2
