@<TRIPOS>MOLECULE
tmp/3ja8F01.pdb
 117 114 0 0 0
SMALL
GASTEIGER

@<TRIPOS>ATOM
      1  N        176.8810  262.7280  233.2560 N.3   381  GLU381     -0.1231
      2  CA       178.3000  262.6130  233.5440 C.3   381  GLU381      0.1699
      3  C        179.0270  263.9450  233.4770 C.2   381  GLU381      0.2592
      4  O        180.0880  264.0960  234.0770 O.2   381  GLU381     -0.2718
      5  CB       178.9690  261.6070  232.6070 C.3   381  GLU381      0.0402
      6  CG       178.5930  260.1570  232.8780 C.3   381  GLU381      0.1161
      7  CD       177.3040  259.7450  232.2070 C.2   381  GLU381      0.3649
      8  OE1      176.6850  260.6000  231.5400 O.co2 381  GLU381     -0.2457
      9  OE2      176.9120  258.5670  232.3490 O.co2 381  GLU381     -0.2457
     10  N        178.4620  264.9160  232.7700 N.am  382  ILE382     -0.1966
     11  CA       179.0890  266.2230  232.7230 C.3   382  ILE382      0.1727
     12  C        178.2270  267.2540  233.4260 C.2   382  ILE382      0.2616
     13  O        177.0130  267.0860  233.5530 O.2   382  ILE382     -0.2715
     14  CB       179.3410  266.6990  231.3000 C.3   382  ILE382      0.0290
     15  CG1      178.0200  266.9480  230.6040 C.3   382  ILE382      0.0022
     16  CG2      180.1090  265.6620  230.5300 C.3   382  ILE382      0.0023
     17  CD1      178.1810  267.7120  229.3520 C.3   382  ILE382      0.0001
     18  N        178.8690  268.3160  233.8960 N.am  383  TYR383     -0.1974
     19  CA       178.1710  269.3780  234.6010 C.3   383  TYR383      0.1639
     20  C        177.8260  270.5500  233.7010 C.2   383  TYR383      0.2290
     21  O        178.5980  270.9190  232.8190 O.2   383  TYR383     -0.2864
     22  CB       179.0020  269.8740  235.7810 C.3   383  TYR383      0.0560
     23  CG       178.4420  271.1310  236.3960 C.ar  383  TYR383     -0.0198
     24  CD1      177.2880  271.0970  237.1600 C.ar  383  TYR383     -0.0009
     25  CD2      179.0680  272.3530  236.2110 C.ar  383  TYR383     -0.0009
     26  CE1      176.7720  272.2420  237.7150 C.ar  383  TYR383      0.0417
     27  CE2      178.5600  273.5020  236.7640 C.ar  383  TYR383      0.0417
     28  CZ       177.4130  273.4420  237.5170 C.ar  383  TYR383      0.1957
     29  OH       176.9040  274.5900  238.0710 O.3   383  TYR383     -0.2866
     30  N        175.2860  273.1840  231.2200 N.3   385  ASN385     -0.1240
     31  CA       174.7310  273.1400  229.8750 C.3   385  ASN385      0.1653
     32  C        173.3690  272.4840  229.8140 C.2   385  ASN385      0.2266
     33  O        173.0970  271.7240  228.8910 O.2   385  ASN385     -0.2867
     34  CB       175.6760  272.3970  228.9410 C.3   385  ASN385      0.1155
     35  CG       177.0290  273.0360  228.8680 C.2   385  ASN385      0.2627
     36  OD1      178.0510  272.3650  229.0050 O.2   385  ASN385     -0.2716
     37  ND2      177.0530  274.3450  228.6580 N.am  385  ASN385     -0.0877
     38  N        188.6900  275.3250  223.8990 N.3   422  PRO422     -0.2102
     39  CA       189.0830  273.9430  223.6150 C.3   422  PRO422      0.1504
     40  C        188.3470  272.9540  224.5090 C.2   422  PRO422      0.2576
     41  O        188.1550  271.8010  224.1340 O.2   422  PRO422     -0.2718
     42  CB       190.5860  273.9400  223.8950 C.3   422  PRO422      0.0282
     43  CG       190.7770  274.9910  224.8840 C.3   422  PRO422      0.0208
     44  CD       189.7730  276.0610  224.5680 C.3   422  PRO422      0.0893
     45  N        187.9410  273.4210  225.6840 N.am  423  GLY423     -0.1943
     46  CA       187.3570  272.5820  226.7160 C.3   423  GLY423      0.2014
     47  C        185.8510  272.5350  226.6060 C.2   423  GLY423      0.2639
     48  O        185.3230  272.5040  225.4990 O.2   423  GLY423     -0.2714
     49  N        185.1810  272.4720  227.7550 N.am  424  VAL424     -0.1963
     50  CA       183.7190  272.4950  227.8760 C.3   424  VAL424      0.1727
     51  C        183.1610  271.0990  227.5890 C.2   424  VAL424      0.2616
     52  O        181.9780  270.8290  227.7890 O.2   424  VAL424     -0.2715
     53  CB       183.0720  273.5560  226.9490 C.3   424  VAL424      0.0290
     54  CG1      181.5730  273.5990  227.1130 C.3   424  VAL424      0.0023
     55  CG2      183.6530  274.9270  227.2270 C.3   424  VAL424      0.0023
     56  N        184.0400  270.2020  227.1600 N.am  425  ALA425     -0.1963
     57  CA       183.7050  268.7970  226.9720 C.3   425  ALA425      0.1728
     58  C        182.5530  268.5900  226.0260 C.2   425  ALA425      0.2616
     59  O        181.5950  267.9130  226.3660 O.2   425  ALA425     -0.2715
     60  CB       183.3950  268.1430  228.2980 C.3   425  ALA425      0.0334
     61  N        182.6540  269.1600  224.8340 N.am  426  LYS426     -0.1963
     62  CA       181.5740  269.0750  223.8640 C.3   426  LYS426      0.1728
     63  C        181.3770  267.6740  223.3000 C.2   426  LYS426      0.2617
     64  O        180.2510  267.2430  223.0960 O.2   426  LYS426     -0.2715
     65  CB       181.8190  270.0580  222.7310 C.3   426  LYS426      0.0311
     66  CG       183.1170  269.8460  222.0050 C.3   426  LYS426      0.0038
     67  CD       183.2610  270.8820  220.9400 C.3   426  LYS426      0.0206
     68  CE       183.3240  272.2410  221.5760 C.3   426  LYS426      0.1093
     69  NZ       183.4180  273.3050  220.5440 N.3   426  LYS426     -0.1314
     70  N        182.4670  266.9570  223.0650 N.am  427  SER427     -0.1936
     71  CA       182.3940  265.6440  222.4370 C.3   427  SER427      0.2055
     72  C        181.8890  264.5550  223.3610 C.2   427  SER427      0.2642
     73  O        181.3940  263.5220  222.9090 O.2   427  SER427     -0.2714
     74  CB       183.7580  265.2410  221.9050 C.3   427  SER427      0.2130
     75  OG       183.7100  263.9220  221.4020 O.3   427  SER427     -0.2179
     76  N        182.0190  264.7740  224.6590 N.am  428  GLN428     -0.1976
     77  CA       181.5300  263.7950  225.6050 C.3   428  GLN428      0.1601
     78  C        180.0260  263.6920  225.5140 C.2   428  GLN428      0.2287
     79  O        179.4570  262.6420  225.8060 O.2   428  GLN428     -0.2864
     80  CB       181.9550  264.1410  227.0200 C.3   428  GLN428      0.0394
     81  CG       183.4410  264.0660  227.2100 C.3   428  GLN428      0.0908
     82  CD       183.9630  262.6760  226.9700 C.2   428  GLN428      0.2608
     83  OE1      184.5230  262.3890  225.9170 O.2   428  GLN428     -0.2717
     84  NE2      183.7700  261.7970  227.9390 N.am  428  GLN428     -0.0878
     85  N        185.3340  273.1310  216.3200 N.3   528  ASN528     -0.1240
     86  CA       186.0930  274.1900  216.9690 C.3   528  ASN528      0.1653
     87  C        186.1600  275.4430  216.1120 C.2   528  ASN528      0.2266
     88  O        186.4130  275.3570  214.9200 O.2   528  ASN528     -0.2867
     89  CB       187.5030  273.7170  217.2960 C.3   528  ASN528      0.1155
     90  CG       187.5200  272.6310  218.3410 C.2   528  ASN528      0.2627
     91  OD1      186.5550  272.4500  219.0780 O.2   528  ASN528     -0.2716
     92  ND2      188.6300  271.9130  218.4290 N.am  528  ASN528     -0.0877
     93  N        181.6430  273.6640  239.4300 N.3   572  LEU572     -0.1245
     94  CA       182.1820  272.6890  238.4900 C.3   572  LEU572      0.1561
     95  C        183.2280  271.8120  239.1560 C.2   572  LEU572      0.2260
     96  O        183.1280  270.5890  239.1290 O.2   572  LEU572     -0.2867
     97  CB       182.7950  273.3900  237.2810 C.3   572  LEU572      0.0270
     98  CG       183.2800  272.5160  236.1280 C.3   572  LEU572      0.0019
     99  CD1      183.1090  273.2750  234.8370 C.3   572  LEU572      0.0001
    100  CD2      184.7280  272.1050  236.2930 C.3   572  LEU572      0.0001
    101  N        182.0070  269.3810  241.2640 N.3   575  HIS575     -0.1226
    102  CA       181.3510  268.2990  240.5510 C.3   575  HIS575      0.1752
    103  C        182.3550  267.2570  240.0770 C.2   575  HIS575      0.2595
    104  O        182.1970  266.0620  240.3240 O.2   575  HIS575     -0.2718
    105  CB       180.5750  268.8490  239.3660 C.3   575  HIS575      0.0759
    106  CG       179.6310  267.8670  238.7630 C.ar  575  HIS575      0.0818
    107  ND1      180.0370  266.8810  237.8930 N.ar  575  HIS575     -0.2268
    108  CD2      178.2940  267.7160  238.9070 C.ar  575  HIS575      0.1154
    109  CE1      178.9900  266.1670  237.5230 C.ar  575  HIS575      0.1986
    110  NE2      177.9200  266.6510  238.1270 N.ar  575  HIS575     -0.2212
    111  N        183.4010  267.7220  239.4080 N.am  576  VAL576     -0.1980
    112  CA       184.3770  266.8320  238.7990 C.3   576  VAL576      0.1595
    113  C        185.2910  266.2150  239.8580 C.2   576  VAL576      0.2287
    114  O        185.9520  265.2120  239.6140 O.2   576  VAL576     -0.2864
    115  CB       185.2110  267.5800  237.7420 C.3   576  VAL576      0.0276
    116  CG1      186.2050  266.6570  237.0680 C.3   576  VAL576      0.0022
    117  CG2      184.3060  268.1980  236.7070 C.3   576  VAL576      0.0022
@<TRIPOS>BOND
     1    88    87    2
     2    87    86    1
     3    85    86    1
     4    86    89    1
     5    89    90    1
     6    90    92   am
     7    90    91    2
     8    69    68    1
     9    67    68    1
    10    67    66    1
    11    75    74    1
    12    74    71    1
    13    66    65    1
    14    71    70    1
    15    71    72    1
    16    65    62    1
    17    73    72    2
    18    70    63   am
    19    64    63    2
    20    63    62    1
    21    72    76   am
    22    39    42    1
    23    39    38    1
    24    39    40    1
    25    62    61    1
    26    42    43    1
    27    38    44    1
    28    41    40    2
    29    40    45   am
    30    44    43    1
    31    76    77    1
    32    61    58   am
    33    48    47    2
    34    78    77    1
    35    78    79    2
    36    77    80    1
    37    45    46    1
    38    83    82    2
    39    58    59    2
    40    58    57    1
    41    47    46    1
    42    47    49   am
    43    53    54    1
    44    53    55    1
    45    53    50    1
    46    82    81    1
    47    82    84   am
    48    57    56    1
    49    57    60    1
    50    80    81    1
    51    56    51   am
    52    51    52    2
    53    51    50    1
    54    49    50    1
    55    37    35   am
    56    35    34    1
    57    35    36    2
    58    33    32    2
    59    34    31    1
    60    17    15    1
    61    32    31    1
    62    31    30    1
    63    16    14    1
    64    15    14    1
    65    14    11    1
    66     8     7   ar
    67     7     9   ar
    68     7     6    1
    69     5     6    1
    70     5     2    1
    71    11    10    1
    72    11    12    1
    73    10     3   am
    74    21    20    2
    75     1     2    1
    76    12    13    2
    77    12    18   am
    78     3     2    1
    79     3     4    2
    80    20    19    1
    81    18    19    1
    82    19    22    1
    83    99    98    1
    84    22    23    1
    85    98   100    1
    86    98    97    1
    87    25    23   ar
    88    25    27   ar
    89    23    24   ar
    90   117   115    1
    91    27    28   ar
    92   116   115    1
    93    24    26   ar
    94    97    94    1
    95    28    26   ar
    96    28    29    1
    97   109   107   ar
    98   109   110   ar
    99   115   112    1
   100   107   106   ar
   101   110   108   ar
   102    94    95    1
   103    94    93    1
   104   106   108   ar
   105   106   105    1
   106   112   111    1
   107   112   113    1
   108    96    95    2
   109   105   102    1
   110   111   103   am
   111   114   113    2
   112   103   104    2
   113   103   102    1
   114   102   101    1
