@<TRIPOS>MOLECULE
tmp/3ja8F00.pdb
 83 77 0 0 0
SMALL
GASTEIGER

@<TRIPOS>ATOM
      1  N        156.2920  265.1030  198.0080 N.3   408  MET408     -0.1245
      2  CA       157.6790  265.3030  198.3790 C.3   408  MET408      0.1570
      3  C        157.7170  265.4080  199.8850 C.2   408  MET408      0.2261
      4  O        156.6810  265.5750  200.5190 O.2   408  MET408     -0.2867
      5  CB       158.2500  266.5550  197.7250 C.3   408  MET408      0.0387
      6  CG       157.5880  267.8330  198.1860 C.3   408  MET408      0.0595
      7  SD       158.0230  269.2290  197.1360 S.3   408  MET408     -0.1393
      8  CE       156.8630  269.0030  195.7930 C.3   408  MET408      0.0692
      9  N        159.4530  266.8400  203.6790 N.3   410  ILE410     -0.1245
     10  CA       160.2470  267.8230  204.3880 C.3   410  ILE410      0.1561
     11  C        160.6760  267.2190  205.7190 C.2   410  ILE410      0.2260
     12  O        159.8460  266.7860  206.5110 O.2   410  ILE410     -0.2867
     13  CB       159.4780  269.1410  204.5810 C.3   410  ILE410      0.0252
     14  CG1      158.1550  268.9070  205.2960 C.3   410  ILE410      0.0019
     15  CG2      159.1980  269.7900  203.2430 C.3   410  ILE410      0.0019
     16  CD1      157.4310  270.1780  205.6380 C.3   410  ILE410      0.0001
     17  N        176.6020  268.4480  203.2720 N.3   498  HIS498     -0.1241
     18  CA       175.8720  269.6120  202.7920 C.3   498  HIS498      0.1621
     19  C        174.6290  269.1710  202.0490 C.2   498  HIS498      0.2264
     20  O        173.6120  269.8510  202.0670 O.2   498  HIS498     -0.2867
     21  CB       176.7720  270.4500  201.8850 C.3   498  HIS498      0.0745
     22  CG       176.1550  271.7200  201.3960 C.ar  498  HIS498      0.0817
     23  ND1      176.6700  272.4260  200.3320 N.ar  498  HIS498     -0.2268
     24  CD2      175.0850  272.4230  201.8320 C.ar  498  HIS498      0.1154
     25  CE1      175.9360  273.5040  200.1240 C.ar  498  HIS498      0.1986
     26  NE2      174.9670  273.5250  201.0200 N.ar  498  HIS498     -0.2212
     27  N        169.0250  267.6320  202.6530 N.3   502  GLU502     -0.1245
     28  CA       167.8910  267.5170  201.7450 C.3   502  GLU502      0.1567
     29  C        167.2540  266.1790  202.1160 C.2   502  GLU502      0.2260
     30  O        166.2890  265.7030  201.5240 O.2   502  GLU502     -0.2867
     31  CB       168.3840  267.5930  200.2950 C.3   502  GLU502      0.0388
     32  CG       167.3500  267.6480  199.1940 C.3   502  GLU502      0.1160
     33  CD       166.9170  266.2880  198.7140 C.2   502  GLU502      0.3649
     34  OE1      167.6710  265.3190  198.9170 O.co2 502  GLU502     -0.2457
     35  OE2      165.8320  266.1890  198.1100 O.co2 502  GLU502     -0.2457
     36  N        176.1450  278.6050  203.4920 N.3   549  ALA549     -0.1245
     37  CA       175.2970  277.7030  202.7420 C.3   549  ALA549      0.1562
     38  C        174.9170  276.5290  203.6110 C.2   549  ALA549      0.2260
     39  O        173.8250  275.9830  203.4970 O.2   549  ALA549     -0.2867
     40  CB       176.0000  277.2310  201.4930 C.3   549  ALA549      0.0290
     41  N        172.7330  277.5020  207.2990 N.3   552  SER552     -0.1202
     42  CA       171.3090  277.7330  207.1310 C.3   552  SER552      0.2020
     43  C        170.5530  276.4350  207.3260 C.2   552  SER552      0.2618
     44  O        169.3710  276.4330  207.6460 O.2   552  SER552     -0.2717
     45  CB       171.0180  278.3060  205.7520 C.3   552  SER552      0.2103
     46  OG       171.3820  277.3780  204.7490 O.3   552  SER552     -0.2182
     47  N        171.2560  275.3290  207.1290 N.am  553  ARG553     -0.1979
     48  CA       170.6660  274.0120  207.2630 C.3   553  ARG553      0.1597
     49  C        170.5100  273.6480  208.7200 C.2   553  ARG553      0.2287
     50  O        169.4590  273.1740  209.1390 O.2   553  ARG553     -0.2864
     51  CB       171.5240  272.9830  206.5500 C.3   553  ARG553      0.0334
     52  CG       171.5920  273.2110  205.0690 C.3   553  ARG553      0.0492
     53  CD       172.4280  272.1680  204.3910 C.3   553  ARG553      0.2205
     54  NE       172.4200  272.3590  202.9530 N.pl3 553  ARG553     -0.0865
     55  CZ       171.4480  271.9310  202.1620 C.cat 553  ARG553      0.5346
     56  NH1      170.4070  271.2970  202.6810 N.pl3 553  ARG553      0.1354
     57  NH2      171.5130  272.1370  200.8570 N.pl3 553  ARG553      0.1354
     58  N        164.0130  280.9130  205.8150 N.3   646  PRO646     -0.2102
     59  CA       162.8200  280.1360  206.1660 C.3   646  PRO646      0.1504
     60  C        163.1000  278.7940  206.8300 C.2   646  PRO646      0.2575
     61  O        162.2280  278.2880  207.5250 O.2   646  PRO646     -0.2718
     62  CB       162.1310  279.9310  204.8110 C.3   646  PRO646      0.0282
     63  CG       163.1950  280.0880  203.8160 C.3   646  PRO646      0.0208
     64  CD       164.0400  281.1860  204.3690 C.3   646  PRO646      0.0893
     65  N        164.2850  278.2340  206.6350 N.am  647  ARG647     -0.1980
     66  CA       164.6340  276.9890  207.3040 C.3   647  ARG647      0.1597
     67  C        164.6950  277.1350  208.8160 C.2   647  ARG647      0.2287
     68  O        164.6280  276.1410  209.5300 O.2   647  ARG647     -0.2864
     69  CB       165.9630  276.4490  206.7910 C.3   647  ARG647      0.0334
     70  CG       165.8840  275.8340  205.4150 C.3   647  ARG647      0.0492
     71  CD       167.2350  275.3140  204.9840 C.3   647  ARG647      0.2205
     72  NE       167.1780  274.6450  203.6940 N.pl3 647  ARG647     -0.0865
     73  CZ       168.2460  274.2250  203.0300 C.cat 647  ARG647      0.5346
     74  NH1      169.4560  274.4270  203.5250 N.pl3 647  ARG647      0.1354
     75  NH2      168.1080  273.6170  201.8640 N.pl3 647  ARG647      0.1354
     76  N        160.8170  276.8780  209.6100 N.3   650  LEU650     -0.1245
     77  CA       160.3970  275.5020  209.4900 C.3   650  LEU650      0.1561
     78  C        161.0640  274.7350  210.6070 C.2   650  LEU650      0.2260
     79  O        160.4840  273.8340  211.2030 O.2   650  LEU650     -0.2867
     80  CB       160.7690  274.9430  208.1220 C.3   650  LEU650      0.0270
     81  CG       160.1130  273.6250  207.7350 C.3   650  LEU650      0.0019
     82  CD1      159.8920  273.6120  206.2390 C.3   650  LEU650      0.0001
     83  CD2      160.9600  272.4400  208.1670 C.3   650  LEU650      0.0001
@<TRIPOS>BOND
     1     8     7    1
     2     7     6    1
     3     5     6    1
     4     5     2    1
     5     1     2    1
     6    35    33   ar
     7     2     3    1
     8    33    34   ar
     9    33    32    1
    10    32    31    1
    11     3     4    2
    12    25    23   ar
    13    25    26   ar
    14    31    28    1
    15    23    22   ar
    16    57    55    1
    17    26    24   ar
    18    22    24   ar
    19    22    21    1
    20    40    37    1
    21    30    29    2
    22    28    29    1
    23    28    27    1
    24    75    73    1
    25    21    18    1
    26    19    20    2
    27    19    18    1
    28    55    56    1
    29    55    54    2
    30    37    36    1
    31    37    38    1
    32    18    17    1
    33    54    53    1
    34    73    74    1
    35    73    72    2
    36    15    13    1
    37    39    38    2
    38     9    10    1
    39    72    71    1
    40    63    64    1
    41    63    62    1
    42    64    58    1
    43    10    13    1
    44    10    11    1
    45    53    52    1
    46    13    14    1
    47    46    45    1
    48    62    59    1
    49    71    70    1
    50    52    51    1
    51    14    16    1
    52    70    69    1
    53    11    12    2
    54    45    42    1
    55    58    59    1
    56    59    60    1
    57    82    81    1
    58    51    48    1
    59    65    60   am
    60    65    66    1
    61    69    66    1
    62    60    61    2
    63    47    48    1
    64    47    43   am
    65    42    41    1
    66    42    43    1
    67    48    49    1
    68    66    67    1
    69    43    44    2
    70    81    80    1
    71    81    83    1
    72    80    77    1
    73    49    50    2
    74    67    68    2
    75    77    76    1
    76    77    78    1
    77    78    79    2
