@<TRIPOS>MOLECULE
tmp/3jabG00.pdb
 127 120 0 0 0
SMALL
GASTEIGER

@<TRIPOS>ATOM
      1  N         10.2540   26.8940   36.6320 N.3    81  TYR81      -0.1227
      2  CA         9.5930   25.6120   36.8990 C.3    81  TYR81       0.1736
      3  C          8.0870   25.7620   37.1110 C.2    81  TYR81       0.2595
      4  O          7.2950   24.9350   36.6400 O.2    81  TYR81      -0.2718
      5  CB        10.2190   24.9030   38.1120 C.3    81  TYR81       0.0548
      6  CG         9.3960   23.7250   38.6390 C.ar   81  TYR81      -0.0200
      7  CD1        9.2770   22.5470   37.9070 C.ar   81  TYR81      -0.0009
      8  CD2        8.7520   23.7890   39.8700 C.ar   81  TYR81      -0.0009
      9  CE1        8.5300   21.4660   38.3810 C.ar   81  TYR81       0.0417
     10  CE2        8.0080   22.7200   40.3560 C.ar   81  TYR81       0.0417
     11  CZ         7.8940   21.5560   39.6070 C.ar   81  TYR81       0.1957
     12  OH         7.1480   20.4840   40.0850 O.3    81  TYR81      -0.2866
     13  N          7.7080   26.8190   37.8270 N.am   82  HIS82      -0.1975
     14  CA         6.3180   27.0490   38.2040 C.3    82  HIS82       0.1656
     15  C          5.5090   27.7060   37.0970 C.2    82  HIS82       0.2291
     16  O          4.8820   28.7480   37.3030 O.2    82  HIS82      -0.2864
     17  CB         6.2320   27.8770   39.4880 C.3    82  HIS82       0.0771
     18  CG         6.4600   27.0760   40.7320 C.ar   82  HIS82       0.0820
     19  ND1        7.5790   27.2220   41.5230 N.ar   82  HIS82      -0.2267
     20  CD2        5.7170   26.1020   41.3070 C.ar   82  HIS82       0.1154
     21  CE1        7.5120   26.3780   42.5350 C.ar   82  HIS82       0.1986
     22  NE2        6.3930   25.6840   42.4270 N.ar   82  HIS82      -0.2212
     23  N          3.7600   23.9000   51.5750 N.3   194  LEU194     -0.1245
     24  CA         4.6550   22.9380   52.1920 C.3   194  LEU194      0.1561
     25  C          4.6550   23.0260   53.7080 C.2   194  LEU194      0.2260
     26  O          4.9100   22.0400   54.4020 O.2   194  LEU194     -0.2867
     27  CB         6.0710   23.1570   51.6660 C.3   194  LEU194      0.0270
     28  CG         6.4540   22.4760   50.3520 C.3   194  LEU194      0.0019
     29  CD1        7.1430   21.1530   50.6010 C.3   194  LEU194      0.0001
     30  CD2        5.2230   22.2840   49.4630 C.3   194  LEU194      0.0001
     31  N          1.7520   17.4890   43.7400 N.3   233  ASP233     -0.1225
     32  CA         2.4050   18.7940   43.5880 C.3   233  ASP233      0.1805
     33  C          3.9120   18.6360   43.3750 C.2   233  ASP233      0.2597
     34  O          4.5470   19.4090   42.6500 O.2   233  ASP233     -0.2718
     35  CB         2.1130   19.6480   44.8340 C.3   233  ASP233      0.1424
     36  CG         2.6780   21.0520   44.7500 C.2   233  ASP233      0.3668
     37  OD1        3.0070   21.6190   45.8200 O.co2 233  ASP233     -0.2456
     38  OD2        2.7750   21.5870   43.6260 O.co2 233  ASP233     -0.2456
     39  N          4.4880   17.6160   43.9970 N.am  234  LEU234     -0.1979
     40  CA         5.9030   17.3420   43.7920 C.3   234  LEU234      0.1596
     41  C          6.1990   15.9320   43.2450 C.2   234  LEU234      0.2287
     42  O          7.2860   15.3930   43.4350 O.2   234  LEU234     -0.2864
     43  CB         6.7130   17.6790   45.0540 C.3   234  LEU234      0.0297
     44  CG         6.4930   16.9840   46.3980 C.3   234  LEU234      0.0022
     45  CD1        6.5490   17.9910   47.5430 C.3   234  LEU234      0.0001
     46  CD2        5.1970   16.2300   46.3920 C.3   234  LEU234      0.0001
     47  N          7.0290   15.1770   40.5500 N.3   236  ALA236     -0.1231
     48  CA         8.1540   15.2770   39.6330 C.3   236  ALA236      0.1694
     49  C          9.3330   14.4450   40.1280 C.2   236  ALA236      0.2591
     50  O         10.0920   13.8720   39.3480 O.2   236  ALA236     -0.2718
     51  CB         8.5550   16.7170   39.4800 C.3   236  ALA236      0.0304
     52  N          9.4600   14.3780   41.4430 N.am  237  ILE237     -0.1980
     53  CA        10.5520   13.6870   42.0860 C.3   237  ILE237      0.1595
     54  C         10.4540   12.1640   41.9390 C.2   237  ILE237      0.2287
     55  O         11.3800   11.4330   42.3100 O.2   237  ILE237     -0.2864
     56  CB        10.5550   14.0350   43.5630 C.3   237  ILE237      0.0276
     57  CG1       11.8910   13.6430   44.1980 C.3   237  ILE237      0.0022
     58  CG2        9.3630   13.3860   44.2390 C.3   237  ILE237      0.0022
     59  CD1       12.9530   14.7200   44.0800 C.3   237  ILE237      0.0001
     60  N         13.5710   13.3480   35.8000 N.3   244  GLN244     -0.1245
     61  CA        13.8680   13.9450   37.0900 C.3   244  GLN244      0.1566
     62  C         15.0970   14.8450   36.9540 C.2   244  GLN244      0.2260
     63  O         15.1040   15.9900   37.4080 O.2   244  GLN244     -0.2867
     64  CB        14.0900   12.8430   38.1240 C.3   244  GLN244      0.0367
     65  CG        14.9200   13.2650   39.3290 C.3   244  GLN244      0.0905
     66  CD        14.2530   14.3430   40.1640 C.2   244  GLN244      0.2608
     67  OE1       14.8820   14.9410   41.0270 O.2   244  GLN244     -0.2717
     68  NE2       12.9730   14.5910   39.9110 N.am  244  GLN244     -0.0878
     69  N         13.9350   18.1940   34.9910 N.3   247  ILE247     -0.1231
     70  CA        13.0080   19.0290   35.7520 C.3   247  ILE247      0.1692
     71  C         13.6660   19.5720   37.0160 C.2   247  ILE247      0.2591
     72  O         13.3100   20.6340   37.5100 O.2   247  ILE247     -0.2718
     73  CB        11.7210   18.2650   36.1130 C.3   247  ILE247      0.0266
     74  CG1       10.9630   17.8860   34.8420 C.3   247  ILE247      0.0019
     75  CG2       10.8310   19.0950   37.0310 C.3   247  ILE247      0.0020
     76  CD1        9.4640   17.7660   35.0290 C.3   247  ILE247      0.0001
     77  N         14.6340   18.8380   37.5420 N.am  248  ALA248     -0.1980
     78  CA        15.4070   19.3310   38.6610 C.3   248  ALA248      0.1597
     79  C         16.2930   20.4670   38.1740 C.2   248  ALA248      0.2287
     80  O         16.7370   21.2880   38.9660 O.2   248  ALA248     -0.2864
     81  CB        16.2370   18.2180   39.2600 C.3   248  ALA248      0.0319
     82  N         13.8090   23.6790   38.5010 N.3   251  VAL251     -0.1245
     83  CA        13.6950   24.0640   39.8860 C.3   251  VAL251      0.1561
     84  C         14.9990   24.7440   40.2470 C.2   251  VAL251      0.2260
     85  O         15.0160   25.7820   40.8920 O.2   251  VAL251     -0.2867
     86  CB        13.4880   22.8500   40.7870 C.3   251  VAL251      0.0252
     87  CG1       13.0900   23.2920   42.1750 C.3   251  VAL251      0.0019
     88  CG2       12.4310   21.9290   40.2040 C.3   251  VAL251      0.0019
     89  N         15.2100   28.6550   41.6030 N.3   255  PHE255     -0.1241
     90  CA        15.7480   28.9150   42.9230 C.3   255  PHE255      0.1605
     91  C         16.8690   29.9300   42.8180 C.2   255  PHE255      0.2264
     92  O         16.8410   30.9640   43.4820 O.2   255  PHE255     -0.2867
     93  CB        16.2690   27.6260   43.5610 C.3   255  PHE255      0.0534
     94  CG        15.1880   26.7660   44.1470 C.ar  255  PHE255     -0.0203
     95  CD1       15.4870   25.5230   44.6820 C.ar  255  PHE255     -0.0042
     96  CD2       13.8730   27.1970   44.1690 C.ar  255  PHE255     -0.0042
     97  CE1       14.4960   24.7240   45.2290 C.ar  255  PHE255     -0.0003
     98  CE2       12.8800   26.4020   44.7180 C.ar  255  PHE255     -0.0003
     99  CZ        13.1970   25.1640   45.2520 C.ar  255  PHE255     -0.0000
    100  N         20.4510   26.2860   48.9480 N.3   273  MET273     -0.1245
    101  CA        19.6070   25.6640   47.9470 C.3   273  MET273      0.1570
    102  C         19.2510   26.6620   46.8420 C.2   273  MET273      0.2261
    103  O         18.8960   26.2860   45.7230 O.2   273  MET273     -0.2867
    104  CB        18.3450   25.1130   48.6150 C.3   273  MET273      0.0387
    105  CG        17.6890   23.9620   47.8710 C.3   273  MET273      0.0595
    106  SD        16.0220   23.6110   48.4470 S.3   273  MET273     -0.1393
    107  CE        15.3290   25.2760   48.4730 C.3   273  MET273      0.0692
    108  N         19.2340   17.7600   47.3670 N.3   286  GLN286     -0.1245
    109  CA        18.1600   16.9270   46.8390 C.3   286  GLN286      0.1566
    110  C         17.9120   15.7130   47.7090 C.2   286  GLN286      0.2260
    111  O         16.7770   15.4130   48.0430 O.2   286  GLN286     -0.2867
    112  CB        18.4880   16.4700   45.4240 C.3   286  GLN286      0.0367
    113  CG        18.1660   17.5020   44.3810 C.3   286  GLN286      0.0905
    114  CD        16.6910   17.8090   44.3130 C.2   286  GLN286      0.2608
    115  OE1       16.1160   18.3610   45.2470 O.2   286  GLN286     -0.2717
    116  NE2       16.0680   17.4500   43.2050 N.am  286  GLN286     -0.0878
    117  N         16.2810   16.5370   51.0250 N.3   289  PHE289     -0.1241
    118  CA        14.9070   16.9770   50.8050 C.3   289  PHE289      0.1605
    119  C         13.9860   15.7870   50.5770 C.2   289  PHE289      0.2264
    120  O         12.8980   15.7100   51.1390 O.2   289  PHE289     -0.2867
    121  CB        14.8580   17.9300   49.6050 C.3   289  PHE289      0.0534
    122  CG        13.4780   18.2270   49.1250 C.ar  289  PHE289     -0.0203
    123  CD1       12.8210   19.3750   49.5400 C.ar  289  PHE289     -0.0042
    124  CD2       12.8270   17.3560   48.2600 C.ar  289  PHE289     -0.0042
    125  CE1       11.5340   19.6520   49.1120 C.ar  289  PHE289     -0.0003
    126  CE2       11.5560   17.6220   47.8240 C.ar  289  PHE289     -0.0003
    127  CZ        10.9040   18.7780   48.2520 C.ar  289  PHE289     -0.0000
@<TRIPOS>BOND
     1    74    76    1
     2    74    73    1
     3    69    70    1
     4    70    73    1
     5    70    71    1
     6    60    61    1
     7    73    75    1
     8     1     2    1
     9     4     3    2
    10     2     3    1
    11     2     5    1
    12    62    61    1
    13    62    63    2
    14    71    72    2
    15    71    77   am
    16    61    64    1
    17    15    16    2
    18    15    14    1
    19     3    13   am
    20    77    78    1
    21    13    14    1
    22     7     9   ar
    23     7     6   ar
    24     5     6    1
    25    64    65    1
    26    79    78    1
    27    79    80    2
    28    14    17    1
    29     9    11   ar
    30    82    83    1
    31     6     8   ar
    32    78    81    1
    33    65    66    1
    34    50    49    2
    35    51    48    1
    36    17    18    1
    37    11    12    1
    38    11    10   ar
    39    48    49    1
    40    48    47    1
    41     8    10   ar
    42    83    84    1
    43    83    86    1
    44    68    66   am
    45    49    52   am
    46    66    67    2
    47    88    86    1
    48    84    85    2
    49    18    20   ar
    50    18    19   ar
    51    86    87    1
    52    20    22   ar
    53    52    53    1
    54    19    21   ar
    55    89    90    1
    56    54    53    1
    57    54    55    2
    58    53    56    1
    59    22    21   ar
    60    34    33    2
    61    91    90    1
    62    91    92    2
    63    90    93    1
    64   116   114   am
    65    41    42    2
    66    41    40    1
    67    33    32    1
    68    33    39   am
    69    93    94    1
    70    56    57    1
    71    56    58    1
    72    32    31    1
    73    32    35    1
    74    38    36   ar
    75    40    39    1
    76    40    43    1
    77    59    57    1
    78    94    96   ar
    79    94    95   ar
    80    96    98   ar
    81   114   113    1
    82   114   115    2
    83   113   112    1
    84    95    97   ar
    85    98    99   ar
    86    36    35    1
    87    36    37   ar
    88    43    44    1
    89    97    99   ar
    90   112   109    1
    91   103   102    2
    92    46    44    1
    93    44    45    1
    94   109   108    1
    95   109   110    1
    96   102   101    1
    97   110   111    2
    98   126   127   ar
    99   126   124   ar
   100   105   106    1
   101   105   104    1
   102   101   104    1
   103   101   100    1
   104   127   125   ar
   105   124   122   ar
   106   106   107    1
   107   125   123   ar
   108   122   123   ar
   109   122   121    1
   110    30    28    1
   111   121   118    1
   112    28    29    1
   113    28    27    1
   114   119   118    1
   115   119   120    2
   116   118   117    1
   117    23    24    1
   118    27    24    1
   119    24    25    1
   120    25    26    2
