@<TRIPOS>MOLECULE
tmp/3jalK00.pdb
 199 184 0 0 0
SMALL
GASTEIGER

@<TRIPOS>ATOM
      1  N        308.9810  443.9050  348.2990 N.3    10  GLY10      -0.1210
      2  CA       309.9060  443.9970  347.1650 C.3    10  GLY10       0.1956
      3  C        310.9850  442.9210  347.1830 C.2    10  GLY10       0.2612
      4  O        310.9970  442.0620  348.0740 O.2    10  GLY10      -0.2717
      5  N        311.9400  443.0140  346.2540 N.am   11  GLN11      -0.1965
      6  CA       312.9150  441.9520  346.0270 C.3    11  GLN11       0.1733
      7  C        313.8520  441.8870  347.2180 C.2    11  GLN11       0.2616
      8  O        314.0040  440.8470  347.8450 O.2    11  GLN11      -0.2715
      9  CB       313.6880  442.2150  344.7330 C.3    11  GLN11       0.0408
     10  CG       314.7150  441.1490  344.3730 C.3    11  GLN11       0.0908
     11  CD       315.3480  441.3520  343.0000 C.2    11  GLN11       0.2608
     12  OE1      315.0400  442.3130  342.2870 O.2    11  GLN11      -0.2717
     13  NE2      316.2440  440.4390  342.6250 N.am   11  GLN11      -0.0878
     14  N        314.4480  443.0320  347.5320 N.am   12  CYS12      -0.1968
     15  CA       315.3650  443.1580  348.6640 C.3    12  CYS12       0.1712
     16  C        314.7270  442.7450  349.9850 C.2    12  CYS12       0.2296
     17  O        315.2880  441.9220  350.7300 O.2    12  CYS12      -0.2864
     18  CB       315.8570  444.5980  348.7800 C.3    12  CYS12       0.0983
     19  SG       316.7690  444.9420  350.2970 S.3    12  CYS12      -0.0798
     20  N        314.1760  438.9620  350.0710 N.3    15  GLN15      -0.1231
     21  CA       315.4140  438.1820  350.1480 C.3    15  GLN15       0.1698
     22  C        316.0640  438.2590  351.5220 C.2    15  GLN15       0.2592
     23  O        316.4500  437.2160  352.0820 O.2    15  GLN15      -0.2718
     24  CB       316.3830  438.5730  349.0390 C.3    15  GLN15       0.0381
     25  CG       315.9240  438.0450  347.6890 C.3    15  GLN15       0.0905
     26  CD       316.6710  438.6530  346.5140 C.2    15  GLN15       0.2608
     27  OE1      317.0320  439.8330  346.5310 O.2    15  GLN15      -0.2717
     28  NE2      316.8930  437.8520  345.4700 N.am   15  GLN15      -0.0878
     29  N        316.0940  439.4610  352.1060 N.am   16  ILE16      -0.1980
     30  CA       316.5090  439.6100  353.4980 C.3    16  ILE16       0.1595
     31  C        315.5790  438.7900  354.4070 C.2    16  ILE16       0.2287
     32  O        316.0610  438.1460  355.3330 O.2    16  ILE16      -0.2864
     33  CB       316.4900  441.0790  353.9760 C.3    16  ILE16       0.0276
     34  CG1      317.5180  441.9230  353.2230 C.3    16  ILE16       0.0022
     35  CG2      316.8140  441.1670  355.4670 C.3    16  ILE16       0.0022
     36  CD1      317.3330  443.4200  353.3540 C.3    16  ILE16       0.0001
     37  N        304.8570  441.8370  347.0130 N.3    67  ASP67      -0.1239
     38  CA       305.5950  442.3550  345.8560 C.3    67  ASP67       0.1674
     39  C        304.6580  442.6090  344.6920 C.2    67  ASP67       0.2266
     40  O        303.6300  441.9580  344.5720 O.2    67  ASP67      -0.2867
     41  CB       306.7270  441.3990  345.4460 C.3    67  ASP67       0.1410
     42  CG       307.7860  442.0670  344.5580 C.2    67  ASP67       0.3668
     43  OD1      307.7750  443.3080  344.3870 O.co2  67  ASP67      -0.2456
     44  OD2      308.6380  441.3400  344.0090 O.co2  67  ASP67      -0.2456
     45  N        305.6190  442.2780  341.6710 N.3    69  GLU69      -0.1245
     46  CA       305.9640  441.2550  340.6640 C.3    69  GLU69       0.1567
     47  C        306.1500  439.8650  341.2860 C.2    69  GLU69       0.2260
     48  O        306.5980  439.7450  342.4350 O.2    69  GLU69      -0.2867
     49  CB       307.1900  441.6700  339.8280 C.3    69  GLU69       0.0388
     50  CG       308.4890  441.9120  340.5980 C.3    69  GLU69       0.1160
     51  CD       308.6870  443.3590  341.0440 C.2    69  GLU69       0.3649
     52  OE1      307.7000  444.0180  341.4430 O.co2  69  GLU69      -0.2457
     53  OE2      309.8450  443.8330  341.0110 O.co2  69  GLU69      -0.2457
     54  N        306.7150  447.6460  339.4080 N.3    97  ALA97      -0.1245
     55  CA       306.6310  449.0760  339.7230 C.3    97  ALA97       0.1562
     56  C        307.5080  449.9560  338.8410 C.2    97  ALA97       0.2260
     57  O        307.4830  451.1830  338.9680 O.2    97  ALA97      -0.2867
     58  CB       307.0170  449.2890  341.1760 C.3    97  ALA97       0.0290
     59  N        310.7410  450.5250  339.0310 N.3    99  ASN99      -0.1240
     60  CA       311.6560  451.2770  339.8940 C.3    99  ASN99       0.1653
     61  C        311.0990  452.6420  340.3250 C.2    99  ASN99       0.2266
     62  O        311.8640  453.5660  340.5880 O.2    99  ASN99      -0.2867
     63  CB       313.0110  451.4150  339.1720 C.3    99  ASN99       0.1155
     64  CG       314.1910  451.1590  340.0870 C.2    99  ASN99       0.2627
     65  OD1      314.6920  450.0370  340.1570 O.2    99  ASN99      -0.2716
     66  ND2      314.6300  452.1870  340.8080 N.am   99  ASN99      -0.0877
     67  N        313.9280  448.0370  350.7430 N.3   138  SER138     -0.1217
     68  CA       314.8950  449.0460  350.3320 C.3   138  SER138      0.1889
     69  C        314.1820  450.3720  350.2450 C.2   138  SER138      0.2288
     70  O        312.9500  450.3940  350.1690 O.2   138  SER138     -0.2866
     71  CB       315.4710  448.7250  348.9490 C.3   138  SER138      0.2089
     72  OG       316.3100  447.5880  348.9880 O.3   138  SER138     -0.2183
     73  N        315.3910  452.5730  347.7940 N.3   140  GLY140     -0.1210
     74  CA       315.8310  452.9630  346.4390 C.3   140  GLY140      0.1956
     75  C        314.9700  452.5010  345.2780 C.2   140  GLY140      0.2612
     76  O        315.0570  453.0670  344.1840 O.2   140  GLY140     -0.2717
     77  N        314.1510  451.4780  345.5120 N.am  141  GLY141     -0.1942
     78  CA       313.2980  450.9060  344.4850 C.3   141  GLY141      0.2014
     79  C        311.8960  451.4720  344.4890 C.2   141  GLY141      0.2639
     80  O        311.6620  452.5580  344.9970 O.2   141  GLY141     -0.2714
     81  N        310.9630  450.7270  343.9080 N.am  142  GLY142     -0.1939
     82  CA       309.5740  451.1480  343.8520 C.3   142  GLY142      0.2014
     83  C        308.6190  450.4590  344.8250 C.2   142  GLY142      0.2640
     84  O        307.7390  451.1200  345.3960 O.2   142  GLY142     -0.2714
     85  N        308.7540  449.1430  344.9870 N.am  143  THR143     -0.1936
     86  CA       307.8270  448.3630  345.8140 C.3   143  THR143      0.2028
     87  C        308.1480  448.5590  347.2930 C.2   143  THR143      0.2642
     88  O        307.3490  449.1410  348.0470 O.2   143  THR143     -0.2714
     89  CB       307.8570  446.8610  345.4480 C.3   143  THR143      0.1808
     90  OG1      307.6960  446.7050  344.0320 O.3   143  THR143     -0.2208
     91  CG2      306.7440  446.1110  346.1680 C.3   143  THR143      0.0379
     92  N        309.3270  448.0840  347.6880 N.am  144  GLY144     -0.1954
     93  CA       309.7880  448.1880  349.0600 C.3   144  GLY144      0.1869
     94  C        309.6560  449.6160  349.5690 C.2   144  GLY144      0.2309
     95  O        309.1710  449.8320  350.6810 O.2   144  GLY144     -0.2863
     96  N        317.1350  449.2470  353.6380 N.3   169  VAL169     -0.1231
     97  CA       318.3530  449.2940  352.8100 C.3   169  VAL169      0.1692
     98  C        318.4440  450.6350  352.0570 C.2   169  VAL169      0.2592
     99  O        317.5870  450.9640  351.2150 O.2   169  VAL169     -0.2718
    100  CB       318.4420  448.0950  351.8580 C.3   169  VAL169      0.0266
    101  CG1      319.6840  448.1830  350.9770 C.3   169  VAL169      0.0020
    102  CG2      318.4760  446.8080  352.6700 C.3   169  VAL169      0.0020
    103  N        319.4890  451.3890  352.3840 N.am  170  VAL170     -0.1966
    104  CA       319.6090  452.7780  351.9850 C.3   170  VAL170      0.1712
    105  C        320.5210  452.8200  350.7630 C.2   170  VAL170      0.2458
    106  O        321.4060  451.9700  350.6210 O.2   170  VAL170     -0.2730
    107  CB       320.2020  453.6100  353.1410 C.3   170  VAL170      0.0289
    108  CG1      320.1470  455.0950  352.8420 C.3   170  VAL170      0.0023
    109  CG2      319.4560  453.3370  354.4460 C.3   170  VAL170      0.0023
    110  N        320.3340  453.8110  349.8670 N.am  171  PRO171     -0.2727
    111  CA       321.2930  453.9550  348.7730 C.3   171  PRO171      0.1402
    112  C        322.7160  454.2690  349.2410 C.2   171  PRO171      0.2269
    113  O        322.9060  455.0440  350.1790 O.2   171  PRO171     -0.2865
    114  CB       320.7240  455.1230  347.9580 C.3   171  PRO171      0.0296
    115  CG       319.8080  455.8330  348.8880 C.3   171  PRO171      0.0237
    116  CD       319.1950  454.7240  349.6770 C.3   171  PRO171      0.0939
    117  N        322.8350  452.1960  342.5990 N.3   177  ASP177     -0.1225
    118  CA       322.2970  450.9700  342.0230 C.3   177  ASP177      0.1805
    119  C        321.2150  451.2460  340.9850 C.2   177  ASP177      0.2598
    120  O        321.0360  450.4430  340.0670 O.2   177  ASP177     -0.2718
    121  CB       321.7460  450.0440  343.1030 C.3   177  ASP177      0.1424
    122  CG       321.6620  448.5990  342.6320 C.2   177  ASP177      0.3668
    123  OD1      322.7300  447.9680  342.4650 O.co2 177  ASP177     -0.2456
    124  OD2      320.5340  448.0960  342.4270 O.co2 177  ASP177     -0.2456
    125  N        320.4760  452.3480  341.1490 N.am  178  THR178     -0.1953
    126  CA       319.4990  452.8060  340.1450 C.3   178  THR178      0.1897
    127  C        319.5650  454.3220  339.9700 C.2   178  THR178      0.2313
    128  O        320.0780  455.0380  340.8290 O.2   178  THR178     -0.2863
    129  CB       318.0520  452.3900  340.4930 C.3   178  THR178      0.1794
    130  OG1      317.5040  453.2700  341.4830 O.3   178  THR178     -0.2208
    131  CG2      317.9990  450.9460  341.0020 C.3   178  THR178      0.0378
    132  N        317.0440  456.6420  342.3060 N.3   181  GLU181     -0.1245
    133  CA       317.0910  456.2470  343.6970 C.3   181  GLU181      0.1567
    134  C        316.9910  457.4430  344.6050 C.2   181  GLU181      0.2260
    135  O        316.4210  457.2970  345.6720 O.2   181  GLU181     -0.2867
    136  CB       318.3290  455.3920  344.0410 C.3   181  GLU181      0.0388
    137  CG       319.6880  456.0820  344.0190 C.3   181  GLU181      0.1160
    138  CD       320.8300  455.1800  344.4750 C.2   181  GLU181      0.3649
    139  OE1      320.6910  453.9340  344.4240 O.co2 181  GLU181     -0.2457
    140  OE2      321.8830  455.7230  344.8840 O.co2 181  GLU181     -0.2457
    141  N        320.6960  450.4060  356.9090 N.3   202  ILE202     -0.1245
    142  CA       321.6710  449.4480  356.3960 C.3   202  ILE202      0.1561
    143  C        322.0220  449.7510  354.9400 C.2   202  ILE202      0.2260
    144  O        321.1420  449.9400  354.0960 O.2   202  ILE202     -0.2867
    145  CB       321.1730  447.9980  356.5380 C.3   202  ILE202      0.0252
    146  CG1      321.0540  447.6410  358.0270 C.3   202  ILE202      0.0019
    147  CG2      322.1220  447.0190  355.8490 C.3   202  ILE202      0.0019
    148  CD1      320.2550  446.3870  358.3190 C.3   202  ILE202      0.0001
    149  N        324.5700  448.6370  351.6150 N.3   204  ASN204     -0.1240
    150  CA       325.2960  447.5370  350.9800 C.3   204  ASN204      0.1653
    151  C        326.7780  447.8080  350.8510 C.2   204  ASN204      0.2266
    152  O        327.5760  446.8730  350.9430 O.2   204  ASN204     -0.2867
    153  CB       324.7160  447.2090  349.5960 C.3   204  ASN204      0.1155
    154  CG       323.3830  446.4770  349.6660 C.2   204  ASN204      0.2627
    155  OD1      323.0050  445.9260  350.7010 O.2   204  ASN204     -0.2716
    156  ND2      322.6670  446.4590  348.5500 N.am  204  ASN204     -0.0877
    157  N        328.4100  446.8020  353.9990 N.3   207  LEU207     -0.1245
    158  CA       328.3560  445.3520  354.1130 C.3   207  LEU207      0.1561
    159  C        329.4530  444.6860  353.3030 C.2   207  LEU207      0.2260
    160  O        330.1550  443.8070  353.8150 O.2   207  LEU207     -0.2867
    161  CB       326.9680  444.8120  353.7530 C.3   207  LEU207      0.0270
    162  CG       325.9820  444.6560  354.9180 C.3   207  LEU207      0.0019
    163  CD1      325.9580  445.8460  355.8720 C.3   207  LEU207      0.0001
    164  CD2      324.5840  444.4030  354.3710 C.3   207  LEU207      0.0001
    165  N        325.4260  437.9860  347.7490 N.3   222  TYR222     -0.1241
    166  CA       324.3670  438.7440  348.4090 C.3   222  TYR222      0.1605
    167  C        323.8550  438.0180  349.6370 C.2   222  TYR222      0.2264
    168  O        323.5060  438.6760  350.6080 O.2   222  TYR222     -0.2867
    169  CB       323.1970  439.0830  347.4680 C.3   222  TYR222      0.0534
    170  CG       323.1240  440.5180  346.9630 C.ar  222  TYR222     -0.0201
    171  CD1      323.6760  441.5910  347.6720 C.ar  222  TYR222     -0.0009
    172  CD2      322.4400  440.8080  345.7880 C.ar  222  TYR222     -0.0009
    173  CE1      323.5830  442.8910  347.1960 C.ar  222  TYR222      0.0417
    174  CE2      322.3360  442.1090  345.3110 C.ar  222  TYR222      0.0417
    175  CZ       322.9100  443.1470  346.0180 C.ar  222  TYR222      0.1957
    176  OH       322.8080  444.4380  345.5510 O.3   222  TYR222     -0.2866
    177  N        325.8220  438.9590  352.7470 N.3   225  LEU225     -0.1231
    178  CA       325.3890  440.2820  353.1990 C.3   225  LEU225      0.1693
    179  C        324.0830  440.1700  353.9850 C.2   225  LEU225      0.2592
    180  O        323.9350  440.7380  355.0960 O.2   225  LEU225     -0.2718
    181  CB       325.2040  441.2430  352.0250 C.3   225  LEU225      0.0284
    182  CG       326.4610  441.9050  351.4640 C.3   225  LEU225      0.0019
    183  CD1      327.2360  440.9830  350.5330 C.3   225  LEU225      0.0001
    184  CD2      326.0760  443.1960  350.7470 C.3   225  LEU225      0.0001
    185  N        323.1650  439.3980  353.4100 N.am  226  ASN226     -0.1974
    186  CA       321.8540  439.1710  354.0040 C.3   226  ASN226      0.1688
    187  C        321.9820  438.5510  355.3810 C.2   226  ASN226      0.2292
    188  O        321.2390  438.9230  356.2820 O.2   226  ASN226     -0.2864
    189  CB       320.9790  438.3070  353.0960 C.3   226  ASN226      0.1181
    190  CG       320.5380  439.0280  351.8340 C.2   226  ASN226      0.2629
    191  OD1      320.7750  438.5570  350.7250 O.2   226  ASN226     -0.2716
    192  ND2      319.8630  440.1530  351.9960 N.am  226  ASN226     -0.0877
    193  N        322.7130  441.0060  358.1240 N.3   229  VAL229     -0.1245
    194  CA       321.5130  441.7650  358.4460 C.3   229  VAL229      0.1561
    195  C        320.5890  440.9400  359.3460 C.2   229  VAL229      0.2260
    196  O        320.0500  441.4540  360.3470 O.2   229  VAL229     -0.2867
    197  CB       320.7750  442.2530  357.1740 C.3   229  VAL229      0.0252
    198  CG1      319.4710  442.9580  357.5300 C.3   229  VAL229      0.0019
    199  CG2      321.6590  443.1980  356.3690 C.3   229  VAL229      0.0019
@<TRIPOS>BOND
     1    56    57    2
     2    56    55    1
     3    59    60    1
     4    63    60    1
     5    63    64    1
     6    54    55    1
     7    55    58    1
     8    49    50    1
     9    49    46    1
    10    60    61    1
    11   127   126    1
    12   127   128    2
    13   120   119    2
    14    64    65    2
    15    64    66   am
    16   126   129    1
    17   126   125    1
    18    61    62    2
    19   129   131    1
    20   129   130    1
    21    50    51    1
    22    46    47    1
    23    46    45    1
    24   119   125   am
    25   119   118    1
    26    53    51   ar
    27    51    52   ar
    28    47    48    2
    29   118   117    1
    30   118   121    1
    31    12    11    2
    32   132   133    1
    33   124   122   ar
    34   123   122   ar
    35    13    11   am
    36   122   121    1
    37    11    10    1
    38   133   136    1
    39   133   134    1
    40    82    81    1
    41    82    83    1
    42    81    79   am
    43    44    42   ar
    44   137   136    1
    45   137   138    1
    46    90    89    1
    47    76    75    2
    48    10     9    1
    49    43    42   ar
    50   139   138   ar
    51   138   140   ar
    52    78    79    1
    53    78    77    1
    54    79    80    2
    55    42    41    1
    56    40    39    2
    57   134   135    2
    58    39    38    1
    59     9     6    1
    60    83    85   am
    61    83    84    2
    62    85    86    1
    63    75    77   am
    64    75    74    1
    65   174   172   ar
    66   174   175   ar
    67    41    38    1
    68    89    86    1
    69    89    91    1
    70    28    26   am
    71   176   175    1
    72   172   170   ar
    73    86    87    1
    74    38    37    1
    75   175   173   ar
    76     6     5    1
    77     6     7    1
    78     5     3   am
    79    74    73    1
    80    26    27    2
    81    26    25    1
    82   170   169    1
    83   170   171   ar
    84     2     3    1
    85     2     1    1
    86     3     4    2
    87   173   171   ar
    88     7    14   am
    89     7     8    2
    90    87    92   am
    91    87    88    2
    92   169   166    1
    93    14    15    1
    94    92    93    1
    95    25    24    1
    96   165   166    1
    97   114   111    1
    98   114   115    1
    99   166   167    1
   100   156   154   am
   101    15    18    1
   102    15    16    1
   103   111   112    1
   104   111   110    1
   105    18    19    1
   106   115   116    1
   107    71    72    1
   108    71    68    1
   109    24    21    1
   110    93    94    1
   111   112   113    2
   112    94    95    2
   113   153   154    1
   114   153   150    1
   115   167   168    2
   116   154   155    2
   117   116   110    1
   118   110   105   am
   119    16    17    2
   120    20    21    1
   121    21    22    1
   122    70    69    2
   123    69    68    1
   124    68    67    1
   125   183   182    1
   126   106   105    2
   127   191   190    2
   128   184   182    1
   129   105   104    1
   130   151   152    2
   131   151   150    1
   132   101   100    1
   133   150   149    1
   134    99    98    2
   135   182   181    1
   136    22    23    2
   137    22    29   am
   138   190   192   am
   139   190   189    1
   140   100   102    1
   141   100    97    1
   142   104   103    1
   143   104   107    1
   144   181   178    1
   145    98   103   am
   146    98    97    1
   147    29    30    1
   148   177   178    1
   149    97    96    1
   150   108   107    1
   151   189   186    1
   152   107   109    1
   153   178   179    1
   154    34    36    1
   155    34    33    1
   156   159   160    2
   157   159   158    1
   158   185   179   am
   159   185   186    1
   160    30    33    1
   161    30    31    1
   162   161   158    1
   163   161   162    1
   164    33    35    1
   165   179   180    2
   166   157   158    1
   167   186   187    1
   168   144   143    2
   169   164   162    1
   170    31    32    2
   171   162   163    1
   172   143   142    1
   173   187   188    2
   174   147   145    1
   175   199   197    1
   176   142   145    1
   177   142   141    1
   178   145   146    1
   179   197   198    1
   180   197   194    1
   181   146   148    1
   182   193   194    1
   183   194   195    1
   184   195   196    2
