@<TRIPOS>MOLECULE
tmp/3jb6B00.pdb
 157 150 0 0 0
SMALL
GASTEIGER

@<TRIPOS>ATOM
      1  N         95.6540  -81.0520  183.6950 N.3   228  TYR228     -0.1241
      2  CA        96.6870  -80.0450  183.4940 C.3   228  TYR228      0.1605
      3  C         96.1030  -78.7750  182.8960 C.2   228  TYR228      0.2264
      4  O         96.3220  -77.6740  183.4120 O.2   228  TYR228     -0.2867
      5  CB        97.7840  -80.6040  182.5910 C.3   228  TYR228      0.0534
      6  CG        98.8580  -79.6140  182.2140 C.ar  228  TYR228     -0.0201
      7  CD1       99.8860  -79.3140  183.0860 C.ar  228  TYR228     -0.0009
      8  CD2       98.8430  -78.9810  180.9830 C.ar  228  TYR228     -0.0009
      9  CE1      100.8650  -78.4150  182.7450 C.ar  228  TYR228      0.0417
     10  CE2       99.8180  -78.0790  180.6340 C.ar  228  TYR228      0.0417
     11  CZ       100.8260  -77.7990  181.5180 C.ar  228  TYR228      0.1957
     12  OH       101.8040  -76.8980  181.1700 O.3   228  TYR228     -0.2866
     13  N        110.7160  -69.5210  177.8110 N.3   293  LYS293     -0.1231
     14  CA       110.5970  -70.6420  176.8980 C.3   293  LYS293      0.1693
     15  C        110.3070  -71.9090  177.6870 C.2   293  LYS293      0.2593
     16  O        111.0700  -72.2850  178.5770 O.2   293  LYS293     -0.2718
     17  CB       111.8830  -70.7770  176.0890 C.3   293  LYS293      0.0285
     18  CG       111.8470  -71.8040  174.9950 C.3   293  LYS293      0.0035
     19  CD       113.1560  -71.8070  174.2570 C.3   293  LYS293      0.0206
     20  CE       113.2120  -72.9380  173.2780 C.3   293  LYS293      0.1093
     21  NZ       112.1550  -72.8080  172.2510 N.3   293  LYS293     -0.1314
     22  N        109.2040  -72.5710  177.3550 N.am  294  GLY294     -0.1942
     23  CA       108.8020  -73.7540  178.0850 C.3   294  GLY294      0.2014
     24  C        107.6730  -73.5610  179.0630 C.2   294  GLY294      0.2639
     25  O        107.4440  -74.4330  179.9030 O.2   294  GLY294     -0.2714
     26  N        106.9560  -72.4470  178.9850 N.am  295  ALA295     -0.1963
     27  CA       105.8970  -72.1430  179.9350 C.3   295  ALA295      0.1728
     28  C        104.5200  -72.5820  179.4650 C.2   295  ALA295      0.2617
     29  O        103.5370  -72.3150  180.1590 O.2   295  ALA295     -0.2715
     30  CB       105.8720  -70.6430  180.2350 C.3   295  ALA295      0.0334
     31  N        104.4160  -73.2330  178.3130 N.am  296  GLY296     -0.1940
     32  CA       103.1150  -73.6580  177.8250 C.3   296  GLY296      0.2014
     33  C        102.2420  -72.5180  177.3510 C.2   296  GLY296      0.2639
     34  O        101.0400  -72.5030  177.6350 O.2   296  GLY296     -0.2714
     35  N        102.8260  -71.5550  176.6390 N.am  297  LYS297     -0.1963
     36  CA       102.0790  -70.3820  176.2010 C.3   297  LYS297      0.1728
     37  C        101.2650  -70.6570  174.9430 C.2   297  LYS297      0.2617
     38  O        100.1230  -70.2000  174.8310 O.2   297  LYS297     -0.2715
     39  CB       103.0400  -69.2170  175.9850 C.3   297  LYS297      0.0311
     40  CG       104.1890  -69.5490  175.0590 C.3   297  LYS297      0.0038
     41  CD       105.1410  -68.3890  174.9050 C.3   297  LYS297      0.0206
     42  CE       106.3270  -68.7900  174.0570 C.3   297  LYS297      0.1093
     43  NZ       107.1100  -69.8640  174.7200 N.3   297  LYS297     -0.1314
     44  N        101.8270  -71.3870  173.9780 N.am  298  THR298     -0.1937
     45  CA       101.1020  -71.6000  172.7290 C.3   298  THR298      0.2028
     46  C         99.9020  -72.5070  172.9410 C.2   298  THR298      0.2642
     47  O         98.9130  -72.4230  172.2050 O.2   298  THR298     -0.2714
     48  CB       102.0250  -72.1830  171.6710 C.3   298  THR298      0.1808
     49  OG1      102.5080  -73.4500  172.1190 O.3   298  THR298     -0.2208
     50  CG2      103.1980  -71.2610  171.4450 C.3   298  THR298      0.0379
     51  N         99.9700  -73.3860  173.9380 N.am  299  SER299     -0.1949
     52  CA        98.7890  -74.1460  174.3170 C.3   299  SER299      0.1924
     53  C         97.6900  -73.2220  174.8160 C.2   299  SER299      0.2314
     54  O         96.5080  -73.4450  174.5370 O.2   299  SER299     -0.2863
     55  CB        99.1480  -75.1760  175.3860 C.3   299  SER299      0.2116
     56  OG        98.0020  -75.8920  175.8050 O.3   299  SER299     -0.2180
     57  N        102.9490  -68.1440  166.4800 N.3   320  SER320     -0.1202
     58  CA       103.6770  -68.7580  167.5710 C.3   320  SER320      0.2020
     59  C        105.0480  -68.1110  167.7090 C.2   320  SER320      0.2619
     60  O        105.5510  -67.4480  166.8030 O.2   320  SER320     -0.2717
     61  CB       103.8230  -70.2570  167.3430 C.3   320  SER320      0.2103
     62  OG       104.5650  -70.8550  168.3860 O.3   320  SER320     -0.2182
     63  N        105.6440  -68.2930  168.8830 N.am  321  SER321     -0.1937
     64  CA       106.9480  -67.7100  169.1600 C.3   321  SER321      0.2055
     65  C        108.0090  -68.1410  168.1610 C.2   321  SER321      0.2643
     66  O        108.9340  -67.3710  167.8840 O.2   321  SER321     -0.2714
     67  CB       107.3870  -68.0900  170.5630 C.3   321  SER321      0.2130
     68  OG       108.6940  -67.6260  170.7850 O.3   321  SER321     -0.2179
     69  N        107.8970  -69.3470  167.6170 N.am  322  ASP322     -0.1971
     70  CA       108.8760  -69.8970  166.6940 C.3   322  ASP322      0.1709
     71  C        108.5240  -69.6320  165.2400 C.2   322  ASP322      0.2293
     72  O        109.1700  -70.1900  164.3500 O.2   322  ASP322     -0.2864
     73  CB       109.0250  -71.3970  166.9300 C.3   322  ASP322      0.1436
     74  CG       109.6630  -71.7140  168.2650 C.2   322  ASP322      0.3671
     75  OD1      110.2810  -70.8100  168.8590 O.co2 322  ASP322     -0.2456
     76  OD2      109.5400  -72.8650  168.7280 O.co2 322  ASP322     -0.2456
     77  N        111.2150  -70.8060  162.3520 N.3   326  ARG326     -0.1245
     78  CA       110.9190  -71.9150  161.4540 C.3   326  ARG326      0.1563
     79  C        110.7720  -71.4520  160.0160 C.2   326  ARG326      0.2260
     80  O        111.0980  -72.1980  159.0890 O.2   326  ARG326     -0.2867
     81  CB       109.6540  -72.6140  161.9250 C.3   326  ARG326      0.0307
     82  CG       109.8370  -73.2240  163.2810 C.3   326  ARG326      0.0489
     83  CD       108.5770  -73.8310  163.8200 C.3   326  ARG326      0.2205
     84  NE       108.8160  -74.3660  165.1520 N.pl3 326  ARG326     -0.0865
     85  CZ       107.8620  -74.7950  165.9640 C.cat 326  ARG326      0.5346
     86  NH1      106.5970  -74.7380  165.5860 N.pl3 326  ARG326      0.1354
     87  NH2      108.1740  -75.2660  167.1600 N.pl3 326  ARG326      0.1354
     88  N        104.6970  -77.6850  165.0180 N.3   350  ASP350     -0.1239
     89  CA       105.7670  -78.0430  165.9400 C.3   350  ASP350      0.1674
     90  C        106.7680  -78.9950  165.3030 C.2   350  ASP350      0.2266
     91  O        107.9330  -79.0360  165.7130 O.2   350  ASP350     -0.2867
     92  CB       105.1730  -78.6600  167.2050 C.3   350  ASP350      0.1410
     93  CG       106.2250  -78.9960  168.2370 C.2   350  ASP350      0.3668
     94  OD1      106.8480  -78.0580  168.7770 O.co2 350  ASP350     -0.2456
     95  OD2      106.4270  -80.1960  168.5120 O.co2 350  ASP350     -0.2456
     96  N        110.2630  -63.9180  172.4500 N.3   428  HIS428     -0.1241
     97  CA       111.1540  -64.5250  173.4300 C.3   428  HIS428      0.1621
     98  C        111.8460  -63.5460  174.3650 C.2   428  HIS428      0.2264
     99  O        112.0420  -63.8760  175.5330 O.2   428  HIS428     -0.2867
    100  CB       112.2100  -65.3730  172.7190 C.3   428  HIS428      0.0745
    101  CG       111.6850  -66.6800  172.2230 C.ar  428  HIS428      0.0817
    102  ND1      112.2480  -67.3600  171.1670 N.ar  428  HIS428     -0.2268
    103  CD2      110.6930  -67.4700  172.6920 C.ar  428  HIS428      0.1154
    104  CE1      111.5900  -68.4890  170.9730 C.ar  428  HIS428      0.1986
    105  NE2      110.6400  -68.5790  171.8850 N.ar  428  HIS428     -0.2212
    106  N        104.5330  -73.4150  185.9110 N.3   449  ASN449     -0.1240
    107  CA       105.5540  -74.3000  185.3780 C.3   449  ASN449      0.1653
    108  C        106.8660  -74.0370  186.0880 C.2   449  ASN449      0.2266
    109  O        107.0570  -72.9700  186.6800 O.2   449  ASN449     -0.2867
    110  CB       105.7370  -74.1120  183.8700 C.3   449  ASN449      0.1155
    111  CG       104.6970  -74.8370  183.0580 C.2   449  ASN449      0.2627
    112  OD1      104.7950  -76.0390  182.8420 O.2   449  ASN449     -0.2716
    113  ND2      103.6780  -74.1160  182.6240 N.am  449  ASN449     -0.0877
    114  N        110.8420  -78.0940  182.8680 N.3   454  ALA454     -0.1231
    115  CA       110.1230  -78.5730  181.6950 C.3   454  ALA454      0.1694
    116  C        111.0730  -78.8610  180.5450 C.2   454  ALA454      0.2591
    117  O        110.9350  -79.8820  179.8640 O.2   454  ALA454     -0.2718
    118  CB       109.0670  -77.5560  181.2720 C.3   454  ALA454      0.0304
    119  N        112.0410  -77.9730  180.3130 N.am  455  MET455     -0.1979
    120  CA       113.0200  -78.2010  179.2580 C.3   455  MET455      0.1605
    121  C        113.9930  -79.3100  179.6260 C.2   455  MET455      0.2287
    122  O        114.6890  -79.8390  178.7550 O.2   455  MET455     -0.2864
    123  CB       113.7700  -76.9100  178.9550 C.3   455  MET455      0.0413
    124  CG       112.8950  -75.8480  178.3590 C.3   455  MET455      0.0598
    125  SD       112.2210  -76.5040  176.8310 S.3   455  MET455     -0.1393
    126  CE       111.3090  -75.1100  176.2030 C.3   455  MET455      0.0692
    127  N        111.6110  -82.9180  178.7330 N.3   458  ARG458     -0.1231
    128  CA       111.2800  -83.2690  177.3590 C.3   458  ARG458      0.1694
    129  C        112.4720  -83.9210  176.6700 C.2   458  ARG458      0.2592
    130  O        113.5820  -83.3810  176.6720 O.2   458  ARG458     -0.2718
    131  CB       110.8180  -82.0320  176.5930 C.3   458  ARG458      0.0321
    132  CG       111.8000  -80.8860  176.5710 C.3   458  ARG458      0.0489
    133  CD       111.2440  -79.7230  175.7780 C.3   458  ARG458      0.2205
    134  NE       111.1320  -80.0330  174.3590 N.pl3 458  ARG458     -0.0865
    135  CZ       110.5890  -79.2220  173.4610 C.cat 458  ARG458      0.5346
    136  NH1      110.0970  -78.0520  173.8380 N.pl3 458  ARG458      0.1354
    137  NH2      110.5330  -79.5810  172.1880 N.pl3 458  ARG458      0.1354
    138  N        112.2390  -85.0950  176.0900 N.am  459  GLN459     -0.1966
    139  CA       113.2990  -85.9100  175.5150 C.3   459  GLN459      0.1733
    140  C        113.5680  -85.6030  174.0500 C.2   459  GLN459      0.2616
    141  O        114.4480  -86.2330  173.4550 O.2   459  GLN459     -0.2715
    142  CB       112.9590  -87.3950  175.6670 C.3   459  GLN459      0.0408
    143  CG       111.7110  -87.8190  174.9130 C.3   459  GLN459      0.0908
    144  CD       111.3990  -89.2930  175.0820 C.2   459  GLN459      0.2608
    145  OE1      111.8790  -89.9380  176.0140 O.2   459  GLN459     -0.2717
    146  NE2      110.5900  -89.8340  174.1790 N.am  459  GLN459     -0.0878
    147  N        112.8450  -84.6580  173.4550 N.am  460  ARG460     -0.1977
    148  CA       113.0410  -84.3460  172.0470 C.3   460  ARG460      0.1597
    149  C        114.2240  -83.4090  171.8490 C.2   460  ARG460      0.2287
    150  O        115.2790  -83.8280  171.3640 O.2   460  ARG460     -0.2864
    151  CB       111.7730  -83.7300  171.4590 C.3   460  ARG460      0.0334
    152  CG       110.5810  -84.6650  171.4740 C.3   460  ARG460      0.0492
    153  CD       110.8230  -85.8740  170.5880 C.3   460  ARG460      0.2205
    154  NE       111.0330  -85.4910  169.1960 N.pl3 460  ARG460     -0.0865
    155  CZ       110.0530  -85.2330  168.3370 C.cat 460  ARG460      0.5346
    156  NH1      108.7870  -85.3120  168.7270 N.pl3 460  ARG460      0.1354
    157  NH2      110.3360  -84.8920  167.0870 N.pl3 460  ARG460      0.1354
@<TRIPOS>BOND
     1    80    79    2
     2    79    78    1
     3    78    81    1
     4    78    77    1
     5    81    82    1
     6    82    83    1
     7    83    84    1
     8    72    71    2
     9    88    89    1
    10    84    85    2
    11    71    70    1
    12    90    91    2
    13    90    89    1
    14    86    85    1
    15    89    92    1
    16    85    87    1
    17    57    58    1
    18    70    73    1
    19    70    69    1
    20    60    59    2
    21    73    74    1
    22   157   155    1
    23    92    93    1
    24    61    58    1
    25    61    62    1
    26    58    59    1
    27    69    65   am
    28    59    63   am
    29    66    65    2
    30    65    64    1
    31    93    95   ar
    32    93    94   ar
    33    74    76   ar
    34    74    75   ar
    35   155   156    1
    36   155   154    2
    37    63    64    1
    38    64    67    1
    39   154   153    1
    40    67    68    1
    41   153   152    1
    42   104   102   ar
    43   104   105   ar
    44   102   101   ar
    45   150   149    2
    46    50    48    1
    47   151   152    1
    48   151   148    1
    49    48    49    1
    50    48    45    1
    51   149   148    1
    52   105   103   ar
    53   148   147    1
    54   137   135    1
    55    47    46    2
    56   101   103   ar
    57   101   100    1
    58    21    20    1
    59    96    97    1
    60   100    97    1
    61    45    46    1
    62    45    44    1
    63    46    51   am
    64    20    19    1
    65    97    98    1
    66   141   140    2
    67   147   140   am
    68   135   136    1
    69   135   134    2
    70    51    52    1
    71    44    37   am
    72   140   139    1
    73    42    43    1
    74    42    41    1
    75   146   144   am
    76    19    18    1
    77    52    53    1
    78    52    55    1
    79   134   133    1
    80    98    99    2
    81    54    53    2
    82    38    37    2
    83    41    40    1
    84   143   144    1
    85   143   142    1
    86    37    36    1
    87    18    17    1
    88    40    39    1
    89   144   145    2
    90    55    56    1
    91   139   142    1
    92   139   138    1
    93   133   132    1
    94    39    36    1
    95    17    14    1
    96   138   129   am
    97    36    35    1
    98   126   125    1
    99   132   131    1
   100   131   128    1
   101    35    33   am
   102   129   130    2
   103   129   128    1
   104   125   124    1
   105    14    15    1
   106    14    13    1
   107    33    34    2
   108    33    32    1
   109    22    15   am
   110    22    23    1
   111   128   127    1
   112    15    16    2
   113    32    31    1
   114    23    24    1
   115    31    28   am
   116   124   123    1
   117   122   121    2
   118   123   120    1
   119    26    24   am
   120    26    27    1
   121    24    25    2
   122   120   121    1
   123   120   119    1
   124    28    27    1
   125    28    29    2
   126   117   116    2
   127    27    30    1
   128   119   116   am
   129   116   115    1
   130    10     8   ar
   131    10    11   ar
   132     8     6   ar
   133    12    11    1
   134   118   115    1
   135    11     9   ar
   136   115   114    1
   137     6     5    1
   138     6     7   ar
   139     5     2    1
   140   113   111   am
   141     9     7   ar
   142   112   111    2
   143     3     4    2
   144     3     2    1
   145   111   110    1
   146     2     1    1
   147   110   107    1
   148   107   106    1
   149   107   108    1
   150   108   109    2
