@<TRIPOS>MOLECULE
tmp/3jb9B00.pdb
 175 166 0 0 0
SMALL
GASTEIGER

@<TRIPOS>ATOM
      1  N        260.6360  309.0980  194.9440 N.3    83  LEU83      -0.1231
      2  CA       259.8190  308.1680  195.7660 C.3    83  LEU83       0.1693
      3  C        258.3050  308.3020  195.6630 C.2    83  LEU83       0.2592
      4  O        257.7600  309.4110  195.6630 O.2    83  LEU83      -0.2718
      5  CB       260.1420  308.3520  197.2490 C.3    83  LEU83       0.0284
      6  CG       261.0730  307.3610  197.9260 C.3    83  LEU83       0.0019
      7  CD1      261.1650  307.7350  199.3920 C.3    83  LEU83       0.0001
      8  CD2      260.5780  305.9300  197.7670 C.3    83  LEU83       0.0001
      9  N        257.6260  307.1650  195.6110 N.am   84  HIS84      -0.1962
     10  CA       256.1910  307.1560  195.7720 C.3    84  HIS84       0.1787
     11  C        255.4590  308.2400  194.9890 C.2    84  HIS84       0.2620
     12  O        254.4670  308.7850  195.4630 O.2    84  HIS84      -0.2715
     13  CB       255.8620  307.3720  197.2400 C.3    84  HIS84       0.0785
     14  CG       256.5120  306.3950  198.1520 C.ar   84  HIS84       0.0821
     15  ND1      256.3450  305.0340  198.0200 N.ar   84  HIS84      -0.2267
     16  CD2      257.3010  306.5800  199.2340 C.ar   84  HIS84       0.1154
     17  CE1      257.0160  304.4200  198.9790 C.ar   84  HIS84       0.1986
     18  NE2      257.6040  305.3360  199.7300 N.ar   84  HIS84      -0.2212
     19  N        255.9270  308.5750  193.8070 N.am   85  HIS85      -0.1959
     20  CA       255.2460  309.6000  193.0650 C.3    85  HIS85       0.1787
     21  C        254.1920  309.0090  192.1580 C.2    85  HIS85       0.2621
     22  O        253.3710  309.7300  191.6020 O.2    85  HIS85      -0.2715
     23  CB       256.2440  310.4450  192.2950 C.3    85  HIS85       0.0785
     24  CG       256.8290  311.5570  193.1020 C.ar   85  HIS85       0.0821
     25  ND1      256.8540  311.5450  194.4800 N.ar   85  HIS85      -0.2267
     26  CD2      257.4160  312.7160  192.7210 C.ar   85  HIS85       0.1154
     27  CE1      257.4170  312.6580  194.9140 C.ar   85  HIS85       0.1986
     28  NE2      257.7670  313.3850  193.8670 N.ar   85  HIS85      -0.2212
     29  N        254.2000  307.6920  192.0190 N.am   86  GLY86      -0.1940
     30  CA       253.1810  307.0130  191.2330 C.3    86  GLY86       0.2014
     31  C        253.6950  306.5680  189.8870 C.2    86  GLY86       0.2639
     32  O        253.0430  306.7800  188.8650 O.2    86  GLY86      -0.2714
     33  N        254.8650  305.9440  189.8950 N.am   87  LYS87      -0.1963
     34  CA       255.4430  305.4220  188.6840 C.3    87  LYS87       0.1728
     35  C        254.9300  304.0270  188.4700 C.2    87  LYS87       0.2617
     36  O        254.2980  303.7400  187.4580 O.2    87  LYS87      -0.2715
     37  CB       256.9520  305.3940  188.7950 C.3    87  LYS87       0.0311
     38  CG       257.5600  306.7680  188.9970 C.3    87  LYS87       0.0038
     39  CD       259.0750  306.6880  188.9280 C.3    87  LYS87       0.0206
     40  CE       259.6960  306.2750  190.2560 C.3    87  LYS87       0.1093
     41  NZ       259.7920  307.4260  191.2090 N.3    87  LYS87      -0.1314
     42  N        255.1890  303.1590  189.4420 N.am   88  SER88      -0.1936
     43  CA       254.8010  301.7550  189.3360 C.3    88  SER88       0.2055
     44  C        253.2810  301.6580  189.1460 C.2    88  SER88       0.2642
     45  O        252.7930  300.8090  188.4040 O.2    88  SER88      -0.2714
     46  CB       255.2960  300.9400  190.5590 C.3    88  SER88       0.2130
     47  OG       256.7080  301.0470  190.7650 O.3    88  SER88      -0.2179
     48  N        252.5590  302.5670  189.7940 N.am   89  ALA89      -0.1977
     49  CA       251.1080  302.6530  189.6810 C.3    89  ALA89       0.1597
     50  C        250.6280  303.2180  188.3510 C.2    89  ALA89       0.2287
     51  O        249.4740  303.0180  187.9790 O.2    89  ALA89      -0.2864
     52  CB       250.5550  303.4920  190.8160 C.3    89  ALA89       0.0319
     53  N        247.1750  298.4860  197.3420 N.3   109  SER109     -0.1217
     54  CA       247.5460  299.1460  196.0650 C.3   109  SER109      0.1889
     55  C        247.6150  298.3470  194.7350 C.2   109  SER109      0.2288
     56  O        247.1640  298.8530  193.7030 O.2   109  SER109     -0.2866
     57  CB       248.8930  299.8840  196.2410 C.3   109  SER109      0.2089
     58  OG       250.0070  299.0050  196.1320 O.3   109  SER109     -0.2183
     59  N        251.0410  296.4020  192.8180 N.3   111  ARG111     -0.1245
     60  CA       252.2600  297.0030  192.3110 C.3   111  ARG111      0.1563
     61  C        252.9010  296.1210  191.2610 C.2   111  ARG111      0.2260
     62  O        254.0820  295.7950  191.3560 O.2   111  ARG111     -0.2867
     63  CB       253.2260  297.2730  193.4630 C.3   111  ARG111      0.0307
     64  CG       252.7050  298.2820  194.4840 C.3   111  ARG111      0.0489
     65  CD       253.5880  298.4190  195.7210 C.3   111  ARG111      0.2205
     66  NE       253.9530  297.1310  196.3060 N.pl3 111  ARG111     -0.0865
     67  CZ       253.1020  296.2940  196.8960 C.cat 111  ARG111      0.5346
     68  NH1      251.8050  296.5870  196.9880 N.pl3 111  ARG111      0.1354
     69  NH2      253.5510  295.1430  197.3880 N.pl3 111  ARG111      0.1354
     70  N        257.7970  297.6470  200.2320 N.3   123  VAL123     -0.1231
     71  CA       256.7940  298.3440  199.4180 C.3   123  VAL123      0.1692
     72  C        257.4190  299.2710  198.3770 C.2   123  VAL123      0.2592
     73  O        256.8410  299.4550  197.3040 O.2   123  VAL123     -0.2718
     74  CB       255.7040  299.0670  200.2390 C.3   123  VAL123      0.0266
     75  CG1      254.6810  299.7230  199.3210 C.3   123  VAL123      0.0020
     76  CG2      254.9970  298.0670  201.1360 C.3   123  VAL123      0.0020
     77  N        258.5880  299.8390  198.6590 N.am  124  MET124     -0.1965
     78  CA       259.3000  300.6030  197.6360 C.3   124  MET124      0.1736
     79  C        259.7970  299.6640  196.5440 C.2   124  MET124      0.2617
     80  O        260.1640  298.5220  196.8240 O.2   124  MET124     -0.2715
     81  CB       260.4790  301.3500  198.2410 C.3   124  MET124      0.0427
     82  CG       261.6640  300.4630  198.5810 C.3   124  MET124      0.0599
     83  SD       262.6380  301.0970  199.9530 S.3   124  MET124     -0.1393
     84  CE       262.6030  302.8600  199.6240 C.3   124  MET124      0.0692
     85  N        259.7920  300.1400  195.3000 N.am  125  SER125     -0.1950
     86  CA       260.4460  299.4180  194.2080 C.3   125  SER125      0.1924
     87  C        261.9640  299.5080  194.4620 C.2   125  SER125      0.2314
     88  O        262.4250  300.4130  195.1650 O.2   125  SER125     -0.2863
     89  CB       260.0560  300.0090  192.8400 C.3   125  SER125      0.2116
     90  OG       258.6460  300.0760  192.6620 O.3   125  SER125     -0.2180
     91  N        261.5610  302.3970  187.0750 N.3   150  THR150     -0.1218
     92  CA       262.8220  302.5980  187.7290 C.3   150  THR150      0.1862
     93  C        262.5260  302.8980  189.1800 C.2   150  THR150      0.2287
     94  O        261.5300  303.5400  189.4890 O.2   150  THR150     -0.2866
     95  CB       263.5990  303.7650  187.0940 C.3   150  THR150      0.1770
     96  OG1      262.8330  304.9770  187.1910 O.3   150  THR150     -0.2211
     97  CG2      263.9090  303.4650  185.6210 C.3   150  THR150      0.0375
     98  N        262.4210  304.7390  192.5180 N.3   152  GLY152     -0.1225
     99  CA       262.3360  306.1430  192.8410 C.3   152  GLY152      0.1811
    100  C        263.0720  306.4910  194.1050 C.2   152  GLY152      0.2280
    101  O        263.2180  307.6760  194.4220 O.2   152  GLY152     -0.2866
    102  N        251.2930  313.6170  188.5160 N.3   203  ASN203     -0.1225
    103  CA       250.4650  312.6010  189.1110 C.3   203  ASN203      0.1785
    104  C        249.8460  313.0920  190.3950 C.2   203  ASN203      0.2597
    105  O        250.3180  314.0560  190.9870 O.2   203  ASN203     -0.2718
    106  CB       251.2740  311.3440  189.3820 C.3   203  ASN203      0.1169
    107  CG       250.3940  310.1350  189.6340 C.2   203  ASN203      0.2627
    108  OD1      249.4830  309.8510  188.8510 O.2   203  ASN203     -0.2716
    109  ND2      250.6460  309.4250  190.7360 N.am  203  ASN203     -0.0877
    110  N        248.7810  312.4140  190.8070 N.am  204  LYS204     -0.1980
    111  CA       248.1180  312.6340  192.0910 C.3   204  LYS204      0.1596
    112  C        247.3920  313.9570  192.1250 C.2   204  LYS204      0.2287
    113  O        247.4030  314.6540  193.1300 O.2   204  LYS204     -0.2864
    114  CB       249.0940  312.5170  193.2690 C.3   204  LYS204      0.0298
    115  CG       249.8720  311.2180  193.2950 C.3   204  LYS204      0.0038
    116  CD       250.1440  310.8180  194.7290 C.3   204  LYS204      0.0206
    117  CE       251.3450  309.8940  194.8590 C.3   204  LYS204      0.1093
    118  NZ       251.9350  309.9830  196.2300 N.3   204  LYS204     -0.1314
    119  N        244.0150  314.3340  191.6200 N.3   206  ASP206     -0.1225
    120  CA       242.8170  314.0390  192.4240 C.3   206  ASP206      0.1805
    121  C        243.0270  314.3420  193.9070 C.2   206  ASP206      0.2597
    122  O        242.1280  314.8490  194.5790 O.2   206  ASP206     -0.2718
    123  CB       242.4020  312.5640  192.2680 C.3   206  ASP206      0.1424
    124  CG       243.3860  311.5820  192.9440 C.2   206  ASP206      0.3668
    125  OD1      244.6040  311.8630  192.9660 O.co2 206  ASP206     -0.2456
    126  OD2      242.9420  310.5260  193.4520 O.co2 206  ASP206     -0.2456
    127  N        244.2240  314.0220  194.3930 N.am  207  ARG207     -0.1979
    128  CA       244.5960  314.1990  195.7820 C.3   207  ARG207      0.1597
    129  C        244.5050  315.6650  196.2020 C.2   207  ARG207      0.2287
    130  O        243.9990  315.9870  197.2750 O.2   207  ARG207     -0.2864
    131  CB       246.0140  313.6760  195.9760 C.3   207  ARG207      0.0334
    132  CG       246.3920  313.3920  197.4130 C.3   207  ARG207      0.0492
    133  CD       247.4920  312.3540  197.4750 C.3   207  ARG207      0.2205
    134  NE       248.3970  312.5580  198.5930 N.pl3 207  ARG207     -0.0865
    135  CZ       249.6060  313.0970  198.4920 C.cat 207  ARG207      0.5346
    136  NH1      250.1020  313.4850  197.3170 N.pl3 207  ARG207      0.1354
    137  NH2      250.3430  313.2290  199.5870 N.pl3 207  ARG207      0.1354
    138  N        242.4780  315.7330  199.4060 N.3   211  GLU211     -0.1245
    139  CA       243.3400  315.9270  200.5730 C.3   211  GLU211      0.1567
    140  C        243.4510  317.4120  200.9200 C.2   211  GLU211      0.2260
    141  O        243.0680  317.8360  202.0100 O.2   211  GLU211     -0.2867
    142  CB       244.7500  315.3780  200.3450 C.3   211  GLU211      0.0388
    143  CG       244.9720  313.9230  200.7300 C.3   211  GLU211      0.1160
    144  CD       246.4270  313.4860  200.5510 C.2   211  GLU211      0.3649
    145  OE1      247.3100  314.3560  200.3600 O.co2 211  GLU211     -0.2457
    146  OE2      246.6990  312.2660  200.5810 O.co2 211  GLU211     -0.2457
    147  N        245.8170  310.8410  187.5920 N.3   256  SER256     -0.1202
    148  CA       245.7910  310.2300  188.9060 C.3   256  SER256      0.2020
    149  C        245.6870  308.7360  188.6940 C.2   256  SER256      0.2619
    150  O        244.6900  308.2390  188.1740 O.2   256  SER256     -0.2717
    151  CB       244.6140  310.7520  189.7170 C.3   256  SER256      0.2103
    152  OG       243.4890  310.9380  188.8870 O.3   256  SER256     -0.2182
    153  N        246.7300  308.0230  189.0870 N.am  257  CYS257     -0.1955
    154  CA       246.8170  306.6040  188.8070 C.3   257  CYS257      0.1843
    155  C        246.0240  305.7680  189.8100 C.2   257  CYS257      0.2625
    156  O        245.8490  304.5650  189.6260 O.2   257  CYS257     -0.2714
    157  CB       248.2850  306.1820  188.7560 C.3   257  CYS257      0.0997
    158  SG       249.1990  307.0170  187.4290 S.3   257  CYS257     -0.0797
    159  N        245.5450  306.4120  190.8660 N.am  258  ASP258     -0.1971
    160  CA       244.6290  305.7840  191.8050 C.3   258  ASP258      0.1709
    161  C        243.2590  305.6150  191.1470 C.2   258  ASP258      0.2293
    162  O        242.7520  304.5030  191.0250 O.2   258  ASP258     -0.2864
    163  CB       244.5260  306.6430  193.0740 C.3   258  ASP258      0.1436
    164  CG       243.3560  306.2640  193.9610 C.2   258  ASP258      0.3671
    165  OD1      243.3400  305.1250  194.4790 O.co2 258  ASP258     -0.2456
    166  OD2      242.4580  307.1180  194.1440 O.co2 258  ASP258     -0.2456
    167  N        235.6600  305.6860  197.0130 N.3   358  LYS358     -0.1245
    168  CA       236.8190  305.5420  196.1550 C.3   358  LYS358      0.1561
    169  C        236.5870  304.5490  195.0040 C.2   358  LYS358      0.2260
    170  O        236.8920  304.8600  193.8540 O.2   358  LYS358     -0.2867
    171  CB       238.0410  305.1620  197.0040 C.3   358  LYS358      0.0271
    172  CG       239.2860  304.7830  196.2170 C.3   358  LYS358      0.0035
    173  CD       240.5480  304.8700  197.0660 C.3   358  LYS358      0.0206
    174  CE       240.7870  306.2700  197.6280 C.3   358  LYS358      0.1093
    175  NZ       240.5700  307.3740  196.6450 N.3   358  LYS358     -0.1314
@<TRIPOS>BOND
     1    97    95    1
     2    91    92    1
     3    95    96    1
     4    95    92    1
     5   158   157    1
     6    36    35    2
     7   147   148    1
     8    92    93    1
     9    51    50    2
    10   150   149    2
    11    50    49    1
    12    45    44    2
    13    35    34    1
    14    35    42   am
    15   102   103    1
    16    34    37    1
    17    34    33    1
    18   149   148    1
    19   149   153   am
    20   157   154    1
    21    37    38    1
    22   154   153    1
    23   154   155    1
    24   108   107    2
    25    32    31    2
    26   152   151    1
    27   148   151    1
    28    39    38    1
    29    39    40    1
    30   103   106    1
    31   103   104    1
    32    44    43    1
    33    44    48   am
    34    93    94    2
    35    43    42    1
    36    43    46    1
    37   106   107    1
    38   156   155    2
    39   107   109   am
    40    49    48    1
    41    49    52    1
    42   155   159   am
    43    31    33   am
    44    31    30    1
    45    40    41    1
    46   104   110   am
    47   104   105    2
    48    46    47    1
    49   110   111    1
    50   159   160    1
    51   162   161    2
    52   161   160    1
    53    30    29    1
    54    61    62    2
    55    61    60    1
    56    22    21    2
    57   119   120    1
    58   160   163    1
    59    29    21   am
    60   111   112    1
    61   111   114    1
    62   112   113    2
    63    21    20    1
    64   123   120    1
    65   123   124    1
    66    23    20    1
    67    23    24    1
    68    60    59    1
    69    60    63    1
    70   120   121    1
    71    98    99    1
    72    90    89    1
    73    26    24   ar
    74    26    28   ar
    75    89    86    1
    76    99   100    1
    77   124   125   ar
    78   124   126   ar
    79    20    19    1
    80   163   164    1
    81    24    25   ar
    82   114   115    1
    83   115   116    1
    84    63    64    1
    85    56    55    2
    86    19    11   am
    87   170   169    2
    88    28    27   ar
    89   121   127   am
    90   121   122    2
    91   164   166   ar
    92   164   165   ar
    93   100   101    2
    94    86    87    1
    95    86    85    1
    96   127   128    1
    97    87    88    2
    98    25    27   ar
    99    64    65    1
   100   116   117    1
   101    55    54    1
   102   117   118    1
   103     1     2    1
   104    11    12    2
   105    11    10    1
   106   169   168    1
   107    85    79   am
   108     9     3   am
   109     9    10    1
   110     3     4    2
   111     3     2    1
   112    65    66    1
   113     2     5    1
   114    10    13    1
   115   128   131    1
   116   128   129    1
   117   131   132    1
   118    54    57    1
   119    54    53    1
   120    58    57    1
   121   168   171    1
   122   168   167    1
   123   129   130    2
   124   172   171    1
   125   172   173    1
   126    66    67    2
   127    79    80    2
   128    79    78    1
   129   175   174    1
   130    67    68    1
   131    67    69    1
   132   173   174    1
   133    13    14    1
   134     5     6    1
   135    73    72    2
   136   136   135    1
   137   132   133    1
   138   133   134    1
   139    78    81    1
   140    78    77    1
   141     8     6    1
   142     6     7    1
   143    15    14   ar
   144    15    17   ar
   145    14    16   ar
   146    81    82    1
   147    72    77   am
   148    72    71    1
   149   135   134    2
   150   135   137    1
   151    82    83    1
   152    17    18   ar
   153    16    18   ar
   154    75    74    1
   155   138   139    1
   156    71    70    1
   157    71    74    1
   158    84    83    1
   159    74    76    1
   160   142   139    1
   161   142   143    1
   162   145   144   ar
   163   144   146   ar
   164   144   143    1
   165   139   140    1
   166   140   141    2
