@<TRIPOS>MOLECULE
tmp/3jbbE00.pdb
 207 200 0 0 0
SMALL
GASTEIGER

@<TRIPOS>ATOM
      1  N        175.9740  170.1600  166.4190 N.3    57  LEU57      -0.1231
      2  CA       174.5270  170.3370  166.2870 C.3    57  LEU57       0.1693
      3  C        174.1300  171.8140  166.2980 C.2    57  LEU57       0.2592
      4  O        173.3950  172.2870  165.4140 O.2    57  LEU57      -0.2718
      5  CB       173.7780  169.6060  167.4050 C.3    57  LEU57       0.0284
      6  CG       172.2660  169.8490  167.4130 C.3    57  LEU57       0.0019
      7  CD1      171.6410  169.3630  166.0980 C.3    57  LEU57       0.0001
      8  CD2      171.5990  169.1740  168.6320 C.3    57  LEU57       0.0001
      9  N        174.6200  172.5440  167.2940 N.am   58  PHE58      -0.1976
     10  CA       174.1970  173.9320  167.4560 C.3    58  PHE58       0.1639
     11  C        174.9970  174.9040  166.5920 C.2    58  PHE58       0.2290
     12  O        174.6060  176.0640  166.4350 O.2    58  PHE58      -0.2864
     13  CB       174.2390  174.3020  168.9430 C.3    58  PHE58       0.0560
     14  CG       173.2180  173.5320  169.7590 C.ar   58  PHE58      -0.0200
     15  CD1      171.8640  173.6540  169.4780 C.ar   58  PHE58      -0.0042
     16  CD2      173.6160  172.6580  170.7610 C.ar   58  PHE58      -0.0042
     17  CE1      170.9120  172.9370  170.1890 C.ar   58  PHE58      -0.0003
     18  CE2      172.6700  171.9490  171.4980 C.ar   58  PHE58      -0.0003
     19  CZ       171.3150  172.0810  171.2040 C.ar   58  PHE58      -0.0000
     20  N        167.9770  176.9080  167.4590 N.3    64  TYR64      -0.1241
     21  CA       167.4300  176.1350  168.5820 C.3    64  TYR64       0.1605
     22  C        167.7410  176.7600  169.9420 C.2    64  TYR64       0.2264
     23  O        167.0180  176.5100  170.9110 O.2    64  TYR64      -0.2867
     24  CB       167.9490  174.6910  168.5800 C.3    64  TYR64       0.0534
     25  CG       167.4980  173.8540  167.3980 C.ar   64  TYR64      -0.0201
     26  CD1      166.5460  174.3250  166.4980 C.ar   64  TYR64      -0.0009
     27  CD2      168.0330  172.5870  167.1890 C.ar   64  TYR64      -0.0009
     28  CE1      166.1540  173.5580  165.4040 C.ar   64  TYR64       0.0417
     29  CE2      167.6430  171.8120  166.1090 C.ar   64  TYR64       0.0417
     30  CZ       166.7060  172.2960  165.2240 C.ar   64  TYR64       0.1957
     31  OH       166.3260  171.5140  164.1530 O.3    64  TYR64      -0.2866
     32  N        163.5630  175.7610  170.8430 N.3    70  ASN70      -0.1225
     33  CA       163.1530  174.7670  171.8320 C.3    70  ASN70       0.1785
     34  C        164.1840  174.5920  172.9430 C.2    70  ASN70       0.2597
     35  O        163.8200  174.2420  174.0670 O.2    70  ASN70      -0.2718
     36  CB       162.8620  173.4180  171.1560 C.3    70  ASN70       0.1169
     37  CG       164.1280  172.5960  170.9030 C.2    70  ASN70       0.2627
     38  OD1      164.4850  171.7460  171.7090 O.2    70  ASN70      -0.2716
     39  ND2      164.8090  172.8590  169.7850 N.am   70  ASN70      -0.0877
     40  N        165.4580  174.8750  172.6360 N.am   71  ALA71      -0.1979
     41  CA       166.5550  174.6790  173.5830 C.3    71  ALA71       0.1597
     42  C        167.0620  176.0100  174.1370 C.2    71  ALA71       0.2287
     43  O        168.1900  176.1040  174.6310 O.2    71  ALA71      -0.2864
     44  CB       167.7130  173.9170  172.9220 C.3    71  ALA71       0.0319
     45  N        166.7690  174.1580  179.4460 N.3    76  GLN76      -0.1245
     46  CA       166.3030  173.4170  178.2790 C.3    76  GLN76       0.1566
     47  C        167.4960  172.8370  177.5100 C.2    76  GLN76       0.2260
     48  O        167.4810  171.6800  177.0970 O.2    76  GLN76      -0.2867
     49  CB       165.4460  174.3140  177.3840 C.3    76  GLN76       0.0367
     50  CG       164.0720  174.6710  177.9880 C.3    76  GLN76       0.0905
     51  CD       164.1600  175.5080  179.2670 C.2    76  GLN76       0.2608
     52  OE1      163.5300  175.1750  180.2800 O.2    76  GLN76      -0.2717
     53  NE2      164.9360  176.6030  179.2230 N.am   76  GLN76      -0.0878
     54  N        168.7650  169.8650  179.1400 N.3    79  GLN79      -0.1231
     55  CA       167.9030  168.6930  178.9660 C.3    79  GLN79       0.1698
     56  C        168.1710  168.0440  177.6130 C.2    79  GLN79       0.2592
     57  O        168.0780  166.8230  177.4790 O.2    79  GLN79      -0.2718
     58  CB       166.4140  169.0560  179.1030 C.3    79  GLN79       0.0381
     59  CG       165.5600  167.8920  179.6730 C.3    79  GLN79       0.0905
     60  CD       165.8080  167.6210  181.1680 C.2    79  GLN79       0.2608
     61  OE1      166.7700  168.1240  181.7640 O.2    79  GLN79      -0.2717
     62  NE2      164.9250  166.8260  181.7820 N.am   79  GLN79      -0.0878
     63  N        168.5190  168.8460  176.6070 N.am   80  CYS80      -0.1970
     64  CA       168.9700  168.2710  175.3370 C.3    80  CYS80       0.1712
     65  C        170.2230  167.4080  175.5190 C.2    80  CYS80       0.2296
     66  O        170.3180  166.3020  174.9660 O.2    80  CYS80      -0.2864
     67  CB       169.2520  169.3760  174.3080 C.3    80  CYS80       0.0983
     68  SG       170.0210  168.8180  172.7600 S.3    80  CYS80      -0.0798
     69  N        171.1080  165.9440  178.1840 N.3    82  ARG82      -0.1231
     70  CA       170.6350  164.7580  178.9070 C.3    82  ARG82       0.1694
     71  C        170.1150  163.7170  177.9090 C.2    82  ARG82       0.2592
     72  O        170.5160  162.5540  177.9660 O.2    82  ARG82      -0.2718
     73  CB       169.5400  165.1440  179.9270 C.3    82  ARG82       0.0321
     74  CG       169.1320  164.0490  180.9440 C.3    82  ARG82       0.0489
     75  CD       168.2260  162.9940  180.3320 C.3    82  ARG82       0.2205
     76  NE       167.0360  163.5290  179.6590 N.pl3  82  ARG82      -0.0865
     77  CZ       165.8710  163.7700  180.2520 C.cat  82  ARG82       0.5346
     78  NH1      165.7290  163.5730  181.5570 N.pl3  82  ARG82       0.1354
     79  NH2      164.8410  164.2240  179.5330 N.pl3  82  ARG82       0.1354
     80  N        169.2330  164.1400  177.0020 N.am   83  ASP83      -0.1960
     81  CA       168.6910  163.2450  175.9830 C.3    83  ASP83       0.1840
     82  C        169.8100  162.6320  175.1410 C.2    83  ASP83       0.2622
     83  O        169.7470  161.4580  174.7830 O.2    83  ASP83      -0.2715
     84  CB       167.7270  163.9590  175.0360 C.3    83  ASP83       0.1450
     85  CG       166.3980  164.3140  175.6820 C.2    83  ASP83       0.3671
     86  OD1      166.2290  164.1150  176.8980 O.co2  83  ASP83      -0.2456
     87  OD2      165.5240  164.8380  174.9500 O.co2  83  ASP83      -0.2456
     88  N        170.8010  163.4440  174.7810 N.am   84  TYR84      -0.1974
     89  CA       171.9390  162.9490  174.0120 C.3    84  TYR84       0.1639
     90  C        172.6150  161.7540  174.7030 C.2    84  TYR84       0.2290
     91  O        172.8990  160.7330  174.0750 O.2    84  TYR84      -0.2864
     92  CB       172.9600  164.0690  173.8140 C.3    84  TYR84       0.0560
     93  CG       173.1240  164.5910  172.3970 C.ar   84  TYR84      -0.0198
     94  CD1      172.8550  163.7890  171.2890 C.ar   84  TYR84      -0.0009
     95  CD2      173.5840  165.8940  172.1740 C.ar   84  TYR84      -0.0009
     96  CE1      173.0440  164.2770  169.9910 C.ar   84  TYR84       0.0417
     97  CE2      173.7820  166.3820  170.8940 C.ar   84  TYR84       0.0417
     98  CZ       173.5130  165.5720  169.8010 C.ar   84  TYR84       0.1957
     99  OH       173.7100  166.0690  168.5230 O.3    84  TYR84      -0.2866
    100  N        171.2880  159.8140  176.8670 N.3    86  TRP86      -0.1227
    101  CA       170.3630  158.6760  176.8750 C.3    86  TRP86       0.1737
    102  C        170.4010  157.8930  175.5630 C.2    86  TRP86       0.2595
    103  O        170.4110  156.6610  175.5910 O.2    86  TRP86      -0.2718
    104  CB       168.9290  159.1280  177.1670 C.3    86  TRP86       0.0564
    105  CG       168.6590  159.3100  178.6420 C.ar   86  TRP86       0.0003
    106  CD1      169.5410  159.1400  179.6740 C.ar   86  TRP86       0.0946
    107  CD2      167.4060  159.6690  179.2380 C.ar   86  TRP86       0.0152
    108  NE1      168.9140  159.3750  180.8750 N.ar   86  TRP86      -0.2442
    109  CE2      167.6040  159.7040  180.6340 C.ar   86  TRP86       0.0810
    110  CE3      166.1430  159.9860  178.7200 C.ar   86  TRP86       0.0012
    111  CZ2      166.5720  160.0250  181.5310 C.ar   86  TRP86       0.0191
    112  CZ3      165.1200  160.3150  179.6150 C.ar   86  TRP86       0.0001
    113  CH2      165.3440  160.3260  181.0010 C.ar   86  TRP86       0.0015
    114  N        170.4440  158.5780  174.4190 N.am   87  TYR87      -0.1976
    115  CA       170.4970  157.8390  173.1490 C.3    87  TYR87       0.1639
    116  C        171.8420  157.1370  172.9790 C.2    87  TYR87       0.2290
    117  O        171.8920  156.0390  172.4120 O.2    87  TYR87      -0.2864
    118  CB       170.1810  158.7490  171.9470 C.3    87  TYR87       0.0560
    119  CG       168.6770  158.8660  171.7780 C.ar   87  TYR87      -0.0198
    120  CD1      167.9240  157.7800  171.3290 C.ar   87  TYR87      -0.0009
    121  CD2      168.0010  160.0360  172.1190 C.ar   87  TYR87      -0.0009
    122  CE1      166.5280  157.8530  171.2100 C.ar   87  TYR87       0.0417
    123  CE2      166.6010  160.1220  172.0150 C.ar   87  TYR87       0.0417
    124  CZ       165.8790  159.0350  171.5550 C.ar   87  TYR87       0.1957
    125  OH       164.5060  159.1290  171.4550 O.3    87  TYR87      -0.2866
    126  N        173.4660  155.8190  175.4060 N.3    89  ARG89      -0.1231
    127  CA       173.2780  154.6540  176.2690 C.3    89  ARG89       0.1694
    128  C        172.4440  153.5780  175.5610 C.2    89  ARG89       0.2591
    129  O        172.7680  152.3880  175.6180 O.2    89  ARG89      -0.2718
    130  CB       172.6210  155.0970  177.5850 C.3    89  ARG89       0.0321
    131  CG       172.2600  153.9830  178.5590 C.3    89  ARG89       0.0489
    132  CD       171.8860  154.5860  179.9250 C.3    89  ARG89       0.2205
    133  NE       170.7690  155.5310  179.8340 N.pl3  89  ARG89      -0.0865
    134  CZ       169.4820  155.1730  179.8150 C.cat  89  ARG89       0.5346
    135  NH1      169.1410  153.8820  179.8600 N.pl3  89  ARG89       0.1354
    136  NH2      168.5370  156.0980  179.7420 N.pl3  89  ARG89       0.1354
    137  N        171.3910  153.9900  174.8640 N.am   90  LEU90      -0.1980
    138  CA       170.5650  153.0140  174.1470 C.3    90  LEU90       0.1596
    139  C        171.3480  152.3140  173.0400 C.2    90  LEU90       0.2287
    140  O        171.1660  151.1120  172.8060 O.2    90  LEU90      -0.2864
    141  CB       169.3190  153.6820  173.5680 C.3    90  LEU90       0.0297
    142  CG       168.3680  154.2940  174.5960 C.3    90  LEU90       0.0022
    143  CD1      167.0790  154.7520  173.8870 C.3    90  LEU90       0.0001
    144  CD2      168.0270  153.3300  175.7400 C.3    90  LEU90       0.0001
    145  N        162.6070  151.4310  174.0570 N.3   106  THR106     -0.1203
    146  CA       162.8170  152.4920  175.0490 C.3   106  THR106      0.1994
    147  C        162.8310  153.8850  174.4220 C.2   106  THR106      0.2618
    148  O        162.3240  154.8450  175.0200 O.2   106  THR106     -0.2717
    149  CB       164.1340  152.2540  175.8530 C.3   106  THR106      0.1784
    150  OG1      163.9550  151.1310  176.7270 O.3   106  THR106     -0.2211
    151  CG2      164.4800  153.4630  176.7270 C.3   106  THR106      0.0376
    152  N        163.3800  154.0090  173.2130 N.am  107  GLY107     -0.1956
    153  CA       163.6130  155.3340  172.6580 C.3   107  GLY107      0.1869
    154  C        163.0310  155.6690  171.3000 C.2   107  GLY107      0.2309
    155  O        163.2110  156.7960  170.8390 O.2   107  GLY107     -0.2863
    156  N        156.1130  162.0870  171.2880 N.3   114  MET114     -0.1230
    157  CA       156.7230  162.7380  172.4400 C.3   114  MET114      0.1702
    158  C        157.3580  164.0690  172.0470 C.2   114  MET114      0.2592
    159  O        157.0370  165.1110  172.6230 O.2   114  MET114     -0.2718
    160  CB       157.7630  161.8190  173.0990 C.3   114  MET114      0.0401
    161  CG       158.4720  162.5090  174.2730 C.3   114  MET114      0.0596
    162  SD       159.8020  161.5560  175.0060 S.3   114  MET114     -0.1393
    163  CE       161.1120  161.8480  173.8110 C.3   114  MET114      0.0692
    164  N        158.2630  164.0550  171.0690 N.am  115  TYR115     -0.1976
    165  CA       158.9730  165.2900  170.7710 C.3   115  TYR115      0.1639
    166  C        158.0560  166.3470  170.1520 C.2   115  TYR115      0.2290
    167  O        158.2460  167.5330  170.4100 O.2   115  TYR115     -0.2864
    168  CB       160.1830  165.0260  169.8740 C.3   115  TYR115      0.0560
    169  CG       161.4050  164.5790  170.6540 C.ar  115  TYR115     -0.0198
    170  CD1      161.9170  165.3560  171.6890 C.ar  115  TYR115     -0.0009
    171  CD2      162.0460  163.3840  170.3550 C.ar  115  TYR115     -0.0009
    172  CE1      163.0550  164.9610  172.4050 C.ar  115  TYR115      0.0417
    173  CE2      163.1720  162.9730  171.0580 C.ar  115  TYR115      0.0417
    174  CZ       163.6720  163.7610  172.0780 C.ar  115  TYR115      0.1957
    175  OH       164.7860  163.3360  172.7690 O.3   115  TYR115     -0.2866
    176  N        156.5550  168.1200  172.9130 N.3   118  LEU118     -0.1245
    177  CA       157.5450  168.9680  173.5700 C.3   118  LEU118      0.1561
    178  C        157.9820  170.1570  172.7080 C.2   118  LEU118      0.2260
    179  O        158.7620  170.9910  173.1570 O.2   118  LEU118     -0.2867
    180  CB       158.7810  168.1310  173.9460 C.3   118  LEU118      0.0270
    181  CG       158.5180  166.9990  174.9480 C.3   118  LEU118      0.0019
    182  CD1      159.7380  166.1140  175.0770 C.3   118  LEU118      0.0001
    183  CD2      158.1390  167.5870  176.3080 C.3   118  LEU118      0.0001
    184  N        159.9600  169.9760  170.2660 N.3   120  VAL120     -0.1245
    185  CA       161.3290  169.7320  169.7850 C.3   120  VAL120      0.1561
    186  C        161.2430  169.2420  168.3420 C.2   120  VAL120      0.2260
    187  O        160.5800  168.2440  168.0640 O.2   120  VAL120     -0.2867
    188  CB       162.0470  168.6840  170.6470 C.3   120  VAL120      0.0252
    189  CG1      163.4710  168.4220  170.1350 C.3   120  VAL120      0.0019
    190  CG2      162.0620  169.1160  172.1090 C.3   120  VAL120      0.0019
    191  N        165.3980  168.0970  163.8240 N.3   124  GLY124     -0.1210
    192  CA       166.5100  168.4740  164.6810 C.3   124  GLY124      0.1956
    193  C        167.0930  167.2600  165.3800 C.2   124  GLY124      0.2611
    194  O        168.3100  167.1500  165.5460 O.2   124  GLY124     -0.2717
    195  N        166.2250  166.3380  165.7870 N.am  125  MET125     -0.1979
    196  CA       166.6780  165.1010  166.4160 C.3   125  MET125      0.1605
    197  C        167.4210  164.2180  165.4070 C.2   125  MET125      0.2287
    198  O        168.3950  163.5700  165.7590 O.2   125  MET125     -0.2864
    199  CB       165.4980  164.3280  167.0330 C.3   125  MET125      0.0413
    200  CG       165.0290  164.9090  168.3610 C.3   125  MET125      0.0598
    201  SD       166.3160  164.9390  169.6330 S.3   125  MET125     -0.1393
    202  CE       166.7140  163.2050  169.8270 C.3   125  MET125      0.0692
    203  N        170.6950  165.7170  165.1450 N.3   128  ALA128     -0.1245
    204  CA       171.4180  165.5150  166.4010 C.3   128  ALA128      0.1562
    205  C        172.0690  164.1320  166.4680 C.2   128  ALA128      0.2260
    206  O        173.2390  163.9930  166.8470 O.2   128  ALA128     -0.2867
    207  CB       170.4870  165.7000  167.5880 C.3   128  ALA128      0.0290
@<TRIPOS>BOND
     1   191   192    1
     2    31    30    1
     3   192   193    1
     4   203   204    1
     5    30    28   ar
     6    30    29   ar
     7   193   194    2
     8   193   195   am
     9    28    26   ar
    10   197   198    2
    11   197   196    1
    12     4     3    2
    13   195   196    1
    14     7     6    1
    15    29    27   ar
    16     2     3    1
    17     2     1    1
    18     2     5    1
    19     3     9   am
    20   204   205    1
    21   204   207    1
    22   196   199    1
    23    12    11    2
    24   205   206    2
    25    26    25   ar
    26    11    10    1
    27   199   200    1
    28    27    25   ar
    29     9    10    1
    30    25    24    1
    31     5     6    1
    32     6     8    1
    33    10    13    1
    34    20    21    1
    35   187   186    2
    36   186   185    1
    37   200   201    1
    38    99    98    1
    39    24    21    1
    40    21    22    1
    41    13    14    1
    42    15    14   ar
    43    15    17   ar
    44   201   202    1
    45    14    16   ar
    46    39    37   am
    47   185   184    1
    48   185   188    1
    49    98    96   ar
    50    98    97   ar
    51   168   169    1
    52   168   165    1
    53    22    23    2
    54    96    94   ar
    55   189   188    1
    56   166   167    2
    57   166   165    1
    58    17    19   ar
    59   171   169   ar
    60   171   173   ar
    61   188   190    1
    62   169   170   ar
    63    16    18   ar
    64   165   164    1
    65   155   154    2
    66    32    33    1
    67    97    95   ar
    68    37    36    1
    69    37    38    2
    70   173   174   ar
    71   164   158   am
    72    36    33    1
    73    19    18   ar
    74   122   120   ar
    75   122   124   ar
    76   156   157    1
    77    94    93   ar
    78   154   153    1
    79   120   119   ar
    80   125   124    1
    81   124   123   ar
    82   170   172   ar
    83   119   118    1
    84   119   121   ar
    85    33    34    1
    86   118   115    1
    87   123   121   ar
    88   158   157    1
    89   158   159    2
    90   174   172   ar
    91   174   175    1
    92    95    93   ar
    93    93    92    1
    94   117   116    2
    95   157   160    1
    96    40    34   am
    97    40    41    1
    98   153   152    1
    99   178   179    2
   100   178   177    1
   101    68    67    1
   102   140   139    2
   103   176   177    1
   104    44    41    1
   105    34    35    2
   106   116   115    1
   107   139   138    1
   108   160   161    1
   109   115   114    1
   110   152   147   am
   111   141   138    1
   112   141   142    1
   113   177   180    1
   114    41    42    1
   115   163   162    1
   116    92    89    1
   117   143   142    1
   118   180   181    1
   119    89    90    1
   120    89    88    1
   121   145   146    1
   122    91    90    2
   123    42    43    2
   124   138   137    1
   125   161   162    1
   126    67    64    1
   127   114   102   am
   128   147   148    2
   129   147   146    1
   130   142   144    1
   131    88    82   am
   132    83    82    2
   133   137   128   am
   134   181   182    1
   135   181   183    1
   136    87    85   ar
   137    66    65    2
   138    84    85    1
   139    84    81    1
   140   146   149    1
   141    82    81    1
   142    64    65    1
   143    64    63    1
   144   126   127    1
   145   128   129    2
   146   128   127    1
   147   102   103    2
   148   102   101    1
   149    85    86   ar
   150   149   150    1
   151   149   151    1
   152    81    80    1
   153   127   130    1
   154    63    56   am
   155   100   101    1
   156   101   104    1
   157    80    71   am
   158    48    47    2
   159   104   105    1
   160    49    50    1
   161    49    46    1
   162    57    56    2
   163    47    46    1
   164   130   131    1
   165    56    55    1
   166    71    72    2
   167    71    70    1
   168    50    51    1
   169    69    70    1
   170    46    45    1
   171   131   132    1
   172   105   107   ar
   173   105   106   ar
   174   110   107   ar
   175   110   112   ar
   176    70    73    1
   177    55    58    1
   178    55    54    1
   179    58    59    1
   180    53    51   am
   181   107   109   ar
   182    51    52    2
   183    79    77    1
   184   112   113   ar
   185    76    77    2
   186    76    75    1
   187    59    60    1
   188   106   108   ar
   189   136   134    1
   190   134   133    2
   191   134   135    1
   192   133   132    1
   193    73    74    1
   194    77    78    1
   195    75    74    1
   196   109   108   ar
   197   109   111   ar
   198   113   111   ar
   199    60    61    2
   200    60    62   am
