@<TRIPOS>MOLECULE
tmp/3jbgA00.pdb
 169 159 0 0 0
SMALL
GASTEIGER

@<TRIPOS>ATOM
      1  N         30.1910   61.4190  119.0870 N.3    91  ILE91      -0.1231
      2  CA        29.4590   60.2790  118.5670 C.3    91  ILE91       0.1692
      3  C         30.1190   58.9030  118.7310 C.2    91  ILE91       0.2593
      4  O         31.1070   58.6000  118.0630 O.2    91  ILE91      -0.2718
      5  CB        29.0820   60.4620  117.0770 C.3    91  ILE91       0.0266
      6  CG1       28.4150   61.8150  116.8600 C.3    91  ILE91       0.0019
      7  CG2       28.1770   59.3230  116.6190 C.3    91  ILE91       0.0020
      8  CD1       28.1990   62.1490  115.4130 C.3    91  ILE91       0.0001
      9  N         29.5400   58.1150  119.6150 N.am   92  THR92      -0.1939
     10  CA        30.0360   56.7880  119.8790 C.3    92  THR92       0.2028
     11  C         28.9370   55.9700  120.5440 C.2    92  THR92       0.2642
     12  O         28.2840   56.4680  121.4720 O.2    92  THR92      -0.2714
     13  CB        31.3390   56.7680  120.7480 C.3    92  THR92       0.1808
     14  OG1       31.7220   55.4140  121.0300 O.3    92  THR92      -0.2208
     15  CG2       31.1890   57.5300  122.0700 C.3    92  THR92       0.0379
     16  N         28.7620   54.7550  120.0640 N.am   93  TYR93      -0.1973
     17  CA        27.7420   53.8830  120.6150 C.3    93  TYR93       0.1639
     18  C         28.1210   53.3240  121.9920 C.2    93  TYR93       0.2290
     19  O         27.2500   52.9750  122.7930 O.2    93  TYR93      -0.2864
     20  CB        27.4010   52.7440  119.6490 C.3    93  TYR93       0.0560
     21  CG        28.5540   51.8460  119.2890 C.ar   93  TYR93      -0.0198
     22  CD1       29.3590   52.1240  118.1880 C.ar   93  TYR93      -0.0009
     23  CD2       28.8360   50.7100  120.0410 C.ar   93  TYR93      -0.0009
     24  CE1       30.4200   51.2980  117.8480 C.ar   93  TYR93       0.0417
     25  CE2       29.8930   49.8760  119.7120 C.ar   93  TYR93       0.0417
     26  CZ        30.6830   50.1730  118.6170 C.ar   93  TYR93       0.1957
     27  OH        31.7330   49.3440  118.2900 O.3    93  TYR93      -0.2866
     28  N         25.9760   44.6530  119.5440 N.3   103  LEU103     -0.1245
     29  CA        26.9580   44.8590  118.4990 C.3   103  LEU103      0.1561
     30  C         28.3060   44.1980  118.7660 C.2   103  LEU103      0.2260
     31  O         29.2680   44.4540  118.0270 O.2   103  LEU103     -0.2867
     32  CB        27.1790   46.3530  118.2010 C.3   103  LEU103      0.0270
     33  CG        26.0930   47.2050  117.5510 C.3   103  LEU103      0.0019
     34  CD1       26.4870   48.6680  117.6170 C.3   103  LEU103      0.0001
     35  CD2       25.8250   46.7790  116.1160 C.3   103  LEU103      0.0001
     36  N         26.9550   48.6430  107.7640 N.3   111  PHE111     -0.1241
     37  CA        25.5490   49.0100  107.8070 C.3   111  PHE111      0.1605
     38  C         25.2250   50.4840  107.5510 C.2   111  PHE111      0.2264
     39  O         26.0200   51.3660  107.9010 O.2   111  PHE111     -0.2867
     40  CB        24.9130   48.6090  109.1480 C.3   111  PHE111      0.0534
     41  CG        25.5990   49.1820  110.3570 C.ar  111  PHE111     -0.0203
     42  CD1       25.2430   50.4330  110.8590 C.ar  111  PHE111     -0.0042
     43  CD2       26.5910   48.4600  111.0120 C.ar  111  PHE111     -0.0042
     44  CE1       25.8740   50.9540  111.9810 C.ar  111  PHE111     -0.0003
     45  CE2       27.2220   48.9770  112.1350 C.ar  111  PHE111     -0.0003
     46  CZ        26.8640   50.2240  112.6210 C.ar  111  PHE111     -0.0000
     47  N         23.1310   53.5630  108.5390 N.3   113  MET113     -0.1245
     48  CA        22.6040   53.9270  109.8430 C.3   113  MET113      0.1570
     49  C         21.4800   54.9720  109.8720 C.2   113  MET113      0.2261
     50  O         21.6280   56.0690  109.3130 O.2   113  MET113     -0.2867
     51  CB        23.7570   54.3880  110.6950 C.3   113  MET113      0.0387
     52  CG        23.3670   54.6400  112.1240 C.3   113  MET113      0.0595
     53  SD        24.7140   55.5080  112.9050 S.3   113  MET113     -0.1393
     54  CE        24.6370   57.0200  111.9590 C.3   113  MET113      0.0692
     55  N         19.2240   57.3780  112.1530 N.3   115  LEU115     -0.1245
     56  CA        19.1690   58.0330  113.4480 C.3   115  LEU115      0.1561
     57  C         17.8750   58.8120  113.6570 C.2   115  LEU115      0.2260
     58  O         17.4950   59.6110  112.7990 O.2   115  LEU115     -0.2867
     59  CB        20.3200   59.0120  113.6700 C.3   115  LEU115      0.0270
     60  CG        21.7730   58.5970  113.7480 C.3   115  LEU115      0.0019
     61  CD1       22.5550   59.8500  114.0530 C.3   115  LEU115      0.0001
     62  CD2       22.0120   57.5860  114.8490 C.3   115  LEU115      0.0001
     63  N         15.7280   61.2350  116.4480 N.3   117  PHE117     -0.1241
     64  CA        15.9060   62.0870  117.6090 C.3   117  PHE117      0.1605
     65  C         14.6180   62.4940  118.3230 C.2   117  PHE117      0.2264
     66  O         13.7750   63.1990  117.7320 O.2   117  PHE117     -0.2867
     67  CB        16.5660   63.4180  117.1880 C.3   117  PHE117      0.0534
     68  CG        17.8970   63.2840  116.5100 C.ar  117  PHE117     -0.0203
     69  CD1       17.9830   62.9900  115.1470 C.ar  117  PHE117     -0.0042
     70  CD2       19.0730   63.4880  117.2240 C.ar  117  PHE117     -0.0042
     71  CE1       19.2190   62.8750  114.5210 C.ar  117  PHE117     -0.0003
     72  CE2       20.3110   63.3790  116.6020 C.ar  117  PHE117     -0.0003
     73  CZ        20.3850   63.0720  115.2500 C.ar  117  PHE117     -0.0000
     74  N         20.5970   70.5190  115.2460 N.3   138  ILE138     -0.1245
     75  CA        21.4270   69.3660  115.4960 C.3   138  ILE138      0.1561
     76  C         22.4180   69.4090  114.3310 C.2   138  ILE138      0.2260
     77  O         22.0350   69.1930  113.1740 O.2   138  ILE138     -0.2867
     78  CB        20.6020   68.0670  115.5580 C.3   138  ILE138      0.0252
     79  CG1       19.4530   68.2160  116.5740 C.3   138  ILE138      0.0019
     80  CG2       21.5070   66.8790  115.8830 C.3   138  ILE138      0.0019
     81  CD1       18.4630   67.0650  116.6240 C.3   138  ILE138      0.0001
     82  N         25.9580   68.0240  112.6570 N.3   140  TYR140     -0.1241
     83  CA        26.9710   66.9990  112.5950 C.3   140  TYR140      0.1605
     84  C         28.2690   67.6870  112.2040 C.2   140  TYR140      0.2264
     85  O         28.3380   68.2950  111.1290 O.2   140  TYR140     -0.2867
     86  CB        26.6580   65.9640  111.5400 C.3   140  TYR140      0.0534
     87  CG        27.6210   64.8130  111.5200 C.ar  140  TYR140     -0.0201
     88  CD1       28.7210   64.7890  110.6590 C.ar  140  TYR140     -0.0009
     89  CD2       27.4340   63.7450  112.3660 C.ar  140  TYR140     -0.0009
     90  CE1       29.5990   63.7190  110.6540 C.ar  140  TYR140      0.0417
     91  CE2       28.3010   62.6800  112.3640 C.ar  140  TYR140      0.0417
     92  CZ        29.3750   62.6680  111.5110 C.ar  140  TYR140      0.1957
     93  OH        30.2190   61.5930  111.5290 O.3   140  TYR140     -0.2866
     94  N         26.1260   68.9000  107.6250 N.3   162  PRO162     -0.2116
     95  CA        24.6760   68.6340  107.5670 C.3   162  PRO162      0.1372
     96  C         24.0670   69.0260  108.9050 C.2   162  PRO162      0.2244
     97  O         24.6800   68.7710  109.9360 O.2   162  PRO162     -0.2868
     98  CB        24.5760   67.1350  107.2980 C.3   162  PRO162      0.0268
     99  CG        25.8810   66.5670  107.7240 C.3   162  PRO162      0.0207
    100  CD        26.9150   67.6500  107.6100 C.3   162  PRO162      0.0892
    101  N         20.1280   69.5640  111.1100 N.3   164  ILE164     -0.1245
    102  CA        18.6990   69.3480  111.1770 C.3   164  ILE164      0.1561
    103  C         18.0620   70.3660  112.1110 C.2   164  ILE164      0.2260
    104  O         18.4160   70.4060  113.2910 O.2   164  ILE164     -0.2867
    105  CB        18.3490   67.9530  111.7780 C.3   164  ILE164      0.0252
    106  CG1       19.1270   66.8150  111.1120 C.3   164  ILE164      0.0019
    107  CG2       16.8440   67.7010  111.7210 C.3   164  ILE164      0.0019
    108  CD1       18.9440   65.4830  111.8070 C.3   164  ILE164      0.0001
    109  N         17.1890   60.8490  110.1270 N.3   175  ILE175     -0.1245
    110  CA        18.0520   60.8740  108.9660 C.3   175  ILE175      0.1561
    111  C         18.7620   59.5350  108.7300 C.2   175  ILE175      0.2260
    112  O         18.8460   58.7030  109.6500 O.2   175  ILE175     -0.2867
    113  CB        19.1170   61.9730  109.0860 C.3   175  ILE175      0.0252
    114  CG1       19.7810   61.8710  110.4480 C.3   175  ILE175      0.0019
    115  CG2       18.5000   63.3500  108.9000 C.3   175  ILE175      0.0019
    116  CD1       20.8880   62.8460  110.6350 C.3   175  ILE175      0.0001
    117  N         22.3030   57.5870  107.1070 N.3   177  VAL177     -0.1245
    118  CA        23.7050   57.7720  106.8170 C.3   177  VAL177      0.1561
    119  C         24.2210   56.4920  106.1810 C.2   177  VAL177      0.2260
    120  O         23.8810   55.3880  106.6930 O.2   177  VAL177     -0.2867
    121  CB        24.4550   58.0750  108.1420 C.3   177  VAL177      0.0252
    122  CG1       25.9460   58.2530  107.9230 C.3   177  VAL177      0.0019
    123  CG2       23.8850   59.3150  108.8050 C.3   177  VAL177      0.0019
    124  N         29.7920   54.6890  106.4610 N.3   180  VAL180     -0.1245
    125  CA        30.8390   55.6950  106.3640 C.3   180  VAL180      0.1561
    126  C         32.2300   55.3680  106.8850 C.2   180  VAL180      0.2260
    127  O         33.0280   56.2930  107.1040 O.2   180  VAL180     -0.2867
    128  CB        30.4170   57.0430  107.0030 C.3   180  VAL180      0.0252
    129  CG1       29.2730   57.6710  106.2230 C.3   180  VAL180      0.0019
    130  CG2       30.0800   56.8910  108.4830 C.3   180  VAL180      0.0019
    131  N         33.3360   48.1350  109.6220 N.3   186  TYR186     -0.1241
    132  CA        33.6610   48.7660  110.9020 C.3   186  TYR186      0.1605
    133  C         34.2370   47.6870  111.8000 C.2   186  TYR186      0.2264
    134  O         33.7880   46.5340  111.7190 O.2   186  TYR186     -0.2867
    135  CB        32.4650   49.3680  111.6770 C.3   186  TYR186      0.0534
    136  CG        31.6900   50.5000  111.0470 C.ar  186  TYR186     -0.0201
    137  CD1       32.2720   51.7470  110.8490 C.ar  186  TYR186     -0.0009
    138  CD2       30.3470   50.3380  110.6950 C.ar  186  TYR186     -0.0009
    139  CE1       31.5560   52.7890  110.2810 C.ar  186  TYR186      0.0417
    140  CE2       29.6210   51.3800  110.1320 C.ar  186  TYR186      0.0417
    141  CZ        30.2330   52.6020  109.9260 C.ar  186  TYR186      0.1957
    142  OH        29.5250   53.6400  109.3670 O.3   186  TYR186     -0.2866
    143  N         34.1000   59.1620  114.3780 N.3   218  PHE218     -0.1241
    144  CA        33.0640   59.6570  113.4860 C.3   218  PHE218      0.1605
    145  C         32.7170   61.1300  113.6320 C.2   218  PHE218      0.2264
    146  O         31.9160   61.6460  112.8390 O.2   218  PHE218     -0.2867
    147  CB        31.8010   58.7700  113.4950 C.3   218  PHE218      0.0534
    148  CG        32.0820   57.2980  113.3750 C.ar  218  PHE218     -0.0203
    149  CD1       33.0310   56.8090  112.4710 C.ar  218  PHE218     -0.0042
    150  CD2       31.3600   56.3870  114.1340 C.ar  218  PHE218     -0.0042
    151  CE1       33.2810   55.4450  112.3660 C.ar  218  PHE218     -0.0003
    152  CE2       31.5940   55.0200  114.0270 C.ar  218  PHE218     -0.0003
    153  CZ        32.5550   54.5480  113.1440 C.ar  218  PHE218     -0.0000
    154  N         28.2040   65.5160  117.4040 N.3   221  LEU221     -0.1245
    155  CA        26.9190   66.1270  117.1460 C.3   221  LEU221      0.1561
    156  C         26.8090   67.2840  118.1190 C.2   221  LEU221      0.2260
    157  O         26.9150   67.0690  119.3190 O.2   221  LEU221     -0.2867
    158  CB        25.7080   65.1870  117.3630 C.3   221  LEU221      0.0270
    159  CG        25.3240   64.0000  116.4700 C.3   221  LEU221      0.0019
    160  CD1       24.1360   63.2460  117.0470 C.3   221  LEU221      0.0001
    161  CD2       25.0130   64.4280  115.0440 C.3   221  LEU221      0.0001
    162  N         19.6770   54.8110  117.3480 N.3   242  LEU242     -0.1245
    163  CA        20.3600   54.2660  116.2010 C.3   242  LEU242      0.1561
    164  C         19.7980   52.9020  115.8000 C.2   242  LEU242      0.2260
    165  O         19.5840   52.0450  116.6640 O.2   242  LEU242     -0.2867
    166  CB        21.8460   54.1830  116.5730 C.3   242  LEU242      0.0270
    167  CG        23.0150   53.7990  115.6660 C.3   242  LEU242      0.0019
    168  CD1       24.3240   54.0480  116.4020 C.3   242  LEU242      0.0001
    169  CD2       22.9710   52.3740  115.1280 C.3   242  LEU242      0.0001
@<TRIPOS>BOND
     1   119   120    2
     2   119   118    1
     3   129   128    1
     4   125   124    1
     5   125   126    1
     6   125   128    1
     7   118   117    1
     8   118   121    1
     9   126   127    2
    10   128   130    1
    11    98    95    1
    12    98    99    1
    13    38    37    1
    14    38    39    2
    15    95    94    1
    16    95    96    1
    17   100    94    1
    18   100    99    1
    19    36    37    1
    20    37    40    1
    21   122   121    1
    22   121   123    1
    23    47    48    1
    24   111   110    1
    25   111   112    2
    26   115   113    1
    27    96    97    2
    28   110   113    1
    29   110   109    1
    30   113   114    1
    31    40    41    1
    32    50    49    2
    33   142   141    1
    34   131   132    1
    35    48    49    1
    36    48    51    1
    37   141   140   ar
    38   141   139   ar
    39   140   138   ar
    40   139   137   ar
    41    41    42   ar
    42    41    43   ar
    43   114   116    1
    44    90    88   ar
    45    90    92   ar
    46    88    87   ar
    47    51    52    1
    48   138   136   ar
    49   137   136   ar
    50    42    44   ar
    51   132   135    1
    52   132   133    1
    53    43    45   ar
    54   136   135    1
    55   101   102    1
    56   106   105    1
    57   106   108    1
    58    85    84    2
    59   102   105    1
    60   102   103    1
    61    92    93    1
    62    92    91   ar
    63    87    86    1
    64    87    89   ar
    65    86    83    1
    66   134   133    2
    67   107   105    1
    68    54    53    1
    69    44    46   ar
    70   103   104    2
    71    52    53    1
    72    45    46   ar
    73    55    56    1
    74    84    83    1
    75    91    89   ar
    76   151   149   ar
    77   151   153   ar
    78   149   148   ar
    79    83    82    1
    80    58    57    2
    81   146   145    2
    82   153   152   ar
    83    77    76    2
    84   148   147    1
    85   148   150   ar
    86    56    57    1
    87    56    59    1
    88   144   147    1
    89   144   145    1
    90   144   143    1
    91    59    60    1
    92    60    61    1
    93    60    62    1
    94   152   150   ar
    95    76    75    1
    96    71    69   ar
    97    71    73   ar
    98   161   159    1
    99   169   167    1
   100    69    68   ar
   101    74    75    1
   102    73    72   ar
   103     8     6    1
   104    75    78    1
   105    78    80    1
   106    78    79    1
   107   167   168    1
   108   167   166    1
   109   164   163    1
   110   164   165    2
   111    35    33    1
   112   163   166    1
   113   163   162    1
   114    63    64    1
   115   159   160    1
   116   159   158    1
   117    68    67    1
   118    68    70   ar
   119    79    81    1
   120    72    70   ar
   121     7     5    1
   122     6     5    1
   123     5     2    1
   124   155   158    1
   125   155   154    1
   126   155   156    1
   127    67    64    1
   128    33    34    1
   129    33    32    1
   130    64    65    1
   131    66    65    2
   132    24    22   ar
   133    24    26   ar
   134    31    30    2
   135     4     3    2
   136   156   157    2
   137    22    21   ar
   138    32    29    1
   139    27    26    1
   140    29    30    1
   141    29    28    1
   142     2     3    1
   143     2     1    1
   144    26    25   ar
   145     3     9   am
   146    21    20    1
   147    21    23   ar
   148     9    10    1
   149    20    17    1
   150    25    23   ar
   151    10    11    1
   152    10    13    1
   153    16    11   am
   154    16    17    1
   155    11    12    2
   156    17    18    1
   157    13    14    1
   158    13    15    1
   159    18    19    2
