@<TRIPOS>MOLECULE
tmp/3jbzA00.pdb
 162 152 0 0 0
SMALL
GASTEIGER

@<TRIPOS>ATOM
      1  N        -10.7960  -37.2800  -49.4240 N.3   629  ILE629     -0.1245
      2  CA       -11.2620  -37.4580  -48.0530 C.3   629  ILE629      0.1561
      3  C        -12.1810  -36.2890  -47.7150 C.2   629  ILE629      0.2260
      4  O        -11.7350  -35.1390  -47.6320 O.2   629  ILE629     -0.2867
      5  CB       -10.0810  -37.5120  -47.0480 C.3   629  ILE629      0.0252
      6  CG1       -9.1560  -38.7150  -47.3250 C.3   629  ILE629      0.0019
      7  CG2      -10.5790  -37.4740  -45.6020 C.3   629  ILE629      0.0019
      8  CD1       -9.7210  -40.0860  -46.9880 C.3   629  ILE629      0.0001
      9  N        -13.9570  -33.7840  -45.6500 N.3   631  SER631     -0.1217
     10  CA       -13.5450  -33.1230  -44.4220 C.3   631  SER631      0.1889
     11  C        -13.7660  -31.6330  -44.6700 C.2   631  SER631      0.2288
     12  O        -14.3410  -31.2550  -45.6960 O.2   631  SER631     -0.2866
     13  CB       -12.0650  -33.4310  -44.1470 C.3   631  SER631      0.2089
     14  OG       -11.6190  -32.8520  -42.9370 O.3   631  SER631     -0.2183
     15  N        -11.2150  -29.5640  -44.9170 N.3   633  GLN633     -0.1245
     16  CA       -10.0790  -29.2210  -45.7780 C.3   633  GLN633      0.1566
     17  C         -9.8940  -30.1740  -46.9650 C.2   633  GLN633      0.2260
     18  O         -8.9390  -30.0260  -47.7320 O.2   633  GLN633     -0.2867
     19  CB        -8.7750  -29.1450  -44.9710 C.3   633  GLN633      0.0367
     20  CG        -8.5310  -27.8110  -44.2890 C.3   633  GLN633      0.0905
     21  CD        -8.7940  -27.8590  -42.8050 C.2   633  GLN633      0.2608
     22  OE1       -9.6590  -27.1440  -42.2970 O.2   633  GLN633     -0.2717
     23  NE2       -8.0460  -28.7030  -42.0940 N.am  633  GLN633     -0.0878
     24  N         -8.6250  -33.3100  -47.6430 N.3   635  PRO635     -0.2116
     25  CA        -7.2960  -33.7710  -48.0440 C.3   635  PRO635      0.1372
     26  C         -7.4110  -34.8080  -49.1610 C.2   635  PRO635      0.2244
     27  O         -8.5010  -35.3340  -49.3880 O.2   635  PRO635     -0.2868
     28  CB        -6.7490  -34.4130  -46.7700 C.3   635  PRO635      0.0268
     29  CG        -7.9580  -34.8500  -46.0170 C.3   635  PRO635      0.0207
     30  CD        -9.0440  -33.8650  -46.3430 C.3   635  PRO635      0.0892
     31  N         -1.0500  -38.5150  -48.0860 N.3   651  LEU651     -0.1245
     32  CA        -2.1730  -37.6440  -47.8200 C.3   651  LEU651      0.1561
     33  C         -1.7730  -36.2200  -48.1560 C.2   651  LEU651      0.2260
     34  O         -1.0040  -35.5860  -47.4280 O.2   651  LEU651     -0.2867
     35  CB        -2.6200  -37.7460  -46.3620 C.3   651  LEU651      0.0270
     36  CG        -4.0990  -37.4220  -46.1210 C.3   651  LEU651      0.0019
     37  CD1       -4.8900  -38.7120  -45.9700 C.3   651  LEU651      0.0001
     38  CD2       -4.2920  -36.5380  -44.8960 C.3   651  LEU651      0.0001
     39  N         -2.2940  -32.7450  -47.9570 N.3   653  LYS653     -0.1245
     40  CA        -3.0210  -31.7380  -47.1930 C.3   653  LYS653      0.1561
     41  C         -2.8090  -30.3480  -47.7820 C.2   653  LYS653      0.2260
     42  O         -1.7360  -30.0630  -48.3090 O.2   653  LYS653     -0.2867
     43  CB        -2.5900  -31.7720  -45.7310 C.3   653  LYS653      0.0271
     44  CG        -3.0690  -33.0040  -44.9740 C.3   653  LYS653      0.0035
     45  CD        -2.7720  -32.8580  -43.4920 C.3   653  LYS653      0.0206
     46  CE        -3.5200  -33.8810  -42.6440 C.3   653  LYS653      0.1093
     47  NZ        -3.2430  -33.7470  -41.1800 N.3   653  LYS653     -0.1314
     48  N         -2.2640  -26.5900  -44.0970 N.3   656  GLU656     -0.1245
     49  CA        -1.6820  -27.0030  -42.8210 C.3   656  GLU656      0.1567
     50  C         -0.1640  -26.9580  -42.9240 C.2   656  GLU656      0.2260
     51  O          0.4450  -27.7490  -43.6570 O.2   656  GLU656     -0.2867
     52  CB        -2.1500  -28.4140  -42.4370 C.3   656  GLU656      0.0388
     53  CG        -3.6170  -28.5040  -42.0310 C.3   656  GLU656      0.1160
     54  CD        -4.1420  -29.9300  -41.9530 C.2   656  GLU656      0.3649
     55  OE1       -3.5120  -30.7620  -41.2620 O.co2 656  GLU656     -0.2457
     56  OE2       -5.2010  -30.2140  -42.5640 O.co2 656  GLU656     -0.2457
     57  N          5.7260  -41.5950  -39.1150 N.3   691  TYR691     -0.1241
     58  CA         5.3750  -41.5830  -40.5310 C.3   691  TYR691      0.1605
     59  C          6.1220  -40.4590  -41.2610 C.2   691  TYR691      0.2264
     60  O          6.7600  -39.6220  -40.6270 O.2   691  TYR691     -0.2867
     61  CB         3.8490  -41.4980  -40.7250 C.3   691  TYR691      0.0534
     62  CG         3.1640  -40.3770  -39.9730 C.ar  691  TYR691     -0.0201
     63  CD1        3.1700  -39.0740  -40.4710 C.ar  691  TYR691     -0.0009
     64  CD2        2.4940  -40.6180  -38.7680 C.ar  691  TYR691     -0.0009
     65  CE1        2.5400  -38.0410  -39.7920 C.ar  691  TYR691      0.0417
     66  CE2        1.8560  -39.5880  -38.0800 C.ar  691  TYR691      0.0417
     67  CZ         1.8850  -38.2970  -38.5970 C.ar  691  TYR691      0.1957
     68  OH         1.2640  -37.2500  -37.9420 O.3   691  TYR691     -0.2866
     69  N          1.8630  -36.3550  -46.3210 N.3   703  ILE703     -0.1231
     70  CA         1.9280  -37.1390  -45.0930 C.3   703  ILE703      0.1692
     71  C          1.8210  -38.6120  -45.4250 C.2   703  ILE703      0.2593
     72  O          0.9430  -39.0280  -46.1790 O.2   703  ILE703     -0.2718
     73  CB         0.8330  -36.7220  -44.0950 C.3   703  ILE703      0.0266
     74  CG1        1.2970  -35.4890  -43.3250 C.3   703  ILE703      0.0019
     75  CG2        0.5290  -37.8350  -43.1040 C.3   703  ILE703      0.0020
     76  CD1        0.1860  -34.5400  -42.9410 C.3   703  ILE703      0.0001
     77  N          2.7360  -39.3950  -44.8630 N.am  704  GLY704     -0.1942
     78  CA         2.7240  -40.8420  -45.0370 C.3   704  GLY704      0.2014
     79  C          1.4470  -41.4540  -44.5000 C.2   704  GLY704      0.2639
     80  O          1.0500  -41.1940  -43.3670 O.2   704  GLY704     -0.2714
     81  N          0.7930  -42.2580  -45.3250 N.am  705  TRP705     -0.1959
     82  CA        -0.4050  -42.9580  -44.9020 C.3   705  TRP705      0.1771
     83  C         -0.0370  -44.2500  -44.1990 C.2   705  TRP705      0.2619
     84  O          0.4230  -45.2020  -44.8280 O.2   705  TRP705     -0.2715
     85  CB        -1.2810  -43.2760  -46.1040 C.3   705  TRP705      0.0590
     86  CG        -2.5370  -44.0230  -45.7580 C.ar  705  TRP705      0.0006
     87  CD1       -2.7070  -45.3840  -45.7020 C.ar  705  TRP705      0.0946
     88  CD2       -3.7990  -43.4460  -45.4330 C.ar  705  TRP705      0.0152
     89  NE1       -4.0010  -45.6820  -45.3590 N.ar  705  TRP705     -0.2442
     90  CE2       -4.6940  -44.5140  -45.1880 C.ar  705  TRP705      0.0810
     91  CE3       -4.2630  -42.1310  -45.3300 C.ar  705  TRP705      0.0012
     92  CZ2       -6.0320  -44.3020  -44.8400 C.ar  705  TRP705      0.0191
     93  CZ3       -5.5890  -41.9190  -44.9880 C.ar  705  TRP705      0.0001
     94  CH2       -6.4610  -43.0010  -44.7430 C.ar  705  TRP705      0.0015
     95  N         -0.2580  -44.2840  -42.8930 N.am  706  VAL706     -0.1977
     96  CA        -0.0020  -45.4850  -42.1260 C.3   706  VAL706      0.1596
     97  C         -1.0600  -46.5190  -42.4970 C.2   706  VAL706      0.2287
     98  O         -2.2590  -46.2330  -42.4110 O.2   706  VAL706     -0.2864
     99  CB        -0.0310  -45.2010  -40.6190 C.3   706  VAL706      0.0276
    100  CG1        0.4210  -46.4280  -39.8420 C.3   706  VAL706      0.0022
    101  CG2        0.8510  -44.0020  -40.2920 C.3   706  VAL706      0.0022
    102  N         -4.8570  -48.7670  -40.4300 N.3   709  CYS709     -0.1235
    103  CA        -5.2830  -47.9520  -39.2890 C.3   709  CYS709      0.1677
    104  C         -6.6590  -47.3030  -39.4210 C.2   709  CYS709      0.2270
    105  O         -7.0780  -46.9020  -40.5160 O.2   709  CYS709     -0.2867
    106  CB        -4.2310  -46.8970  -38.9550 C.3   709  CYS709      0.0956
    107  SG        -2.7130  -47.6110  -38.3010 S.3   709  CYS709     -0.0801
    108  N         -9.1520  -44.4280  -36.9990 N.3   711  THR711     -0.1218
    109  CA        -9.1960  -43.5480  -35.8230 C.3   711  THR711      0.1862
    110  C         -9.9380  -44.2460  -34.6980 C.2   711  THR711      0.2287
    111  O        -10.7990  -45.0970  -34.9430 O.2   711  THR711     -0.2866
    112  CB        -9.8680  -42.1720  -36.0830 C.3   711  THR711      0.1770
    113  OG1      -11.1030  -42.3460  -36.7860 O.3   711  THR711     -0.2211
    114  CG2       -8.9550  -41.2510  -36.8730 C.3   711  THR711      0.0375
    115  N         -7.9680  -35.9420  -28.9850 N.3   806  HIS806     -0.1241
    116  CA        -9.3320  -36.4620  -29.1220 C.3   806  HIS806      0.1621
    117  C         -9.4030  -37.6600  -30.0870 C.2   806  HIS806      0.2264
    118  O         -8.4680  -37.8890  -30.8490 O.2   806  HIS806     -0.2867
    119  CB       -10.2570  -35.3450  -29.5790 C.3   806  HIS806      0.0745
    120  CG        -9.9220  -34.8200  -30.9350 C.ar  806  HIS806      0.0817
    121  ND1      -10.5260  -35.2870  -32.0790 N.ar  806  HIS806     -0.2268
    122  CD2       -9.0240  -33.8870  -31.3310 C.ar  806  HIS806      0.1154
    123  CE1      -10.0300  -34.6480  -33.1250 C.ar  806  HIS806      0.1986
    124  NE2       -9.1170  -33.7940  -32.6980 N.ar  806  HIS806     -0.2212
    125  N        -10.1860  -38.5620  -32.8960 N.3   808  SER808     -0.1202
    126  CA        -9.8700  -38.5150  -34.3250 C.3   808  SER808      0.2020
    127  C         -8.4070  -38.1750  -34.5830 C.2   808  SER808      0.2618
    128  O         -7.9640  -38.0910  -35.7350 O.2   808  SER808     -0.2717
    129  CB       -10.7920  -37.5350  -35.0530 C.3   808  SER808      0.2103
    130  OG       -11.9810  -38.1830  -35.4670 O.3   808  SER808     -0.2182
    131  N         -7.6670  -37.9910  -33.4930 N.am  809  ASN809     -0.1974
    132  CA        -6.2640  -37.6100  -33.5420 C.3   809  ASN809      0.1688
    133  C         -5.3280  -38.7020  -33.0860 C.2   809  ASN809      0.2292
    134  O         -4.1120  -38.5350  -33.1150 O.2   809  ASN809     -0.2864
    135  CB        -6.0300  -36.3550  -32.7210 C.3   809  ASN809      0.1181
    136  CG        -6.1080  -35.1050  -33.5580 C.2   809  ASN809      0.2629
    137  OD1       -6.5170  -35.1470  -34.7180 O.2   809  ASN809     -0.2716
    138  ND2       -5.7060  -33.9830  -32.9780 N.am  809  ASN809     -0.0877
    139  N         -5.0460  -43.2090  -33.5050 N.3   811  MET811     -0.1245
    140  CA        -5.6070  -44.3590  -34.1740 C.3   811  MET811      0.1570
    141  C         -4.8640  -45.6260  -33.7990 C.2   811  MET811      0.2261
    142  O         -3.7720  -45.5740  -33.2340 O.2   811  MET811     -0.2867
    143  CB        -5.6270  -44.1460  -35.6890 C.3   811  MET811      0.0387
    144  CG        -4.3520  -43.5650  -36.2700 C.3   811  MET811      0.0595
    145  SD        -4.5120  -43.1680  -38.0190 S.3   811  MET811     -0.1393
    146  CE        -5.3230  -41.5740  -37.9350 C.3   811  MET811      0.0692
    147  N         -1.3810  -38.8180  -34.5960 N.3   822  ILE822     -0.1231
    148  CA        -1.3640  -37.9100  -35.7430 C.3   822  ILE822      0.1692
    149  C         -1.7120  -36.5090  -35.2460 C.2   822  ILE822      0.2592
    150  O         -2.0540  -36.3400  -34.0770 O.2   822  ILE822     -0.2718
    151  CB        -2.3660  -38.3430  -36.8430 C.3   822  ILE822      0.0266
    152  CG1       -3.8140  -38.1810  -36.3640 C.3   822  ILE822      0.0019
    153  CG2       -2.1050  -39.7770  -37.2820 C.3   822  ILE822      0.0020
    154  CD1       -4.8230  -37.9830  -37.4780 C.3   822  ILE822      0.0001
    155  N         -1.6070  -35.5110  -36.1270 N.am  823  ASP823     -0.1974
    156  CA        -2.0580  -34.1270  -35.8540 C.3   823  ASP823      0.1709
    157  C         -1.3260  -33.4540  -34.6830 C.2   823  ASP823      0.2293
    158  O         -1.8660  -33.3570  -33.5750 O.2   823  ASP823     -0.2864
    159  CB        -3.5840  -34.0980  -35.6380 C.3   823  ASP823      0.1436
    160  CG        -4.2170  -32.7400  -35.9370 C.2   823  ASP823      0.3671
    161  OD1       -3.8690  -31.7270  -35.2790 O.co2 823  ASP823     -0.2456
    162  OD2       -5.1090  -32.7030  -36.8130 O.co2 823  ASP823     -0.2456
@<TRIPOS>BOND
     1     1     2    1
     2    27    26    2
     3    26    25    1
     4    42    41    2
     5    33    32    1
     6    33    34    2
     7    31    32    1
     8     2     3    1
     9     2     5    1
    10    25    24    1
    11    25    28    1
    12    39    40    1
    13    32    35    1
    14    41    40    1
    15    18    17    2
    16     3     4    2
    17    24    30    1
    18     6     5    1
    19     6     8    1
    20    40    43    1
    21     5     7    1
    22    17    16    1
    23    28    29    1
    24    35    36    1
    25    30    29    1
    26    69    70    1
    27    72    71    2
    28    36    37    1
    29    36    38    1
    30    85    86    1
    31    85    82    1
    32    16    19    1
    33    16    15    1
    34    86    87   ar
    35    86    88   ar
    36    43    44    1
    37    87    89   ar
    38    12    11    2
    39     9    10    1
    40    88    91   ar
    41    88    90   ar
    42    71    70    1
    43    71    77   am
    44    89    90   ar
    45    91    93   ar
    46    81    82    1
    47    81    79   am
    48    90    92   ar
    49    70    73    1
    50    78    77    1
    51    78    79    1
    52    93    94   ar
    53    44    45    1
    54    19    20    1
    55    82    83    1
    56    92    94   ar
    57    84    83    2
    58    11    10    1
    59    79    80    2
    60    10    13    1
    61    20    21    1
    62    83    95   am
    63    13    14    1
    64    48    49    1
    65    73    74    1
    66    73    75    1
    67    51    50    2
    68    45    46    1
    69    74    76    1
    70    50    49    1
    71    95    96    1
    72    49    52    1
    73    21    22    2
    74    21    23   am
    75    46    47    1
    76    56    54   ar
    77    97    98    2
    78    97    96    1
    79    52    53    1
    80    96    99    1
    81    53    54    1
    82    54    55   ar
    83    59    60    2
    84    59    58    1
    85    61    58    1
    86    61    62    1
    87    99   101    1
    88    99   100    1
    89    58    57    1
    90   105   104    2
    91    63    62   ar
    92    63    65   ar
    93   102   103    1
    94    62    64   ar
    95    65    67   ar
    96   104   103    1
    97   103   106    1
    98   106   107    1
    99    64    66   ar
   100    67    66   ar
   101    67    68    1
   102   145   146    1
   103   145   144    1
   104   154   152    1
   105   153   151    1
   106   108   109    1
   107   114   112    1
   108   151   152    1
   109   151   148    1
   110   162   160   ar
   111   113   112    1
   112   144   143    1
   113   155   156    1
   114   155   149   am
   115   112   109    1
   116   160   159    1
   117   160   161   ar
   118   156   159    1
   119   156   157    1
   120   109   110    1
   121   148   149    1
   122   148   147    1
   123   128   127    2
   124   143   140    1
   125   130   129    1
   126   149   150    2
   127   129   126    1
   128   111   110    2
   129   137   136    2
   130   157   158    2
   131   127   126    1
   132   127   131   am
   133   126   125    1
   134   140   141    1
   135   140   139    1
   136   141   142    2
   137   136   138   am
   138   136   135    1
   139   132   131    1
   140   132   133    1
   141   132   135    1
   142   123   124   ar
   143   123   121   ar
   144   134   133    2
   145   124   122   ar
   146   121   120   ar
   147   122   120   ar
   148   120   119    1
   149   118   117    2
   150   117   116    1
   151   119   116    1
   152   116   115    1
