@<TRIPOS>MOLECULE
tmp/3jd2E01.pdb
 181 169 0 0 0
SMALL
GASTEIGER

@<TRIPOS>ATOM
      1  N        108.4930   69.0950   99.1420 N.3    89  ARG89      -0.1245
      2  CA       109.7710   68.4820   99.4650 C.3    89  ARG89       0.1563
      3  C        110.7180   68.5990   98.2850 C.2    89  ARG89       0.2260
      4  O        110.3250   68.3480   97.1450 O.2    89  ARG89      -0.2867
      5  CB       109.5870   67.0190   99.8360 C.3    89  ARG89       0.0307
      6  CG       110.8610   66.3340  100.2360 C.3    89  ARG89       0.0489
      7  CD       110.5750   64.9100  100.6270 C.3    89  ARG89       0.2205
      8  NE       109.7170   64.8560  101.8000 N.pl3  89  ARG89      -0.0865
      9  CZ       109.1750   63.7420  102.2700 C.cat  89  ARG89       0.5346
     10  NH1      109.4050   62.5900  101.6580 N.pl3  89  ARG89       0.1354
     11  NH2      108.4010   63.7800  103.3470 N.pl3  89  ARG89       0.1354
     12  N         95.4180   62.2580  108.7770 N.3   109  LYS109     -0.1245
     13  CA        96.0580   62.9390  109.8900 C.3   109  LYS109      0.1561
     14  C         95.2660   64.1670  110.2970 C.2   109  LYS109      0.2260
     15  O         95.0020   64.3840  111.4830 O.2   109  LYS109     -0.2867
     16  CB        97.4880   63.3150  109.5280 C.3   109  LYS109      0.0271
     17  CG        98.2020   64.0510  110.6230 C.3   109  LYS109      0.0035
     18  CD        99.6820   64.1410  110.3480 C.3   109  LYS109      0.0206
     19  CE        99.9920   65.0990  109.2320 C.3   109  LYS109      0.1093
     20  NZ       101.4620   65.2640  109.0690 N.3   109  LYS109     -0.1314
     21  N        108.5420   71.6800  104.3700 N.3   163  ASP163     -0.1225
     22  CA       108.8920   70.2870  104.6030 C.3   163  ASP163      0.1805
     23  C        110.4130   70.1930  104.5620 C.2   163  ASP163      0.2597
     24  O        111.1120   71.2080  104.6350 O.2   163  ASP163     -0.2718
     25  CB       108.2010   69.3810  103.5790 C.3   163  ASP163      0.1424
     26  CG       108.2930   67.9170  103.9370 C.2   163  ASP163      0.3668
     27  OD1      108.9680   67.5890  104.9330 O.co2 163  ASP163     -0.2456
     28  OD2      107.6890   67.0910  103.2250 O.co2 163  ASP163     -0.2456
     29  N        110.9320   68.9730  104.4640 N.am  164  MET164     -0.1979
     30  CA       112.3730   68.7720  104.4530 C.3   164  MET164      0.1605
     31  C        113.0260   69.5190  103.2970 C.2   164  MET164      0.2287
     32  O        112.5200   69.5260  102.1730 O.2   164  MET164     -0.2864
     33  CB       112.6930   67.2820  104.3670 C.3   164  MET164      0.0413
     34  CG       112.2090   66.4890  105.5660 C.3   164  MET164      0.0598
     35  SD       112.8910   67.1140  107.1190 S.3   164  MET164     -0.1393
     36  CE       114.6210   66.7090  106.9250 C.3   164  MET164      0.0692
     37  N        105.2100   71.0250  116.5760 N.3   210  THR210     -0.1218
     38  CA       105.2840   69.5920  116.8100 C.3   210  THR210      0.1862
     39  C        105.8150   69.2940  118.2010 C.2   210  THR210      0.2287
     40  O        105.4580   68.2740  118.7950 O.2   210  THR210     -0.2866
     41  CB       106.1540   68.9350  115.7500 C.3   210  THR210      0.1770
     42  OG1      107.4730   69.4750  115.8290 O.3   210  THR210     -0.2211
     43  CG2      105.5950   69.2120  114.3770 C.3   210  THR210      0.0375
     44  N        115.3020   60.1310  121.2260 N.3   245  GLN245     -0.1231
     45  CA       116.1580   59.9060  120.0780 C.3   245  GLN245      0.1698
     46  C        116.0670   61.1150  119.1570 C.2   245  GLN245      0.2593
     47  O        115.1400   61.9180  119.2520 O.2   245  GLN245     -0.2718
     48  CB       115.7450   58.6340  119.3360 C.3   245  GLN245      0.0381
     49  CG       116.6770   58.2230  118.2160 C.3   245  GLN245      0.0905
     50  CD       116.2170   56.9780  117.4990 C.2   245  GLN245      0.2608
     51  OE1      115.1520   56.4400  117.7890 O.2   245  GLN245     -0.2717
     52  NE2      117.0260   56.5080  116.5570 N.am  245  GLN245     -0.0878
     53  N        117.0380   61.2420  118.2620 N.am  246  GLY246     -0.1942
     54  CA       117.0680   62.3500  117.3260 C.3   246  GLY246      0.2014
     55  C        116.8350   63.6870  118.0010 C.2   246  GLY246      0.2639
     56  O        115.7040   64.1620  118.0830 O.2   246  GLY246     -0.2714
     57  N        117.9110   64.2950  118.4870 N.am  247  PHE247     -0.1959
     58  CA       117.8300   65.5850  119.1580 C.3   247  PHE247      0.1771
     59  C        117.9310   66.7220  118.1500 C.2   247  PHE247      0.2620
     60  O        119.0280   67.0960  117.7350 O.2   247  PHE247     -0.2715
     61  CB       118.9420   65.7070  120.2020 C.3   247  PHE247      0.0574
     62  CG       118.8630   66.9570  121.0320 C.ar  247  PHE247     -0.0200
     63  CD1      118.8540   66.8840  122.4140 C.ar  247  PHE247     -0.0042
     64  CD2      118.8050   68.2010  120.4310 C.ar  247  PHE247     -0.0042
     65  CE1      118.7860   68.0300  123.1820 C.ar  247  PHE247     -0.0003
     66  CE2      118.7350   69.3510  121.1930 C.ar  247  PHE247     -0.0003
     67  CZ       118.7270   69.2660  122.5710 C.ar  247  PHE247     -0.0000
     68  N        116.7860   67.2690  117.7570 N.am  248  GLY248     -0.1940
     69  CA       116.7570   68.3560  116.7970 C.3   248  GLY248      0.2014
     70  C        115.5220   69.2250  116.9120 C.2   248  GLY248      0.2639
     71  O        115.2870   69.8550  117.9410 O.2   248  GLY248     -0.2714
     72  N        114.7310   69.2620  115.8440 N.am  249  ASN249     -0.1958
     73  CA       113.5120   70.0630  115.8160 C.3   249  ASN249      0.1819
     74  C        112.4560   69.4800  116.7450 C.2   249  ASN249      0.2621
     75  O        112.0180   70.1290  117.7020 O.2   249  ASN249     -0.2715
     76  CB       112.9710   70.1410  114.3890 C.3   249  ASN249      0.1195
     77  CG       113.8980   70.8800  113.4470 C.2   249  ASN249      0.2630
     78  OD1      114.4930   71.8930  113.8080 O.2   249  ASN249     -0.2716
     79  ND2      114.0190   70.3750  112.2260 N.am  249  ASN249     -0.0877
     80  N        112.0380   68.2420  116.4810 N.am  250  VAL250     -0.1977
     81  CA       110.9660   67.6380  117.2630 C.3   250  VAL250      0.1596
     82  C        111.4660   67.2330  118.6410 C.2   250  VAL250      0.2287
     83  O        110.6880   67.1710  119.5980 O.2   250  VAL250     -0.2864
     84  CB       110.3820   66.4380  116.4980 C.3   250  VAL250      0.0276
     85  CG1      109.2590   65.7880  117.2790 C.3   250  VAL250      0.0022
     86  CG2      109.9010   66.8690  115.1330 C.3   250  VAL250      0.0022
     87  N        121.6420   60.5340  119.2020 N.3   270  GLU270     -0.1231
     88  CA       121.5070   61.1020  117.8710 C.3   270  GLU270      0.1699
     89  C        121.9970   60.0890  116.8500 C.2   270  GLU270      0.2592
     90  O        122.3590   58.9590  117.1860 O.2   270  GLU270     -0.2718
     91  CB       122.2850   62.4100  117.7410 C.3   270  GLU270      0.0402
     92  CG       121.7380   63.5360  118.5770 C.3   270  GLU270      0.1161
     93  CD       122.5570   64.7950  118.4320 C.2   270  GLU270      0.3649
     94  OE1      123.6180   64.7300  117.7780 O.co2 270  GLU270     -0.2457
     95  OE2      122.1460   65.8450  118.9690 O.co2 270  GLU270     -0.2457
     96  N        122.0100   60.5080  115.5850 N.am  271  SER271     -0.1952
     97  CA       122.5100   59.6400  114.5300 C.3   271  SER271      0.1924
     98  C        124.0050   59.3960  114.6470 C.2   271  SER271      0.2314
     99  O        124.5200   58.4680  114.0160 O.2   271  SER271     -0.2863
    100  CB       122.1810   60.2350  113.1620 C.3   271  SER271      0.2116
    101  OG       122.8170   61.4860  112.9850 O.3   271  SER271     -0.2180
    102  N        125.6480   72.2310  122.2140 N.3   290  LYS290     -0.1245
    103  CA       125.6160   71.9700  120.7840 C.3   290  LYS290      0.1561
    104  C        125.5200   73.2400  119.9560 C.2   290  LYS290      0.2260
    105  O        125.8540   73.2220  118.7660 O.2   290  LYS290     -0.2867
    106  CB       124.4430   71.0480  120.4400 C.3   290  LYS290      0.0271
    107  CG       124.4210   70.5780  118.9950 C.3   290  LYS290      0.0035
    108  CD       123.2830   69.6120  118.7310 C.3   290  LYS290      0.0206
    109  CE       123.2900   69.1480  117.2840 C.3   290  LYS290      0.1093
    110  NZ       122.1810   68.2040  116.9960 N.3   290  LYS290     -0.1314
    111  N        119.9320   53.0880  121.0460 N.3   309  ILE309     -0.1245
    112  CA       119.2630   53.7580  122.1510 C.3   309  ILE309      0.1561
    113  C        117.8420   53.2430  122.3520 C.2   309  ILE309      0.2260
    114  O        117.2500   53.4670  123.4190 O.2   309  ILE309     -0.2867
    115  CB       119.2570   55.2810  121.9430 C.3   309  ILE309      0.0252
    116  CG1      118.7600   55.9910  123.2030 C.3   309  ILE309      0.0019
    117  CG2      118.4240   55.6460  120.7300 C.3   309  ILE309      0.0019
    118  CD1      118.9410   57.4730  123.1880 C.3   309  ILE309      0.0001
    119  N        112.3900   60.1050  117.4430 N.3   320  ALA320     -0.1231
    120  CA       112.3880   61.2790  116.5770 C.3   320  ALA320      0.1694
    121  C        113.1540   61.0140  115.2860 C.2   320  ALA320      0.2592
    122  O        113.1630   61.8400  114.3760 O.2   320  ALA320     -0.2718
    123  CB       112.9730   62.4770  117.3050 C.3   320  ALA320      0.0304
    124  N        113.7950   59.8540  115.2120 N.am  321  ALA321     -0.1966
    125  CA       114.5650   59.4810  114.0320 C.3   321  ALA321      0.1728
    126  C        113.6750   59.3820  112.7980 C.2   321  ALA321      0.2617
    127  O        112.5760   59.9320  112.7690 O.2   321  ALA321     -0.2715
    128  CB       115.2920   58.1650  114.2680 C.3   321  ALA321      0.0334
    129  N        114.1630   58.6790  111.7820 N.am  322  SER322     -0.1936
    130  CA       113.4230   58.5000  110.5450 C.3   322  SER322      0.2055
    131  C        112.6260   57.1980  110.5800 C.2   322  SER322      0.2642
    132  O        112.6260   56.4620  111.5700 O.2   322  SER322     -0.2714
    133  CB       114.3700   58.5380  109.3500 C.3   322  SER322      0.2130
    134  OG       113.6560   58.3810  108.1390 O.3   322  SER322     -0.2179
    135  N        111.9470   56.9100  109.4760 N.am  323  GLU323     -0.1976
    136  CA       110.9900   55.8170  109.4220 C.3   323  GLU323      0.1602
    137  C        111.6890   54.4700  109.5540 C.2   323  GLU323      0.2287
    138  O        112.9080   54.3490  109.4010 O.2   323  GLU323     -0.2864
    139  CB       110.2060   55.8570  108.1120 C.3   323  GLU323      0.0415
    140  CG       111.0530   55.5720  106.8840 C.3   323  GLU323      0.1163
    141  CD       110.2690   55.6820  105.5890 C.2   323  GLU323      0.3649
    142  OE1      109.0660   56.0130  105.6430 O.co2 323  GLU323     -0.2457
    143  OE2      110.8540   55.4320  104.5170 O.co2 323  GLU323     -0.2457
    144  N        112.2770   52.0970  112.0330 N.3   325  GLN325     -0.1245
    145  CA       113.3080   52.2130  113.0490 C.3   325  GLN325      0.1566
    146  C        113.2620   51.1180  114.0990 C.2   325  GLN325      0.2260
    147  O        114.2820   50.8440  114.7320 O.2   325  GLN325     -0.2867
    148  CB       113.1850   53.5720  113.7480 C.3   325  GLN325      0.0367
    149  CG       114.2740   53.8850  114.7440 C.3   325  GLN325      0.0905
    150  CD       115.6150   54.0410  114.0820 C.2   325  GLN325      0.2608
    151  OE1      115.7250   54.6450  113.0150 O.2   325  GLN325     -0.2717
    152  NE2      116.6500   53.4880  114.7020 N.am  325  GLN325     -0.0878
    153  N        107.1120   60.0300  117.0170 N.3   342  GLY342     -0.1210
    154  CA       107.3460   61.4240  116.7070 C.3   342  GLY342      0.1956
    155  C        107.5550   61.6830  115.2350 C.2   342  GLY342      0.2612
    156  O        107.5690   62.8330  114.7960 O.2   342  GLY342     -0.2717
    157  N        107.7230   60.6200  114.4550 N.am  343  ALA343     -0.1965
    158  CA       107.9560   60.7880  113.0290 C.3   343  ALA343      0.1728
    159  C        107.0320   59.8940  112.2180 C.2   343  ALA343      0.2616
    160  O        106.1390   59.2480  112.7700 O.2   343  ALA343     -0.2715
    161  CB       109.4100   60.4900  112.6880 C.3   343  ALA343      0.0334
    162  N        107.2330   59.8560  110.9070 N.am  344  ASN344     -0.1972
    163  CA       106.4220   59.0060  110.0540 C.3   344  ASN344      0.1688
    164  C        106.8670   57.5580  110.1970 C.2   344  ASN344      0.2292
    165  O        108.0560   57.2530  110.0700 O.2   344  ASN344     -0.2864
    166  CB       106.5310   59.4500  108.5980 C.3   344  ASN344      0.1181
    167  CG       105.9100   60.8080  108.3590 C.2   344  ASN344      0.2629
    168  OD1      104.8580   61.1300  108.9090 O.2   344  ASN344     -0.2716
    169  ND2      106.5600   61.6150  107.5280 N.am  344  ASN344     -0.0877
    170  N        102.2000   63.4090  116.0430 N.3   369  ASN369     -0.1240
    171  CA       102.8180   64.2520  115.0240 C.3   369  ASN369      0.1653
    172  C        101.8720   65.2860  114.4020 C.2   369  ASN369      0.2266
    173  O        102.2840   66.0800  113.5620 O.2   369  ASN369     -0.2867
    174  CB       103.4290   63.3700  113.9320 C.3   369  ASN369      0.1155
    175  CG       104.0450   64.1730  112.8060 C.2   369  ASN369      0.2627
    176  OD1      104.6340   65.2300  113.0320 O.2   369  ASN369     -0.2716
    177  ND2      103.9110   63.6750  111.5850 N.am  369  ASN369     -0.0877
    178  N        102.2160   70.4940  114.1560 N.3   372  GLY372     -0.1225
    179  CA       102.3650   71.5920  113.2260 C.3   372  GLY372      0.1811
    180  C        101.3380   71.6260  112.1190 C.2   372  GLY372      0.2280
    181  O        101.3320   72.5860  111.3420 O.2   372  GLY372     -0.2866
@<TRIPOS>BOND
     1     4     3    2
     2     3     2    1
     3     1     2    1
     4     2     5    1
     5     5     6    1
     6     6     7    1
     7     7     8    1
     8    10     9    1
     9     8     9    2
    10    32    31    2
    11     9    11    1
    12    28    26   ar
    13    31    30    1
    14    25    26    1
    15    25    22    1
    16    26    27   ar
    17    33    30    1
    18    33    34    1
    19    21    22    1
    20    30    29    1
    21    29    23   am
    22   143   141   ar
    23    23    22    1
    24    23    24    2
    25    34    35    1
    26   141   142   ar
    27   141   140    1
    28   140   139    1
    29    36    35    1
    30   169   167   am
    31   139   136    1
    32   134   133    1
    33   167   166    1
    34   167   168    2
    35   166   163    1
    36    12    13    1
    37    20    19    1
    38    19    18    1
    39   133   130    1
    40   138   137    2
    41   136   135    1
    42   136   137    1
    43   135   131   am
    44    16    13    1
    45    16    17    1
    46    13    14    1
    47   163   164    1
    48   163   162    1
    49   165   164    2
    50    14    15    2
    51    18    17    1
    52   130   131    1
    53   130   129    1
    54   131   132    2
    55   162   159   am
    56   181   180    2
    57   177   175   am
    58   129   126   am
    59   144   145    1
    60   180   179    1
    61   159   160    2
    62   159   158    1
    63    79    77   am
    64   161   158    1
    65   127   126    2
    66   126   125    1
    67   175   176    2
    68   175   174    1
    69   101   100    1
    70   151   150    2
    71   158   157    1
    72   145   148    1
    73   145   146    1
    74   100    97    1
    75   179   178    1
    76    77    78    2
    77    77    76    1
    78   173   172    2
    79   148   149    1
    80   174   171    1
    81    99    98    2
    82   125   128    1
    83   125   124    1
    84   150   152   am
    85   150   149    1
    86   146   147    2
    87   122   121    2
    88    43    41    1
    89    76    73    1
    90   172   171    1
    91   157   155   am
    92    97    98    1
    93    97    96    1
    94   156   155    2
    95   171   170    1
    96    86    84    1
    97   124   121   am
    98   155   154    1
    99   121   120    1
   100    96    89   am
   101    41    42    1
   102    41    38    1
   103    73    72    1
   104    73    74    1
   105    72    70   am
   106    80    74   am
   107    80    81    1
   108    84    81    1
   109    84    85    1
   110    52    50   am
   111    37    38    1
   112   120   123    1
   113   120   119    1
   114   154   153    1
   115    74    75    2
   116    69    70    1
   117    69    68    1
   118    38    39    1
   119    89    90    2
   120    89    88    1
   121    70    71    2
   122   110   109    1
   123    81    82    1
   124   109   108    1
   125    54    55    1
   126    54    53    1
   127    50    51    2
   128    50    49    1
   129    60    59    2
   130    91    88    1
   131    91    92    1
   132    68    59   am
   133    94    93   ar
   134    88    87    1
   135    55    56    2
   136    55    57   am
   137    59    58    1
   138    39    40    2
   139    49    48    1
   140    53    46   am
   141    93    92    1
   142    93    95   ar
   143    57    58    1
   144    82    83    2
   145   108   107    1
   146   105   104    2
   147   107   106    1
   148    46    47    2
   149    46    45    1
   150    58    61    1
   151    48    45    1
   152   104   103    1
   153    45    44    1
   154    61    62    1
   155    64    62   ar
   156    64    66   ar
   157   106   103    1
   158   117   115    1
   159   103   102    1
   160    62    63   ar
   161   111   112    1
   162    66    67   ar
   163   115   112    1
   164   115   116    1
   165   112   113    1
   166   113   114    2
   167    63    65   ar
   168    67    65   ar
   169   118   116    1
