@<TRIPOS>MOLECULE
tmp/3jd2E02.pdb
 126 120 0 0 0
SMALL
GASTEIGER

@<TRIPOS>ATOM
      1  N         86.8760   66.2530   99.7220 N.3    80  HIS80      -0.1226
      2  CA        85.6540   66.3090  100.5100 C.3    80  HIS80       0.1752
      3  C         85.5750   67.5810  101.3320 C.2    80  HIS80       0.2595
      4  O         84.4760   68.0590  101.6220 O.2    80  HIS80      -0.2718
      5  CB        85.5350   65.0770  101.4040 C.3    80  HIS80       0.0759
      6  CG        86.5710   64.9940  102.4750 C.ar   80  HIS80       0.0818
      7  ND1       87.8520   64.5520  102.2370 N.ar   80  HIS80      -0.2268
      8  CD2       86.5070   65.2630  103.7990 C.ar   80  HIS80       0.1154
      9  CE1       88.5390   64.5710  103.3640 C.ar   80  HIS80       0.1986
     10  NE2       87.7450   64.9970  104.3270 N.ar   80  HIS80      -0.2212
     11  N         86.7130   68.1530  101.7120 N.am   81  ARG81      -0.1980
     12  CA        86.7230   69.4470  102.3770 C.3    81  ARG81       0.1597
     13  C         87.8880   70.2430  101.8240 C.2    81  ARG81       0.2287
     14  O         89.0260   69.7680  101.8440 O.2    81  ARG81      -0.2864
     15  CB        86.8320   69.3090  103.8940 C.3    81  ARG81       0.0334
     16  CG        85.6960   68.5160  104.4930 C.3    81  ARG81       0.0492
     17  CD        85.7690   68.4570  105.9890 C.3    81  ARG81       0.2205
     18  NE        85.3190   69.6920  106.6060 N.pl3  81  ARG81      -0.0865
     19  CZ        84.0650   69.8980  106.9810 C.cat  81  ARG81       0.5346
     20  NH1       83.1650   68.9440  106.8070 N.pl3  81  ARG81       0.1354
     21  NH2       83.7160   71.0450  107.5410 N.pl3  81  ARG81       0.1354
     22  N         95.2070   63.3710  104.6430 N.3   107  THR107     -0.1218
     23  CA        93.7550   63.3940  104.7100 C.3   107  THR107      0.1862
     24  C         93.2470   62.7150  105.9660 C.2   107  THR107      0.2287
     25  O         92.2000   63.0940  106.4970 O.2   107  THR107     -0.2866
     26  CB        93.1640   62.7340  103.4740 C.3   107  THR107      0.1770
     27  OG1       93.5450   63.4810  102.3210 O.3   107  THR107     -0.2211
     28  CG2       91.6600   62.6910  103.5520 C.3   107  THR107      0.0375
     29  N         94.8660   64.9790  109.3340 N.3   110  CYS110     -0.1221
     30  CA        94.1110   66.1720  109.6680 C.3   110  CYS110      0.1808
     31  C         92.6410   65.8920  109.8500 C.2   110  CYS110      0.2601
     32  O         91.8530   66.8340  109.8940 O.2   110  CYS110     -0.2717
     33  CB        94.3020   67.2450  108.6010 C.3   110  CYS110      0.0970
     34  SG        93.5950   66.8280  107.0290 S.3   110  CYS110     -0.0800
     35  N         92.2460   64.6310  109.9500 N.am  111  ALA111     -0.1979
     36  CA        90.8820   64.2990  110.3210 C.3   111  ALA111      0.1597
     37  C         90.7590   63.8580  111.7620 C.2   111  ALA111      0.2287
     38  O         89.7050   64.0540  112.3640 O.2   111  ALA111     -0.2864
     39  CB        90.3310   63.1990  109.4200 C.3   111  ALA111      0.0319
     40  N         90.4260   67.1110  113.5580 N.3   114  ASP114     -0.1225
     41  CA        89.2860   67.9390  113.1770 C.3   114  ASP114      0.1805
     42  C         89.7210   69.2420  112.5200 C.2   114  ASP114      0.2598
     43  O         89.1010   70.2860  112.7070 O.2   114  ASP114     -0.2718
     44  CB        88.3970   68.2180  114.3790 C.3   114  ASP114      0.1424
     45  CG        87.7390   66.9770  114.9000 C.2   114  ASP114      0.3668
     46  OD1       87.5060   66.0600  114.0900 O.co2 114  ASP114     -0.2456
     47  OD2       87.4570   66.9120  116.1120 O.co2 114  ASP114     -0.2456
     48  N         90.7940   69.1830  111.7440 N.am  115  VAL115     -0.1966
     49  CA        91.2190   70.3230  110.9390 C.3   115  VAL115      0.1712
     50  C         90.5660   70.1770  109.5720 C.2   115  VAL115      0.2458
     51  O         90.7040   69.1260  108.9410 O.2   115  VAL115     -0.2730
     52  CB        92.7440   70.3980  110.8550 C.3   115  VAL115      0.0289
     53  CG1       93.1560   71.4530  109.8760 C.3   115  VAL115      0.0023
     54  CG2       93.3080   70.7150  112.2080 C.3   115  VAL115      0.0023
     55  N         89.8500   71.1850  109.0760 N.am  116  PRO116     -0.2716
     56  CA        88.9270   70.9330  107.9590 C.3   116  PRO116      0.1536
     57  C         89.5780   70.5080  106.6570 C.2   116  PRO116      0.2598
     58  O         89.1370   69.5230  106.0600 O.2   116  PRO116     -0.2715
     59  CB        88.1920   72.2680  107.8180 C.3   116  PRO116      0.0310
     60  CG        89.0790   73.2540  108.4000 C.3   116  PRO116      0.0237
     61  CD        89.7900   72.5770  109.5260 C.3   116  PRO116      0.0939
     62  N         90.5910   71.2100  106.1760 N.am  117  PHE117     -0.1974
     63  CA        91.0170   70.9490  104.8100 C.3   117  PHE117      0.1639
     64  C         91.6900   69.5910  104.6470 C.2   117  PHE117      0.2290
     65  O         92.2920   69.0540  105.5710 O.2   117  PHE117     -0.2864
     66  CB        91.9170   72.0660  104.3000 C.3   117  PHE117      0.0560
     67  CG        92.8340   72.6390  105.3150 C.ar  117  PHE117     -0.0200
     68  CD1       92.6150   73.9130  105.7820 C.ar  117  PHE117     -0.0042
     69  CD2       93.8800   71.9140  105.8250 C.ar  117  PHE117     -0.0042
     70  CE1       93.4490   74.4670  106.6960 C.ar  117  PHE117     -0.0003
     71  CE2       94.7080   72.4590  106.7590 C.ar  117  PHE117     -0.0003
     72  CZ        94.4960   73.7360  107.1890 C.ar  117  PHE117     -0.0000
     73  N         90.7570   67.3380  123.0240 N.3   454  ARG454     -0.1245
     74  CA        89.4640   66.9300  122.4980 C.3   454  ARG454      0.1563
     75  C         89.5930   65.7770  121.5210 C.2   454  ARG454      0.2260
     76  O         88.6350   65.0280  121.3260 O.2   454  ARG454     -0.2867
     77  CB        88.7940   68.1110  121.8050 C.3   454  ARG454      0.0307
     78  CG        87.3630   67.8660  121.4180 C.3   454  ARG454      0.0489
     79  CD        86.7910   69.0490  120.6690 C.3   454  ARG454      0.2205
     80  NE        87.3660   69.1710  119.3360 N.pl3 454  ARG454     -0.0865
     81  CZ        87.1530   70.2000  118.5260 C.cat 454  ARG454      0.5346
     82  NH1       86.3920   71.2080  118.9180 N.pl3 454  ARG454      0.1354
     83  NH2       87.7100   70.2240  117.3250 N.pl3 454  ARG454      0.1354
     84  N         88.4510   61.1570  121.7240 N.3   458  GLN458     -0.1245
     85  CA        87.7860   60.4480  120.6460 C.3   458  GLN458      0.1566
     86  C         88.5190   59.1900  120.2250 C.2   458  GLN458      0.2260
     87  O         87.8900   58.2900  119.6620 O.2   458  GLN458     -0.2867
     88  CB        87.6160   61.3610  119.4340 C.3   458  GLN458      0.0367
     89  CG        86.6470   62.4860  119.6770 C.3   458  GLN458      0.0905
     90  CD        86.4920   63.3930  118.4840 C.2   458  GLN458      0.2608
     91  OE1       87.2010   63.2640  117.4910 O.2   458  GLN458     -0.2717
     92  NE2       85.5440   64.3170  118.5700 N.am  458  GLN458     -0.0878
     93  N         87.7560   56.6790  123.1400 N.3   461  ARG461     -0.1245
     94  CA        86.3980   56.1830  122.9770 C.3   461  ARG461      0.1563
     95  C         86.3360   55.0810  121.9310 C.2   461  ARG461      0.2260
     96  O         85.9040   53.9600  122.2190 O.2   461  ARG461     -0.2867
     97  CB        85.4780   57.3340  122.5970 C.3   461  ARG461      0.0307
     98  CG        84.0230   56.9700  122.5320 C.3   461  ARG461      0.0489
     99  CD        83.2210   58.2000  122.1900 C.3   461  ARG461      0.2205
    100  NE        83.3910   59.2200  123.2140 N.pl3 461  ARG461     -0.0865
    101  CZ        82.6780   59.2780  124.3310 C.cat 461  ARG461      0.5346
    102  NH1       81.7370   58.3720  124.5650 N.pl3 461  ARG461      0.1354
    103  NH2       82.9040   60.2410  125.2140 N.pl3 461  ARG461      0.1354
    104  N         84.9600   59.3120  110.1290 N.3   483  LYS483     -0.1231
    105  CA        84.5660   60.6940  109.8800 C.3   483  LYS483      0.1693
    106  C         84.6130   61.0540  108.4080 C.2   483  LYS483      0.2591
    107  O         83.7450   61.7840  107.9240 O.2   483  LYS483     -0.2718
    108  CB        85.4370   61.6620  110.6770 C.3   483  LYS483      0.0285
    109  CG        85.0840   61.6860  112.1320 C.3   483  LYS483      0.0035
    110  CD        85.7840   62.7830  112.8890 C.3   483  LYS483      0.0206
    111  CE        87.2100   62.4250  113.1590 C.3   483  LYS483      0.1093
    112  NZ        87.8390   63.4380  114.0330 N.3   483  LYS483     -0.1314
    113  N         85.6100   60.5620  107.6750 N.am  484  VAL484     -0.1980
    114  CA        85.6390   60.8380  106.2470 C.3   484  VAL484      0.1595
    115  C         84.4830   60.1360  105.5570 C.2   484  VAL484      0.2287
    116  O         84.0330   60.5650  104.4910 O.2   484  VAL484     -0.2864
    117  CB        86.9960   60.4310  105.6540 C.3   484  VAL484      0.0276
    118  CG1       87.0190   60.6630  104.1670 C.3   484  VAL484      0.0022
    119  CG2       88.0940   61.2170  106.3080 C.3   484  VAL484      0.0022
    120  N         81.0650   62.1630  105.3440 N.3   487  VAL487     -0.1245
    121  CA        81.0160   63.3030  104.4490 C.3   487  VAL487      0.1561
    122  C         80.6390   62.8840  103.0370 C.2   487  VAL487      0.2260
    123  O         79.9070   63.5970  102.3540 O.2   487  VAL487     -0.2867
    124  CB        82.3610   64.0540  104.4730 C.3   487  VAL487      0.0252
    125  CG1       82.3280   65.2100  103.5140 C.3   487  VAL487      0.0019
    126  CG2       82.6440   64.5460  105.8660 C.3   487  VAL487      0.0019
@<TRIPOS>BOND
     1     1     2    1
     2     2     3    1
     3     2     5    1
     4     3     4    2
     5     3    11   am
     6     5     6    1
     7    11    12    1
     8    13    14    2
     9    13    12    1
    10     7     6   ar
    11     7     9   ar
    12    27    26    1
    13   123   122    2
    14    12    15    1
    15     6     8   ar
    16   122   121    1
    17     9    10   ar
    18    26    28    1
    19    26    23    1
    20   125   124    1
    21     8    10   ar
    22    15    16    1
    23   118   117    1
    24    66    63    1
    25    66    67    1
    26   121   124    1
    27   121   120    1
    28   124   126    1
    29   116   115    2
    30    16    17    1
    31    22    23    1
    32    64    63    1
    33    64    65    2
    34    23    24    1
    35    63    62    1
    36    67    68   ar
    37    67    69   ar
    38   115   114    1
    39   117   114    1
    40   117   119    1
    41    68    70   ar
    42    69    71   ar
    43    24    25    2
    44    17    18    1
    45    58    57    2
    46    62    57   am
    47   114   113    1
    48    18    19    2
    49    57    56    1
    50    70    72   ar
    51    71    72   ar
    52    20    19    1
    53    19    21    1
    54    34    33    1
    55   113   106   am
    56    59    56    1
    57    59    60    1
    58   107   106    2
    59    56    55    1
    60    60    61    1
    61   106   105    1
    62    33    30    1
    63    51    50    2
    64    55    61    1
    65    55    50   am
    66    29    30    1
    67    39    36    1
    68    50    49    1
    69    30    31    1
    70    31    32    2
    71    31    35   am
    72    53    52    1
    73   105   104    1
    74   105   108    1
    75    35    36    1
    76    36    37    1
    77   108   109    1
    78    52    49    1
    79    52    54    1
    80    49    48    1
    81    48    42   am
    82    37    38    2
    83   109   110    1
    84    42    43    2
    85    42    41    1
    86   110   111    1
    87   111   112    1
    88    41    40    1
    89    41    44    1
    90    46    45   ar
    91    44    45    1
    92    45    47   ar
    93    83    81    1
    94    91    90    2
    95    90    92   am
    96    90    89    1
    97    81    82    1
    98    81    80    2
    99    80    79    1
   100    88    89    1
   101    88    85    1
   102    87    86    2
   103    86    85    1
   104    85    84    1
   105    79    78    1
   106    76    75    2
   107    78    77    1
   108    75    74    1
   109    77    74    1
   110    95    96    2
   111    95    94    1
   112    99    98    1
   113    99   100    1
   114    74    73    1
   115    98    97    1
   116    97    94    1
   117    94    93    1
   118   100   101    2
   119   101   102    1
   120   101   103    1
