@<TRIPOS>MOLECULE
tmp/3jd2E00.pdb
 72 66 0 0 0
SMALL
GASTEIGER

@<TRIPOS>ATOM
      1  N        107.6550   85.5890  110.0500 N.3   198  ILE198     -0.1231
      2  CA       106.7560   86.3660  110.8940 C.3   198  ILE198      0.1692
      3  C        106.4220   87.6920  110.2350 C.2   198  ILE198      0.2592
      4  O        105.2840   88.1640  110.2940 O.2   198  ILE198     -0.2718
      5  CB       107.3760   86.5690  112.2840 C.3   198  ILE198      0.0266
      6  CG1      107.6940   85.2210  112.9120 C.3   198  ILE198      0.0019
      7  CG2      106.4140   87.3060  113.1720 C.3   198  ILE198      0.0020
      8  CD1      108.5380   85.3160  114.1510 C.3   198  ILE198      0.0001
      9  N        107.4020   88.3030  109.5830 N.am  199  SER199     -0.1952
     10  CA       107.2300   89.6240  108.9980 C.3   199  SER199      0.1924
     11  C        106.2650   89.6500  107.8330 C.2   199  SER199      0.2314
     12  O        106.0300   90.7270  107.2850 O.2   199  SER199     -0.2863
     13  CB       108.5730   90.1640  108.5310 C.3   199  SER199      0.2116
     14  OG       109.0650   89.3730  107.4690 O.3   199  SER199     -0.2180
     15  N        103.1400   87.5690  107.7170 N.3   201  GLY201     -0.1210
     16  CA       101.9270   86.8480  108.0400 C.3   201  GLY201      0.1956
     17  C        102.1270   85.6310  108.9140 C.2   201  GLY201      0.2612
     18  O        101.1470   85.1240  109.4750 O.2   201  GLY201     -0.2717
     19  N        103.3510   85.1340  109.0430 N.am  202  GLY202     -0.1956
     20  CA       103.5700   83.9530  109.8510 C.3   202  GLY202      0.1869
     21  C        103.1460   84.1630  111.2900 C.2   202  GLY202      0.2309
     22  O        103.1980   85.2660  111.8220 O.2   202  GLY202     -0.2863
     23  N        103.2980   83.3030  115.4960 N.3   204  HIS204     -0.1241
     24  CA       104.3280   83.1140  116.4970 C.3   204  HIS204      0.1621
     25  C        104.2610   81.6990  117.0450 C.2   204  HIS204      0.2264
     26  O        103.2130   81.0550  117.0340 O.2   204  HIS204     -0.2867
     27  CB       104.1670   84.1180  117.6290 C.3   204  HIS204      0.0745
     28  CG       104.4010   85.5330  117.2160 C.ar  204  HIS204      0.0817
     29  ND1      103.4210   86.3080  116.6360 N.ar  204  HIS204     -0.2268
     30  CD2      105.4950   86.3210  117.3140 C.ar  204  HIS204      0.1154
     31  CE1      103.9060   87.5100  116.3850 C.ar  204  HIS204      0.1986
     32  NE2      105.1620   87.5440  116.7900 N.ar  204  HIS204     -0.2212
     33  N         94.7140   83.3490  110.5730 N.3   382  ASN382     -0.1240
     34  CA        95.3380   84.6480  110.7870 C.3   382  ASN382      0.1653
     35  C         95.4610   85.4090  109.4780 C.2   382  ASN382      0.2266
     36  O         95.1030   86.5820  109.3910 O.2   382  ASN382     -0.2867
     37  CB        96.7070   84.4600  111.4410 C.3   382  ASN382      0.1155
     38  CG        97.3740   85.7680  111.7940 C.2   382  ASN382      0.2627
     39  OD1       96.8280   86.8370  111.5610 O.2   382  ASN382     -0.2716
     40  ND2       98.5710   85.6900  112.3550 N.am  382  ASN382     -0.0877
     41  N         95.7500   90.0520  113.7020 N.3   388  SER388     -0.1217
     42  CA        96.2920   89.1210  114.6690 C.3   388  SER388      0.1889
     43  C         95.2090   88.6890  115.6500 C.2   388  SER388      0.2288
     44  O         94.1180   89.2510  115.6970 O.2   388  SER388     -0.2866
     45  CB        97.4530   89.7480  115.4270 C.3   388  SER388      0.2089
     46  OG        97.9190   88.8530  116.4160 O.3   388  SER388     -0.2183
     47  N         94.0160   91.1700  119.3330 N.3   391  ARG391     -0.1245
     48  CA        94.3200   92.5990  119.3460 C.3   391  ARG391      0.1563
     49  C         93.1480   93.4170  119.8580 C.2   391  ARG391      0.2260
     50  O         93.3290   94.3880  120.5970 O.2   391  ARG391     -0.2867
     51  CB        94.7170   93.1000  117.9580 C.3   391  ARG391      0.0307
     52  CG        94.9390   94.5980  117.9990 C.3   391  ARG391      0.0489
     53  CD        95.3580   95.2410  116.7100 C.3   391  ARG391      0.2205
     54  NE        96.6920   94.8400  116.3120 N.pl3 391  ARG391     -0.0865
     55  CZ        97.2960   95.2940  115.2250 C.cat 391  ARG391      0.5346
     56  NH1       96.6900   96.1850  114.4660 N.pl3 391  ARG391      0.1354
     57  NH2       98.5120   94.8770  114.9140 N.pl3 391  ARG391      0.1354
     58  N        100.0690   87.8550  124.6500 N.3   439  SER439     -0.1202
     59  CA       100.2570   88.0910  123.2280 C.3   439  SER439      0.2020
     60  C         99.4670   87.0920  122.4060 C.2   439  SER439      0.2618
     61  O         98.6900   86.3060  122.9520 O.2   439  SER439     -0.2717
     62  CB       101.7370   88.0110  122.8680 C.3   439  SER439      0.2103
     63  OG       101.9230   88.1700  121.4760 O.3   439  SER439     -0.2182
     64  N         99.6550   87.1200  121.0890 N.am  440  GLU440     -0.1979
     65  CA        99.0630   86.1000  120.2340 C.3   440  GLU440      0.1602
     66  C         99.6170   84.7250  120.5530 C.2   440  GLU440      0.2287
     67  O         98.8900   83.7290  120.5080 O.2   440  GLU440     -0.2864
     68  CB        99.3200   86.4400  118.7750 C.3   440  GLU440      0.0415
     69  CG        98.8520   85.3830  117.8150 C.3   440  GLU440      0.1163
     70  CD        99.0960   85.7730  116.3830 C.2   440  GLU440      0.3649
     71  OE1       99.5930   86.8910  116.1490 O.co2 440  GLU440     -0.2457
     72  OE2       98.8060   84.9580  115.4880 O.co2 440  GLU440     -0.2457
@<TRIPOS>BOND
     1    12    11    2
     2    14    13    1
     3    15    16    1
     4    11    10    1
     5    16    17    1
     6    13    10    1
     7    17    19   am
     8    17    18    2
     9    10     9    1
    10    19    20    1
    11    36    35    2
    12    35    34    1
    13     9     3   am
    14    20    21    1
    15     1     2    1
    16     3     4    2
    17     3     2    1
    18    33    34    1
    19    34    37    1
    20     2     5    1
    21    21    22    2
    22    37    38    1
    23    39    38    2
    24    38    40   am
    25     5     6    1
    26     5     7    1
    27     6     8    1
    28    41    42    1
    29    56    55    1
    30    42    45    1
    31    42    43    1
    32    57    55    1
    33    55    54    2
    34    45    46    1
    35    72    70   ar
    36    23    24    1
    37    43    44    2
    38    71    70   ar
    39    54    53    1
    40    70    69    1
    41    31    29   ar
    42    31    32   ar
    43    24    25    1
    44    24    27    1
    45    29    28   ar
    46    53    52    1
    47    32    30   ar
    48    26    25    2
    49    28    30   ar
    50    28    27    1
    51    69    68    1
    52    51    52    1
    53    51    48    1
    54    68    65    1
    55    47    48    1
    56    48    49    1
    57    49    50    2
    58    65    66    1
    59    65    64    1
    60    67    66    2
    61    64    60   am
    62    63    62    1
    63    60    61    2
    64    60    59    1
    65    62    59    1
    66    59    58    1
