@<TRIPOS>MOLECULE
tmp/3jdwA00.pdb
 154 144 0 0 0
SMALL
GASTEIGER

@<TRIPOS>ATOM
      1  N         48.9630   79.2250    9.6250 N.3    35  ASN35      -0.1240
      2  CA        48.6600   78.5750   10.9030 C.3    35  ASN35       0.1653
      3  C         48.9620   79.4410   12.1330 C.2    35  ASN35       0.2266
      4  O         48.5150   79.1490   13.2420 O.2    35  ASN35      -0.2867
      5  CB        49.4660   77.2820   11.0260 C.3    35  ASN35       0.1155
      6  CG        49.1760   76.5360   12.3170 C.2    35  ASN35       0.2627
      7  OD1       48.0660   76.0510   12.5150 O.2    35  ASN35      -0.2716
      8  ND2       50.1660   76.4460   13.2040 N.am   35  ASN35      -0.0877
      9  N         48.9000   82.6360   14.7110 N.3    37  TYR37      -0.1241
     10  CA        48.1160   83.7370   15.2630 C.3    37  TYR37       0.1605
     11  C         48.9540   85.0080   15.1550 C.2    37  TYR37       0.2264
     12  O         50.1470   84.9950   15.4620 O.2    37  TYR37      -0.2867
     13  CB        47.7970   83.4800   16.7330 C.3    37  TYR37       0.0534
     14  CG        46.6930   82.4770   16.9910 C.ar   37  TYR37      -0.0201
     15  CD1       46.6300   81.2680   16.2980 C.ar   37  TYR37      -0.0009
     16  CD2       45.7130   82.7340   17.9490 C.ar   37  TYR37      -0.0009
     17  CE1       45.6140   80.3390   16.5560 C.ar   37  TYR37       0.0417
     18  CE2       44.6980   81.8110   18.2130 C.ar   37  TYR37       0.0417
     19  CZ        44.6550   80.6240   17.5130 C.ar   37  TYR37       0.1957
     20  OH        43.6320   79.7410   17.7640 O.3    37  TYR37      -0.2866
     21  N         55.3370   65.4240   17.7400 N.3   104  MET104     -0.1245
     22  CA        54.0150   64.8720   17.5460 C.3   104  MET104      0.1570
     23  C         53.9320   63.6340   16.6630 C.2   104  MET104      0.2261
     24  O         53.7650   63.7350   15.4470 O.2   104  MET104     -0.2867
     25  CB        53.1040   65.9650   16.9770 C.3   104  MET104      0.0387
     26  CG        53.1860   67.3410   17.6370 C.3   104  MET104      0.0595
     27  SD        52.8700   67.3620   19.4180 S.3   104  MET104     -0.1393
     28  CE        53.5730   68.9270   19.8650 C.3   104  MET104      0.0692
     29  N         51.0310   63.4250   14.1960 N.3   107  ASP107     -0.1239
     30  CA        50.9950   64.2150   12.9730 C.3   107  ASP107      0.1674
     31  C         51.4700   63.4630   11.7500 C.2   107  ASP107      0.2266
     32  O         50.9900   63.7180   10.6490 O.2   107  ASP107     -0.2867
     33  CB        51.8740   65.4590   13.1030 C.3   107  ASP107      0.1410
     34  CG        51.2790   66.5170   13.9960 C.2   107  ASP107      0.3668
     35  OD1       50.2330   66.2670   14.6290 O.co2 107  ASP107     -0.2456
     36  OD2       51.8650   67.6210   14.0400 O.co2 107  ASP107     -0.2456
     37  N         35.5060   76.2190   11.0820 N.3   235  ASP235     -0.1239
     38  CA        36.8860   76.5150   11.4870 C.3   235  ASP235      0.1674
     39  C         37.6040   77.2590   10.3290 C.2   235  ASP235      0.2266
     40  O         37.6710   76.7340    9.2040 O.2   235  ASP235     -0.2867
     41  CB        37.5880   75.1720   11.7920 C.3   235  ASP235      0.1410
     42  CG        38.9160   75.3140   12.5180 C.2   235  ASP235      0.3668
     43  OD1       39.4770   76.4230   12.5870 O.co2 235  ASP235     -0.2456
     44  OD2       39.4190   74.2960   13.0200 O.co2 235  ASP235     -0.2456
     45  N         40.7310   77.9980   10.2030 N.3   237  ASN237     -0.1240
     46  CA        42.0980   77.5140   10.1330 C.3   237  ASN237      0.1653
     47  C         42.2190   76.0750   10.6460 C.2   237  ASN237      0.2266
     48  O         42.8110   75.8210   11.6900 O.2   237  ASN237     -0.2867
     49  CB        43.0200   78.4420   10.9160 C.3   237  ASN237      0.1155
     50  CG        44.4450   77.9610   10.9250 C.2   237  ASN237      0.2627
     51  OD1       45.0110   77.6250    9.8790 O.2   237  ASN237     -0.2716
     52  ND2       45.0230   77.8750   12.1120 N.am  237  ASN237     -0.0877
     53  N         43.6100   72.3450   11.0620 N.3   239  MET239     -0.1230
     54  CA        44.8550   71.6060   10.9560 C.3   239  MET239      0.1702
     55  C         44.7580   70.5770   12.0760 C.2   239  MET239      0.2592
     56  O         44.9000   70.9130   13.2500 O.2   239  MET239     -0.2718
     57  CB        46.0860   72.4960   11.1140 C.3   239  MET239      0.0401
     58  CG        47.3820   71.7380   10.8580 C.3   239  MET239      0.0596
     59  SD        48.9250   72.6660   10.9620 S.3   239  MET239     -0.1393
     60  CE        49.3880   72.4400   12.6500 C.3   239  MET239      0.0692
     61  N         44.4810   69.3320   11.6960 N.am  240  HIS240     -0.1976
     62  CA        44.3090   68.2160   12.6210 C.3   240  HIS240      0.1656
     63  C         42.8650   68.2210   13.1440 C.2   240  HIS240      0.2291
     64  O         42.2430   69.2760   13.2810 O.2   240  HIS240     -0.2864
     65  CB        45.3340   68.2470   13.7540 C.3   240  HIS240      0.0771
     66  CG        46.7620   68.3350   13.2890 C.ar  240  HIS240      0.0820
     67  ND1       47.1490   68.0660   11.9960 N.ar  240  HIS240     -0.2267
     68  CD2       47.8910   68.6850   13.9480 C.ar  240  HIS240      0.1154
     69  CE1       48.4510   68.2480   11.8760 C.ar  240  HIS240      0.1986
     70  NE2       48.9260   68.6240   13.0510 N.ar  240  HIS240     -0.2212
     71  N         41.8500   66.1850   16.0250 N.3   242  ASP242     -0.1225
     72  CA        41.8000   65.7910   17.4320 C.3   242  ASP242      0.1805
     73  C         41.6120   66.8490   18.5100 C.2   242  ASP242      0.2597
     74  O         41.6640   66.5300   19.6830 O.2   242  ASP242     -0.2718
     75  CB        42.9530   64.8420   17.7920 C.3   242  ASP242      0.1424
     76  CG        44.3160   65.3280   17.3130 C.2   242  ASP242      0.3668
     77  OD1       44.4160   66.3250   16.5710 O.co2 242  ASP242     -0.2456
     78  OD2       45.3120   64.6920   17.6760 O.co2 242  ASP242     -0.2456
     79  N         41.4540   68.1110   18.1280 N.am  243  ALA243     -0.1979
     80  CA        41.1550   69.1570   19.1020 C.3   243  ALA243      0.1597
     81  C         39.8390   69.7800   18.6100 C.2   243  ALA243      0.2287
     82  O         39.4720   70.8990   18.9780 O.2   243  ALA243     -0.2864
     83  CB        42.2540   70.1890   19.1730 C.3   243  ALA243      0.0319
     84  N         33.8520   74.7460   17.2300 N.3   259  ARG259     -0.1245
     85  CA        33.9800   74.1820   15.8970 C.3   259  ARG259      0.1563
     86  C         32.9310   73.1080   15.6360 C.2   259  ARG259      0.2260
     87  O         33.2310   71.9200   15.6440 O.2   259  ARG259     -0.2867
     88  CB        35.3800   73.5990   15.7310 C.3   259  ARG259      0.0307
     89  CG        36.4680   74.6020   15.9710 C.3   259  ARG259      0.0489
     90  CD        37.7850   73.9190   16.1900 C.3   259  ARG259      0.2205
     91  NE        38.8320   74.8680   16.5700 N.pl3 259  ARG259     -0.0865
     92  CZ        40.0410   74.5270   17.0070 C.cat 259  ARG259      0.5346
     93  NH1       40.3820   73.2560   17.1350 N.pl3 259  ARG259      0.1354
     94  NH2       40.9130   75.4680   17.3080 N.pl3 259  ARG259      0.1354
     95  N         51.9890   76.9810   18.2900 N.3   290  MET290     -0.1230
     96  CA        51.4420   76.1730   17.1990 C.3   290  MET290      0.1702
     97  C         49.9480   75.8110   17.2140 C.2   290  MET290      0.2593
     98  O         49.4780   75.1460   16.2850 O.2   290  MET290     -0.2718
     99  CB        52.2530   74.8740   17.1040 C.3   290  MET290      0.0401
    100  CG        53.7390   75.0090   16.7920 C.3   290  MET290      0.0596
    101  SD        54.0000   74.9710   15.0230 S.3   290  MET290     -0.1393
    102  CE        53.1670   73.4410   14.5470 C.3   290  MET290      0.0692
    103  N         49.1950   76.2120   18.2350 N.am  291  SER291     -0.1938
    104  CA        47.7820   75.8400   18.2790 C.3   291  SER291      0.2055
    105  C         46.9030   76.7690   19.0930 C.2   291  SER291      0.2643
    106  O         47.3370   77.8280   19.5430 O.2   291  SER291     -0.2714
    107  CB        47.6410   74.4260   18.8460 C.3   291  SER291      0.2130
    108  OG        48.0670   74.4010   20.1940 O.3   291  SER291     -0.2179
    109  N         45.6560   76.3410   19.2640 N.am  292  SER292     -0.1949
    110  CA        44.6580   77.0490   20.0440 C.3   292  SER292      0.1924
    111  C         44.7200   76.5170   21.4800 C.2   292  SER292      0.2314
    112  O         45.4810   75.5950   21.7800 O.2   292  SER292     -0.2863
    113  CB        43.2590   76.7740   19.4880 C.3   292  SER292      0.2116
    114  OG        42.7750   75.5070   19.9240 O.3   292  SER292     -0.2180
    115  N         42.4450   74.8980   22.7960 N.3   294  TRP294     -0.1227
    116  CA        41.6800   73.6690   22.8470 C.3   294  TRP294      0.1737
    117  C         42.4040   72.3640   23.0380 C.2   294  TRP294      0.2595
    118  O         41.8100   71.2970   22.9350 O.2   294  TRP294     -0.2718
    119  CB        40.7200   73.6110   21.6780 C.3   294  TRP294      0.0564
    120  CG        39.5440   74.4470   21.9550 C.ar  294  TRP294      0.0003
    121  CD1       39.2650   75.6720   21.4310 C.ar  294  TRP294      0.0946
    122  CD2       38.4920   74.1490   22.8860 C.ar  294  TRP294      0.0152
    123  NE1       38.1040   76.1580   21.9810 N.ar  294  TRP294     -0.2442
    124  CE2       37.6110   75.2410   22.8800 C.ar  294  TRP294      0.0810
    125  CE3       38.2130   73.0590   23.7320 C.ar  294  TRP294      0.0012
    126  CZ2       36.4660   75.2820   23.6900 C.ar  294  TRP294      0.0191
    127  CZ3       37.0780   73.1040   24.5300 C.ar  294  TRP294      0.0001
    128  CH2       36.2220   74.2090   24.5020 C.ar  294  TRP294      0.0015
    129  N         43.6670   72.4450   23.4090 N.am  295  LEU295     -0.1980
    130  CA        44.4480   71.2490   23.6430 C.3   295  LEU295      0.1596
    131  C         43.8890   70.4810   24.8230 C.2   295  LEU295      0.2287
    132  O         44.1820   69.2930   24.9830 O.2   295  LEU295     -0.2864
    133  CB        45.9110   71.5990   23.9040 C.3   295  LEU295      0.0297
    134  CG        46.6220   72.2520   22.7310 C.3   295  LEU295      0.0022
    135  CD1       48.0350   72.5270   23.1110 C.3   295  LEU295      0.0001
    136  CD2       46.5410   71.3560   21.5050 C.3   295  LEU295      0.0001
    137  N         42.2480   67.3520   23.9330 N.3   298  ASN298     -0.1240
    138  CA        43.1360   66.5180   23.1620 C.3   298  ASN298      0.1653
    139  C         43.5900   65.3920   24.0900 C.2   298  ASN298      0.2266
    140  O         44.7690   65.0870   24.1930 O.2   298  ASN298     -0.2867
    141  CB        44.3180   67.3720   22.7140 C.3   298  ASN298      0.1155
    142  CG        45.1300   66.7340   21.6060 C.2   298  ASN298      0.2627
    143  OD1       46.3500   66.6590   21.7070 O.2   298  ASN298     -0.2716
    144  ND2       44.4740   66.3300   20.5160 N.am  298  ASN298     -0.0877
    145  N         52.5300   72.5750   20.4630 N.3   339  GLY339     -0.1225
    146  CA        51.4020   72.3410   19.5800 C.3   339  GLY339      0.1811
    147  C         50.4350   71.2180   19.8510 C.2   339  GLY339      0.2280
    148  O         49.5270   70.9970   19.0520 O.2   339  GLY339     -0.2866
    149  N         48.1550   64.2350   20.6270 N.3   344  CYS344     -0.1235
    150  CA        49.1240   64.6870   19.6530 C.3   344  CYS344      0.1677
    151  C         50.5260   64.1670   19.9640 C.2   344  CYS344      0.2270
    152  O         51.2750   63.8510   19.0420 O.2   344  CYS344     -0.2867
    153  CB        49.1520   66.2100   19.6150 C.3   344  CYS344      0.0956
    154  SG        47.7730   66.9600   18.7450 S.3   344  CYS344     -0.0801
@<TRIPOS>BOND
     1    40    39    2
     2     1     2    1
     3    51    50    2
     4    46    45    1
     5    46    47    1
     6    46    49    1
     7    39    38    1
     8    47    48    2
     9    32    31    2
    10    58    59    1
    11    58    57    1
    12     2     5    1
    13     2     3    1
    14    49    50    1
    15    50    52   am
    16    54    53    1
    17    54    57    1
    18    54    55    1
    19    59    60    1
    20     5     6    1
    21    37    38    1
    22    38    41    1
    23    61    55   am
    24    61    62    1
    25    31    30    1
    26    41    42    1
    27    69    67   ar
    28    69    70   ar
    29    67    66   ar
    30    55    56    2
    31     3     4    2
    32     6     7    2
    33     6     8   am
    34    42    43   ar
    35    42    44   ar
    36    62    63    1
    37    62    65    1
    38    30    33    1
    39    30    29    1
    40    70    68   ar
    41    33    34    1
    42    63    64    2
    43    66    65    1
    44    66    68   ar
    45    34    36   ar
    46    34    35   ar
    47   102   101    1
    48     9    10    1
    49   101   100    1
    50    11    10    1
    51    11    12    2
    52    10    13    1
    53    24    23    2
    54    86    87    2
    55    86    85    1
    56    88    85    1
    57    88    89    1
    58    85    84    1
    59    89    90    1
    60    71    72    1
    61    90    91    1
    62    98    97    2
    63    15    17   ar
    64    15    14   ar
    65    17    19   ar
    66    91    92    2
    67    77    76   ar
    68    23    22    1
    69    13    14    1
    70   100    99    1
    71    25    22    1
    72    25    26    1
    73    14    16   ar
    74    92    93    1
    75    92    94    1
    76    99    96    1
    77    96    97    1
    78    96    95    1
    79    97   103   am
    80    76    78   ar
    81    76    75    1
    82    72    75    1
    83    72    73    1
    84    19    20    1
    85    19    18   ar
    86    22    21    1
    87    26    27    1
    88    16    18   ar
    89    79    73   am
    90    79    80    1
    91   103   104    1
    92   104   107    1
    93   104   105    1
    94    73    74    2
    95    81    82    2
    96    81    80    1
    97   154   153    1
    98   107   108    1
    99   152   151    2
   100   148   147    2
   101   105   109   am
   102   105   106    2
   103    80    83    1
   104   109   110    1
   105    27    28    1
   106   113   114    1
   107   113   110    1
   108   146   147    1
   109   146   145    1
   110   153   150    1
   111   150   151    1
   112   150   149    1
   113   110   111    1
   114   144   142   am
   115   121   120   ar
   116   121   123   ar
   117   111   112    2
   118   136   134    1
   119   142   143    2
   120   142   141    1
   121   119   120    1
   122   119   116    1
   123   120   122   ar
   124   123   124   ar
   125   141   138    1
   126   134   135    1
   127   134   133    1
   128   115   116    1
   129   116   117    1
   130   124   122   ar
   131   124   126   ar
   132   122   125   ar
   133   118   117    2
   134   117   129   am
   135   138   137    1
   136   138   139    1
   137   129   130    1
   138   130   133    1
   139   130   131    1
   140   126   128   ar
   141   125   127   ar
   142   139   140    2
   143   128   127   ar
   144   131   132    2
