@<TRIPOS>MOLECULE
tmp/3jprA00.pdb
 153 145 0 0 0
SMALL
GASTEIGER

@<TRIPOS>ATOM
      1  N         18.4260   -1.9440    9.1460 N.3    31  ARG31      -0.1245
      2  CA        16.9670   -2.0930    9.2620 C.3    31  ARG31       0.1563
      3  C         16.3550   -2.5610    7.9450 C.2    31  ARG31       0.2260
      4  O         15.4550   -3.3950    7.9290 O.2    31  ARG31      -0.2867
      5  CB        16.2870   -0.7680    9.5930 C.3    31  ARG31       0.0307
      6  CG        16.9660    0.0980   10.6060 C.3    31  ARG31       0.0489
      7  CD        16.4160    1.5010   10.4480 C.3    31  ARG31       0.2205
      8  NE        15.0190    1.5640   10.8450 N.pl3  31  ARG31      -0.0865
      9  CZ        14.2060    2.5740   10.5640 C.cat  31  ARG31       0.5346
     10  NH1       14.6400    3.6180    9.8690 N.pl3  31  ARG31       0.1354
     11  NH2       12.9600    2.5470   11.0140 N.pl3  31  ARG31       0.1354
     12  N          3.1800   -3.5440   24.9700 N.3   140  ARG140     -0.1245
     13  CA         2.4510   -3.5180   23.6990 C.3   140  ARG140      0.1563
     14  C          0.9780   -3.2040   23.9900 C.2   140  ARG140      0.2260
     15  O          0.5150   -3.3790   25.1150 O.2   140  ARG140     -0.2867
     16  CB         2.5320   -4.8870   23.0350 C.3   140  ARG140      0.0307
     17  CG         3.9290   -5.4410   22.8650 C.3   140  ARG140      0.0489
     18  CD         4.5830   -4.8490   21.6540 C.3   140  ARG140      0.2205
     19  NE         3.7130   -4.9540   20.4820 N.pl3 140  ARG140     -0.0865
     20  CZ         3.9500   -4.3430   19.3280 C.cat 140  ARG140      0.5346
     21  NH1        5.0290   -3.5880   19.1980 N.pl3 140  ARG140      0.1354
     22  NH2        3.1030   -4.4720   18.3160 N.pl3 140  ARG140      0.1354
     23  N         -1.0650    4.4190   11.7360 N.3   170  GLY170     -0.1210
     24  CA        -0.0150    3.5760   12.2720 C.3   170  GLY170      0.1956
     25  C         -0.2650    2.1030   12.0090 C.2   170  GLY170      0.2612
     26  O         -0.9820    1.7450   11.0690 O.2   170  GLY170     -0.2717
     27  N          0.3280    1.2420   12.8360 N.am  171  SER171     -0.1952
     28  CA         0.1660   -0.2010   12.6630 C.3   171  SER171      0.1924
     29  C         -1.2980   -0.6280   12.7900 C.2   171  SER171      0.2314
     30  O         -1.6910   -1.6590   12.2560 O.2   171  SER171     -0.2863
     31  CB         1.0260   -0.9650   13.6800 C.3   171  SER171      0.2116
     32  OG         0.5790   -0.7250   14.9980 O.3   171  SER171     -0.2180
     33  N         -2.8570   -0.5320    9.6130 N.3   174  ARG174     -0.1245
     34  CA        -2.2410   -1.6130    8.8540 C.3   174  ARG174      0.1563
     35  C         -2.7520   -2.9790    9.3200 C.2   174  ARG174      0.2260
     36  O         -2.2710   -4.0180    8.8630 O.2   174  ARG174     -0.2867
     37  CB        -0.7140   -1.5660    8.9660 C.3   174  ARG174      0.0307
     38  CG        -0.0850   -0.2930    8.4110 C.3   174  ARG174      0.0489
     39  CD         1.4050   -0.4770    8.1100 C.3   174  ARG174      0.2205
     40  NE         2.1730   -0.9220    9.2750 N.pl3 174  ARG174     -0.0865
     41  CZ         2.6580   -0.1120   10.2070 C.cat 174  ARG174      0.5346
     42  NH1        2.4660    1.2010   10.1220 N.pl3 174  ARG174      0.1354
     43  NH2        3.3330   -0.6180   11.2330 N.pl3 174  ARG174      0.1354
     44  N         -0.2890   -2.8080   18.8620 N.3   179  SER179     -0.1202
     45  CA         0.4610   -1.6390   18.4250 C.3   179  SER179      0.2020
     46  C          1.3550   -1.1030   19.5350 C.2   179  SER179      0.2619
     47  O          1.0950   -1.3260   20.7180 O.2   179  SER179     -0.2717
     48  CB        -0.5120   -0.5500   17.9580 C.3   179  SER179      0.2103
     49  OG        -1.3410   -1.0430   16.9150 O.3   179  SER179     -0.2182
     50  N          2.4210   -0.4170   19.1400 N.am  180  GLY180     -0.1942
     51  CA         3.3270    0.1560   20.1130 C.3   180  GLY180      0.2014
     52  C          2.7430    1.4160   20.7230 C.2   180  GLY180      0.2638
     53  O          3.0660    1.7570   21.8560 O.2   180  GLY180     -0.2714
     54  N          1.8810    2.1040   19.9720 N.am  181  ASP181     -0.1971
     55  CA         1.2420    3.3260   20.4470 C.3   181  ASP181      0.1709
     56  C          0.0170    3.6520   19.6000 C.2   181  ASP181      0.2293
     57  O         -0.3700    2.8760   18.7360 O.2   181  ASP181     -0.2864
     58  CB         2.2190    4.4950   20.3730 C.3   181  ASP181      0.1436
     59  CG         2.4340    4.9940   18.9570 C.2   181  ASP181      0.3671
     60  OD1        2.0160    4.3170   17.9930 O.co2 181  ASP181     -0.2456
     61  OD2        3.0360    6.0750   18.7980 O.co2 181  ASP181     -0.2456
     62  N         -1.6770    6.3700   16.9280 N.3   183  ASP183     -0.1239
     63  CA        -1.4260    7.4780   16.0200 C.3   183  ASP183      0.1674
     64  C         -2.7570    7.9720   15.4340 C.2   183  ASP183      0.2266
     65  O         -3.4710    7.2190   14.7640 O.2   183  ASP183     -0.2867
     66  CB        -0.4850    7.0150   14.9080 C.3   183  ASP183      0.1410
     67  CG         0.8010    6.4150   15.4540 C.2   183  ASP183      0.3668
     68  OD1        1.5700    7.1490   16.1040 O.co2 183  ASP183     -0.2456
     69  OD2        1.0380    5.2110   15.2530 O.co2 183  ASP183     -0.2456
     70  N          0.0660   10.0420   19.5510 N.3   247  ASP247     -0.1239
     71  CA         0.4840   11.0800   18.6130 C.3   247  ASP247      0.1674
     72  C         -0.7440   11.5090   17.8230 C.2   247  ASP247      0.2266
     73  O         -1.4690   10.6700   17.2950 O.2   247  ASP247     -0.2867
     74  CB         1.5440   10.5550   17.6400 C.3   247  ASP247      0.1410
     75  CG         2.8290   10.1360   18.3360 C.2   247  ASP247      0.3668
     76  OD1        3.3130   10.8970   19.1980 O.co2 247  ASP247     -0.2456
     77  OD2        3.3570    9.0500   18.0160 O.co2 247  ASP247     -0.2456
     78  N          1.1560    8.9530    4.6540 N.3   262  TYR262     -0.1227
     79  CA         2.2740    9.1670    5.5640 C.3   262  TYR262      0.1736
     80  C          2.0810    8.4810    6.9170 C.2   262  TYR262      0.2595
     81  O          2.8840    7.6350    7.3050 O.2   262  TYR262     -0.2718
     82  CB         2.4710   10.6690    5.7970 C.3   262  TYR262      0.0548
     83  CG         3.1010   11.0120    7.1310 C.ar  262  TYR262     -0.0200
     84  CD1        4.4290   10.6710    7.4140 C.ar  262  TYR262     -0.0009
     85  CD2        2.3580   11.6540    8.1260 C.ar  262  TYR262     -0.0009
     86  CE1        4.9960   10.9570    8.6560 C.ar  262  TYR262      0.0417
     87  CE2        2.9130   11.9450    9.3660 C.ar  262  TYR262      0.0417
     88  CZ         4.2300   11.5950    9.6290 C.ar  262  TYR262      0.1957
     89  OH         4.7730   11.8760   10.8650 O.3   262  TYR262     -0.2866
     90  N          1.0140    8.8560    7.6190 N.am  263  PHE263     -0.1962
     91  CA         0.7250    8.3320    8.9540 C.3   263  PHE263      0.1771
     92  C          0.3950    6.8480    9.0520 C.2   263  PHE263      0.2620
     93  O          0.4200    6.2810   10.1440 O.2   263  PHE263     -0.2715
     94  CB        -0.3900    9.1590    9.6040 C.3   263  PHE263      0.0574
     95  CG        -0.0700    9.6260   11.0010 C.ar  263  PHE263     -0.0200
     96  CD1        1.2500    9.7020   11.4440 C.ar  263  PHE263     -0.0042
     97  CD2       -1.0900   10.0300   11.8600 C.ar  263  PHE263     -0.0042
     98  CE1        1.5440   10.1720   12.7140 C.ar  263  PHE263     -0.0003
     99  CE2       -0.8050   10.5040   13.1320 C.ar  263  PHE263     -0.0003
    100  CZ         0.5140   10.5760   13.5640 C.ar  263  PHE263     -0.0000
    101  N          0.0780    6.2110    7.9310 N.am  264  THR264     -0.1937
    102  CA        -0.2150    4.7820    7.9590 C.3   264  THR264      0.2028
    103  C          1.0900    3.9900    7.9590 C.2   264  THR264      0.2643
    104  O          1.1650    2.8930    8.5240 O.2   264  THR264     -0.2714
    105  CB        -1.0730    4.3600    6.7570 C.3   264  THR264      0.1808
    106  OG1       -2.3730    4.9540    6.8760 O.3   264  THR264     -0.2208
    107  CG2       -1.2250    2.8560    6.7190 C.3   264  THR264      0.0379
    108  N          2.1200    4.5540    7.3280 N.am  265  GLY265     -0.1939
    109  CA         3.4180    3.9000    7.2870 C.3   265  GLY265      0.2014
    110  C          3.4490    2.5730    6.5530 C.2   265  GLY265      0.2640
    111  O          2.6500    2.3460    5.6480 O.2   265  GLY265     -0.2714
    112  N          4.3640    1.6820    6.9280 N.am  266  SER266     -0.1935
    113  CA         5.3320    1.8910    8.0070 C.3   266  SER266      0.2055
    114  C          6.3790    2.9550    7.6770 C.2   266  SER266      0.2643
    115  O          6.3870    3.5210    6.5780 O.2   266  SER266     -0.2714
    116  CB         6.0470    0.5780    8.3000 C.3   266  SER266      0.2130
    117  OG         6.9190    0.2530    7.2310 O.3   266  SER266     -0.2179
    118  N          7.2690    3.2200    8.6240 N.am  267  ASP267     -0.1971
    119  CA         8.2950    4.2260    8.3970 C.3   267  ASP267      0.1709
    120  C          9.2440    3.7960    7.2860 C.2   267  ASP267      0.2293
    121  O          9.6430    4.6140    6.4580 O.2   267  ASP267     -0.2864
    122  CB         9.0590    4.5330    9.6990 C.3   267  ASP267      0.1436
    123  CG         9.7830    3.3230   10.2740 C.2   267  ASP267      0.3671
    124  OD1        9.3880    2.1650    9.9830 O.co2 267  ASP267     -0.2456
    125  OD2       10.7490    3.5470   11.0450 O.co2 267  ASP267     -0.2456
    126  N          7.4310    4.0290    4.0200 N.3   270  ASN270     -0.1225
    127  CA         7.4500    5.4250    3.6060 C.3   270  ASN270      0.1785
    128  C          8.7910    5.7840    2.9830 C.2   270  ASN270      0.2597
    129  O          8.8390    6.4270    1.9320 O.2   270  ASN270     -0.2718
    130  CB         7.1910    6.3420    4.8050 C.3   270  ASN270      0.1169
    131  CG         5.7310    6.3830    5.1980 C.2   270  ASN270      0.2627
    132  OD1        4.8880    5.7460    4.5640 O.2   270  ASN270     -0.2716
    133  ND2        5.4220    7.1330    6.2430 N.am  270  ASN270     -0.0877
    134  N          9.8780    5.3700    3.6340 N.am  271  LYS271     -0.1980
    135  CA        11.2110    5.6760    3.1390 C.3   271  LYS271      0.1596
    136  C         11.4050    5.0510    1.7740 C.2   271  LYS271      0.2287
    137  O         11.9680    5.6750    0.8790 O.2   271  LYS271     -0.2864
    138  CB        12.2980    5.1830    4.1130 C.3   271  LYS271      0.0298
    139  CG        12.3920    6.0000    5.3980 C.3   271  LYS271      0.0038
    140  CD        13.4270    5.4440    6.3840 C.3   271  LYS271      0.0206
    141  CE        14.8580    5.8900    6.0780 C.3   271  LYS271      0.1093
    142  NZ        15.4110    5.2890    4.8380 N.3   271  LYS271     -0.1314
    143  N          9.0080    6.9400   -0.8840 N.3   274  ARG274     -0.1245
    144  CA         9.5300    8.2670   -1.2150 C.3   274  ARG274      0.1563
    145  C         10.7950    8.1960   -2.0660 C.2   274  ARG274      0.2260
    146  O         11.0150    9.0450   -2.9320 O.2   274  ARG274     -0.2867
    147  CB         9.7840    9.0720    0.0650 C.3   274  ARG274      0.0307
    148  CG         8.4830    9.4480    0.7570 C.3   274  ARG274      0.0489
    149  CD         8.6510   10.2590    2.0250 C.3   274  ARG274      0.2205
    150  NE         7.3380   10.5240    2.6110 N.pl3 274  ARG274     -0.0865
    151  CZ         7.1230   11.3110    3.6580 C.cat 274  ARG274      0.5346
    152  NH1        8.1410   11.9210    4.2540 N.pl3 274  ARG274      0.1354
    153  NH2        5.8860   11.5080    4.0990 N.pl3 274  ARG274      0.1354
@<TRIPOS>BOND
     1   146   145    2
     2   145   144    1
     3   144   143    1
     4   144   147    1
     5   147   148    1
     6   148   149    1
     7   137   136    2
     8   136   135    1
     9   129   128    2
    10   149   150    1
    11   150   151    2
    12   128   127    1
    13   128   134   am
    14   135   134    1
    15   135   138    1
    16   127   126    1
    17   127   130    1
    18   151   153    1
    19   151   152    1
    20   138   139    1
    21   132   131    2
    22    78    79    1
    23   130   131    1
    24   142   141    1
    25   131   133   am
    26   139   140    1
    27    79    82    1
    28    79    80    1
    29   111   110    2
    30    82    83    1
    31   141   140    1
    32   121   120    2
    33   110   112   am
    34   110   109    1
    35   115   114    2
    36   107   105    1
    37   105   106    1
    38   105   102    1
    39    80    81    2
    40    80    90   am
    41   112   113    1
    42    83    84   ar
    43    83    85   ar
    44   117   116    1
    45   120   119    1
    46   109   108    1
    47   108   103   am
    48    84    86   ar
    49    90    91    1
    50   114   113    1
    51   114   118   am
    52     4     3    2
    53   101   102    1
    54   101    92   am
    55     3     2    1
    56   103   102    1
    57   103   104    2
    58   113   116    1
    59    39    38    1
    60    39    40    1
    61    85    87   ar
    62   119   118    1
    63   119   122    1
    64    38    37    1
    65    86    88   ar
    66    34    37    1
    67    34    35    1
    68    34    33    1
    69    36    35    2
    70    91    92    1
    71    91    94    1
    72    92    93    2
    73     1     2    1
    74     2     5    1
    75    40    41    2
    76    87    88   ar
    77     5     6    1
    78    94    95    1
    79    88    89    1
    80   122   123    1
    81    10     9    1
    82   124   123   ar
    83    42    41    1
    84    41    43    1
    85   123   125   ar
    86     7     6    1
    87     7     8    1
    88     9     8    2
    89     9    11    1
    90    95    96   ar
    91    95    97   ar
    92    26    25    2
    93    96    98   ar
    94    23    24    1
    95    97    99   ar
    96    25    24    1
    97    25    27   am
    98    30    29    2
    99    28    29    1
   100    28    27    1
   101    28    31    1
   102    98   100   ar
   103    99   100   ar
   104    31    32    1
   105    65    64    2
   106    66    67    1
   107    66    63    1
   108    69    67   ar
   109    64    63    1
   110    67    68   ar
   111    63    62    1
   112    49    48    1
   113    73    72    2
   114    74    75    1
   115    74    71    1
   116    72    71    1
   117    48    45    1
   118    60    59   ar
   119    77    75   ar
   120    22    20    1
   121    75    76   ar
   122    45    44    1
   123    45    46    1
   124    71    70    1
   125    57    56    2
   126    61    59   ar
   127    59    58    1
   128    50    46   am
   129    50    51    1
   130    21    20    1
   131    20    19    2
   132    46    47    2
   133    56    55    1
   134    54    55    1
   135    54    52   am
   136    51    52    1
   137    58    55    1
   138    19    18    1
   139    52    53    2
   140    18    17    1
   141    17    16    1
   142    16    13    1
   143    13    14    1
   144    13    12    1
   145    14    15    2
