@<TRIPOS>MOLECULE
tmp/3jpvA00.pdb
 135 126 0 0 0
SMALL
GASTEIGER

@<TRIPOS>ATOM
      1  N         31.9710   46.0950   -3.6680 N.3    12  LEU12      -0.1231
      2  CA        30.5460   46.3260   -4.0080 C.3    12  LEU12       0.1693
      3  C         30.3480   47.6860   -4.7060 C.2    12  LEU12       0.2592
      4  O         29.4580   47.8250   -5.5330 O.2    12  LEU12      -0.2718
      5  CB        29.6560   46.2850   -2.7600 C.3    12  LEU12       0.0284
      6  CG        29.4550   44.9520   -2.0000 C.3    12  LEU12       0.0019
      7  CD1       28.8200   45.1540   -0.6590 C.3    12  LEU12       0.0001
      8  CD2       28.6030   43.9930   -2.7600 C.3    12  LEU12       0.0001
      9  N         31.1570   48.6900   -4.3820 N.am   13  GLY13      -0.1957
     10  CA        31.0570   49.9770   -5.0720 C.3    13  GLY13       0.1869
     11  C         32.0250   50.9990   -4.5120 C.2    13  GLY13       0.2309
     12  O         32.6950   50.7580   -3.4990 O.2    13  GLY13      -0.2863
     13  N         31.4980   58.6210   -1.4280 N.3    17  PHE17      -0.1241
     14  CA        31.4760   57.9910   -0.0950 C.3    17  PHE17       0.1605
     15  C         32.7190   57.1120    0.2450 C.2    17  PHE17       0.2264
     16  O         32.8880   56.6910    1.3800 O.2    17  PHE17      -0.2867
     17  CB        30.2010   57.1040    0.0000 C.3    17  PHE17       0.0534
     18  CG        30.1310   56.0230   -1.0820 C.ar   17  PHE17      -0.0203
     19  CD1       30.8130   54.8180   -0.9210 C.ar   17  PHE17      -0.0042
     20  CD2       29.4440   56.2530   -2.2820 C.ar   17  PHE17      -0.0042
     21  CE1       30.7980   53.8420   -1.9290 C.ar   17  PHE17      -0.0003
     22  CE2       29.4200   55.2870   -3.2890 C.ar   17  PHE17      -0.0003
     23  CZ        30.0920   54.0670   -3.1040 C.ar   17  PHE17      -0.0000
     24  N         33.3910   50.4800   -0.8080 N.3    20  VAL20      -0.1245
     25  CA        32.6420   49.5350    0.0110 C.3    20  VAL20       0.1561
     26  C         32.8690   48.1340   -0.5560 C.2    20  VAL20       0.2260
     27  O         32.8000   47.9670   -1.7700 O.2    20  VAL20      -0.2867
     28  CB        31.1400   49.8860    0.0780 C.3    20  VAL20       0.0252
     29  CG1       30.4410   48.9670    1.0260 C.3    20  VAL20       0.0019
     30  CG2       30.9590   51.3170    0.5290 C.3    20  VAL20       0.0019
     31  N         28.9830   44.5770    5.0260 N.3    33  ALA33      -0.1245
     32  CA        29.6740   45.4810    4.0930 C.3    33  ALA33       0.1562
     33  C         30.7330   46.2850    4.8530 C.2    33  ALA33       0.2260
     34  O         30.5330   46.7090    6.0020 O.2    33  ALA33      -0.2867
     35  CB        28.6980   46.4060    3.3460 C.3    33  ALA33       0.0290
     36  N         33.1710   49.5090    4.7080 N.3    35  LYS35      -0.1245
     37  CA        33.2600   50.8050    4.0580 C.3    35  LYS35       0.1561
     38  C         34.4870   51.5700    4.5290 C.2    35  LYS35       0.2260
     39  O         34.6980   51.7790    5.7210 O.2    35  LYS35      -0.2867
     40  CB        32.0180   51.6370    4.3690 C.3    35  LYS35       0.0271
     41  CG        32.0450   53.0990    3.8130 C.3    35  LYS35       0.0035
     42  CD        30.7450   53.8030    4.1740 C.3    35  LYS35       0.0206
     43  CE        30.7770   55.2770    3.7780 C.3    35  LYS35       0.1093
     44  NZ        29.4250   55.8560    3.6960 N.3    35  LYS35      -0.1314
     45  N         20.3960   50.5440    7.3950 N.3    72  ILE72      -0.1245
     46  CA        21.5800   49.6680    7.5030 C.3    72  ILE72       0.1561
     47  C         22.3200   50.0460    8.7870 C.2    72  ILE72       0.2260
     48  O         22.6840   51.2020    8.9860 O.2    72  ILE72      -0.2867
     49  CB        22.5870   49.7780    6.2860 C.3    72  ILE72       0.0252
     50  CG1       22.0830   49.0800    5.0210 C.3    72  ILE72       0.0019
     51  CG2       23.8540   49.0810    6.5810 C.3    72  ILE72       0.0019
     52  CD1       21.7000   47.6190    5.2350 C.3    72  ILE72       0.0001
     53  N         29.2560   47.3970    8.3910 N.3    88  LEU88      -0.1231
     54  CA        27.8280   47.6040    8.2460 C.3    88  LEU88       0.1693
     55  C         27.1610   46.2780    7.9600 C.2    88  LEU88       0.2592
     56  O         27.8060   45.3320    7.5120 O.2    88  LEU88      -0.2718
     57  CB        27.5400   48.5960    7.0910 C.3    88  LEU88       0.0284
     58  CG        28.2650   49.9590    7.1140 C.3    88  LEU88       0.0019
     59  CD1       28.2230   50.6260    5.7580 C.3    88  LEU88       0.0001
     60  CD2       27.6650   50.8980    8.1680 C.3    88  LEU88       0.0001
     61  N         25.8640   46.2070    8.2200 N.am   89  GLU89      -0.1966
     62  CA        25.0610   45.0810    7.7840 C.3    89  GLU89       0.1733
     63  C         25.0640   44.9240    6.2760 C.2    89  GLU89       0.2616
     64  O         25.1300   45.9170    5.5250 O.2    89  GLU89      -0.2715
     65  CB        23.6020   45.2950    8.1480 C.3    89  GLU89       0.0429
     66  CG        23.2890   45.2960    9.6150 C.3    89  GLU89       0.1163
     67  CD        21.7980   45.3600    9.8320 C.2    89  GLU89       0.3649
     68  OE1       21.1800   46.3420    9.3200 O.co2  89  GLU89      -0.2457
     69  OE2       21.2600   44.4390   10.4990 O.co2  89  GLU89      -0.2457
     70  N         24.8870   43.6760    5.8470 N.am   90  ARG90      -0.1964
     71  CA        24.6400   43.3690    4.4440 C.3    90  ARG90       0.1714
     72  C         23.5060   42.3510    4.3230 C.2    90  ARG90       0.2458
     73  O         23.6250   41.2280    4.8220 O.2    90  ARG90      -0.2730
     74  CB        25.8960   42.8320    3.7720 C.3    90  ARG90       0.0347
     75  CG        25.7000   42.4440    2.3160 C.3    90  ARG90       0.0492
     76  CD        27.0430   42.1760    1.6660 C.3    90  ARG90       0.2205
     77  NE        27.8050   41.1010    2.3200 N.pl3  90  ARG90      -0.0865
     78  CZ        27.7060   39.8110    2.0110 C.cat  90  ARG90       0.5346
     79  NH1       26.8600   39.4040    1.0760 N.pl3  90  ARG90       0.1354
     80  NH2       28.4470   38.9110    2.6430 N.pl3  90  ARG90       0.1354
     81  N         22.3900   42.7710    3.7110 N.am   91  PRO91      -0.2727
     82  CA        21.2960   41.9010    3.3070 C.3    91  PRO91       0.1402
     83  C         21.7490   40.9950    2.1890 C.2    91  PRO91       0.2269
     84  O         22.6280   41.3360    1.4070 O.2    91  PRO91      -0.2865
     85  CB        20.2440   42.8730    2.7480 C.3    91  PRO91       0.0296
     86  CG        20.6400   44.2510    3.1980 C.3    91  PRO91       0.0237
     87  CD        22.0860   44.2090    3.5090 C.3    91  PRO91       0.0939
     88  N         20.3250   41.0690   -2.2390 N.3    94  VAL94      -0.1245
     89  CA        20.0680   42.4920   -2.1920 C.3    94  VAL94       0.1561
     90  C         20.2270   43.0840   -3.5960 C.2    94  VAL94       0.2260
     91  O         20.9610   42.5430   -4.4060 O.2    94  VAL94      -0.2867
     92  CB        21.0440   43.1800   -1.2200 C.3    94  VAL94       0.0252
     93  CG1       22.4520   43.2280   -1.8300 C.3    94  VAL94       0.0019
     94  CG2       20.5710   44.5660   -0.8740 C.3    94  VAL94       0.0019
     95  N         19.5430   55.3960   -5.1360 N.3   139  GLU139     -0.1231
     96  CA        20.8670   54.7870   -4.9950 C.3   139  GLU139      0.1699
     97  C         21.2590   54.5740   -3.5470 C.2   139  GLU139      0.2592
     98  O         22.2320   53.8990   -3.2880 O.2   139  GLU139     -0.2718
     99  CB        21.9460   55.6910   -5.5660 C.3   139  GLU139      0.0402
    100  CG        21.7820   56.2280   -6.9830 C.3   139  GLU139      0.1161
    101  CD        22.9850   57.0740   -7.3670 C.2   139  GLU139      0.3649
    102  OE1       24.1300   56.5170   -7.3150 O.co2 139  GLU139     -0.2457
    103  OE2       22.7870   58.2810   -7.6710 O.co2 139  GLU139     -0.2457
    104  N         20.5400   55.1970   -2.6060 N.am  140  ASN140     -0.1974
    105  CA        20.8300   55.0690   -1.1760 C.3   140  ASN140      0.1688
    106  C         19.7970   54.2330   -0.4560 C.2   140  ASN140      0.2292
    107  O         19.6530   54.3240    0.7940 O.2   140  ASN140     -0.2864
    108  CB        21.0180   56.4700   -0.5120 C.3   140  ASN140      0.1181
    109  CG        22.3280   57.1440   -0.9460 C.2   140  ASN140      0.2629
    110  OD1       23.2080   56.4360   -1.3800 O.2   140  ASN140     -0.2716
    111  ND2       22.4500   58.4920   -0.8460 N.am  140  ASN140     -0.0877
    112  N         18.5440   50.1330   -0.2300 N.3   142  LEU142     -0.1245
    113  CA        18.8120   48.7620   -0.5790 C.3   142  LEU142      0.1561
    114  C         17.5570   48.0130   -0.3550 C.2   142  LEU142      0.2260
    115  O         16.8430   48.3270    0.5920 O.2   142  LEU142     -0.2867
    116  CB        19.8780   48.1710    0.3090 C.3   142  LEU142      0.0270
    117  CG        21.2810   48.7140    0.1810 C.3   142  LEU142      0.0019
    118  CD1       22.1730   47.8480    1.0960 C.3   142  LEU142      0.0001
    119  CD2       21.7460   48.7130   -1.2800 C.3   142  LEU142      0.0001
    120  N         20.9430   53.6480    3.1790 N.3   153  ILE153     -0.1231
    121  CA        22.3900   53.6760    3.3120 C.3   153  ILE153      0.1692
    122  C         22.9570   55.0590    3.1300 C.2   153  ILE153      0.2592
    123  O         22.2860   55.9760    2.6600 O.2   153  ILE153     -0.2718
    124  CB        23.1120   52.7020    2.3350 C.3   153  ILE153      0.0266
    125  CG1       22.7350   52.9740    0.8890 C.3   153  ILE153      0.0019
    126  CG2       22.7720   51.2830    2.6630 C.3   153  ILE153      0.0020
    127  CD1       23.5680   52.1570   -0.1150 C.3   153  ILE153      0.0001
    128  N         24.2130   55.1800    3.5580 N.am  154  ASP154     -0.1974
    129  CA        25.0950   56.3260    3.3320 C.3   154  ASP154      0.1709
    130  C         24.6480   57.5630    4.0680 C.2   154  ASP154      0.2293
    131  O         23.9650   58.4190    3.5040 O.2   154  ASP154     -0.2864
    132  CB        25.2680   56.6480    1.8400 C.3   154  ASP154      0.1436
    133  CG        26.4780   57.5490    1.5690 C.2   154  ASP154      0.3671
    134  OD1       27.1280   57.9760    2.5520 O.co2 154  ASP154     -0.2456
    135  OD2       26.7920   57.8100    0.3750 O.co2 154  ASP154     -0.2456
@<TRIPOS>BOND
     1   103   101   ar
     2   101   102   ar
     3   101   100    1
     4   100    99    1
     5    99    96    1
     6     4     3    2
     7    95    96    1
     8    10    11    1
     9    10     9    1
    10    96    97    1
    11     3     9   am
    12     3     2    1
    13    11    12    2
    14    91    90    2
    15     2     1    1
    16     2     5    1
    17    90    89    1
    18    97    98    2
    19    97   104   am
    20    22    23   ar
    21    22    20   ar
    22    23    21   ar
    23     8     6    1
    24     5     6    1
    25   104   105    1
    26    20    18   ar
    27    88    89    1
    28    89    92    1
    29     6     7    1
    30    21    19   ar
    31    93    92    1
    32    27    26    2
    33    13    14    1
    34   110   109    2
    35   119   117    1
    36    92    94    1
    37   105   108    1
    38   105   106    1
    39    18    19   ar
    40    18    17    1
    41   109   111   am
    42   109   108    1
    43    24    25    1
    44   113   114    1
    45   113   112    1
    46   113   116    1
    47    26    25    1
    48   106   107    2
    49   114   115    2
    50   127   125    1
    51    14    17    1
    52    14    15    1
    53    25    28    1
    54    28    30    1
    55    28    29    1
    56   117   116    1
    57   117   118    1
    58    15    16    2
    59   135   133   ar
    60   125   124    1
    61    79    78    1
    62    84    83    2
    63   133   132    1
    64   133   134   ar
    65    76    75    1
    66    76    77    1
    67   132   129    1
    68    78    77    2
    69    78    80    1
    70    83    82    1
    71    75    74    1
    72   124   126    1
    73   124   121    1
    74   123   122    2
    75    85    86    1
    76    85    82    1
    77   122   121    1
    78   122   128   am
    79   120   121    1
    80    86    87    1
    81    82    81    1
    82   129   128    1
    83   129   130    1
    84    35    32    1
    85   131   130    2
    86    87    81    1
    87    44    43    1
    88    81    72   am
    89    74    71    1
    90    43    42    1
    91    41    42    1
    92    41    40    1
    93    37    40    1
    94    37    38    1
    95    37    36    1
    96    32    33    1
    97    32    31    1
    98    72    71    1
    99    72    73    2
   100    71    70    1
   101    38    39    2
   102    33    34    2
   103    50    52    1
   104    50    49    1
   105    64    63    2
   106    59    58    1
   107    70    63   am
   108    63    62    1
   109    49    51    1
   110    49    46    1
   111    57    58    1
   112    57    54    1
   113    58    60    1
   114    45    46    1
   115    46    47    1
   116    56    55    2
   117    62    65    1
   118    62    61    1
   119    55    61   am
   120    55    54    1
   121    65    66    1
   122    54    53    1
   123    47    48    2
   124    68    67   ar
   125    66    67    1
   126    67    69   ar
