@<TRIPOS>MOLECULE
tmp/3jpxA00.pdb
 172 166 0 0 0
SMALL
GASTEIGER

@<TRIPOS>ATOM
      1  N         12.2400   19.7490   31.3060 N.3    15  PRO15      -0.2116
      2  CA        11.2650   20.5050   30.5410 C.3    15  PRO15       0.1372
      3  C         10.5270   19.7280   29.4530 C.2    15  PRO15       0.2244
      4  O         11.1210   18.9420   28.7040 O.2    15  PRO15      -0.2868
      5  CB        12.1070   21.5970   29.8920 C.3    15  PRO15       0.0268
      6  CG        13.2750   21.8120   30.8360 C.3    15  PRO15       0.0207
      7  CD        13.5330   20.4720   31.4450 C.3    15  PRO15       0.0892
      8  N          9.3330   20.6240   26.1060 N.3    17  PHE17      -0.1241
      9  CA         9.6040   21.6760   25.1570 C.3    17  PHE17       0.1605
     10  C          8.5560   21.8220   24.0650 C.2    17  PHE17       0.2264
     11  O          8.5270   22.8280   23.3690 O.2    17  PHE17      -0.2867
     12  CB        10.9570   21.4220   24.4850 C.3    17  PHE17       0.0534
     13  CG        12.1220   21.6910   25.3840 C.ar   17  PHE17      -0.0203
     14  CD1       12.2660   22.9390   25.9950 C.ar   17  PHE17      -0.0042
     15  CD2       13.0890   20.6960   25.6230 C.ar   17  PHE17      -0.0042
     16  CE1       13.3940   23.2330   26.8280 C.ar   17  PHE17      -0.0003
     17  CE2       14.2020   20.9450   26.4840 C.ar   17  PHE17      -0.0003
     18  CZ        14.3560   22.2150   27.0760 C.ar   17  PHE17      -0.0000
     19  N         17.6940   14.5370   23.6300 N.3    66  ASN66      -0.1240
     20  CA        16.7190   15.3990   24.2770 C.3    66  ASN66       0.1653
     21  C         15.7420   15.9020   23.2110 C.2    66  ASN66       0.2266
     22  O         16.1220   16.6850   22.3010 O.2    66  ASN66      -0.2867
     23  CB        17.4160   16.5500   25.0540 C.3    66  ASN66       0.1155
     24  CG        16.4260   17.4050   25.8780 C.2    66  ASN66       0.2627
     25  OD1       15.1660   17.1050   25.9800 O.2    66  ASN66      -0.2716
     26  ND2       16.9540   18.4870   26.4550 N.am   66  ASN66      -0.0877
     27  N         13.0160   17.9670   21.3970 N.3    68  TYR68      -0.1241
     28  CA        12.6060   19.3640   21.5300 C.3    68  TYR68       0.1605
     29  C         11.2580   19.5900   20.8620 C.2    68  TYR68       0.2264
     30  O         10.5430   20.5190   21.2170 O.2    68  TYR68      -0.2867
     31  CB        13.6380   20.2590   20.7830 C.3    68  TYR68       0.0534
     32  CG        15.0140   20.3090   21.3850 C.ar   68  TYR68      -0.0201
     33  CD1       15.2810   19.8290   22.6870 C.ar   68  TYR68      -0.0009
     34  CD2       16.0690   20.8770   20.6510 C.ar   68  TYR68      -0.0009
     35  CE1       16.5950   19.9400   23.2320 C.ar   68  TYR68       0.0417
     36  CE2       17.3370   20.9670   21.1550 C.ar   68  TYR68       0.0417
     37  CZ        17.6120   20.5010   22.4390 C.ar   68  TYR68       0.1957
     38  OH        18.9420   20.6380   22.8940 O.3    68  TYR68      -0.2866
     39  N         15.7390   22.1820   16.0600 N.3   114  ASN114     -0.1240
     40  CA        14.9330   23.1080   16.8830 C.3   114  ASN114      0.1653
     41  C         13.4450   23.0940   16.5420 C.2   114  ASN114      0.2266
     42  O         12.6240   23.5010   17.3570 O.2   114  ASN114     -0.2867
     43  CB        15.4740   24.5550   16.7570 C.3   114  ASN114      0.1155
     44  CG        16.8640   24.7150   17.3850 C.2   114  ASN114      0.2627
     45  OD1       17.8200   25.3350   16.7940 O.2   114  ASN114     -0.2716
     46  ND2       17.0230   24.1020   18.5550 N.am  114  ASN114     -0.0877
     47  N         21.9700   29.5140   14.8160 N.3   158  GLU158     -0.1245
     48  CA        20.9130   28.4800   14.8770 C.3   158  GLU158      0.1567
     49  C         19.6120   28.9710   14.2910 C.2   158  GLU158      0.2260
     50  O         19.1330   30.0710   14.6180 O.2   158  GLU158     -0.2867
     51  CB        20.6240   28.1140   16.3040 C.3   158  GLU158      0.0388
     52  CG        21.8600   27.7310   17.1020 C.3   158  GLU158      0.1160
     53  CD        21.4580   26.8750   18.3170 C.2   158  GLU158      0.3649
     54  OE1       20.3730   26.2330   18.2990 O.co2 158  GLU158     -0.2457
     55  OE2       22.2280   26.8410   19.2880 O.co2 158  GLU158     -0.2457
     56  N         16.8820   40.5580   19.0300 N.3   227  ASN227     -0.1225
     57  CA        17.4090   39.4140   19.7740 C.3   227  ASN227      0.1785
     58  C         16.9460   38.1400   19.0750 C.2   227  ASN227      0.2597
     59  O         16.3000   38.2020   17.9920 O.2   227  ASN227     -0.2718
     60  CB        16.9880   39.5080   21.2380 C.3   227  ASN227      0.1169
     61  CG        17.9840   38.8210   22.2100 C.2   227  ASN227      0.2627
     62  OD1       18.6960   37.8590   21.8520 O.2   227  ASN227     -0.2716
     63  ND2       18.0220   39.3200   23.4490 N.am  227  ASN227     -0.0877
     64  N         17.3500   36.9910   19.6120 N.am  228  TYR228     -0.1976
     65  CA        17.0050   35.7120   19.0230 C.3   228  TYR228      0.1639
     66  C         15.5060   35.6460   18.6120 C.2   228  TYR228      0.2290
     67  O         14.6230   35.8590   19.4560 O.2   228  TYR228     -0.2864
     68  CB        17.2210   34.6050   20.0380 C.3   228  TYR228      0.0560
     69  CG        18.6490   34.3290   20.4930 C.ar  228  TYR228     -0.0198
     70  CD1       19.7870   34.9870   19.9210 C.ar  228  TYR228     -0.0009
     71  CD2       18.8520   33.3710   21.4620 C.ar  228  TYR228     -0.0009
     72  CE1       21.1150   34.7070   20.3490 C.ar  228  TYR228      0.0417
     73  CE2       20.1630   33.0320   21.8620 C.ar  228  TYR228      0.0417
     74  CZ        21.2730   33.7120   21.3240 C.ar  228  TYR228      0.1957
     75  OH        22.4830   33.2870   21.8000 O.3   228  TYR228     -0.2866
     76  N         12.8080   37.1320   22.3970 N.3   244  CYS244     -0.1221
     77  CA        12.6940   37.1210   23.8630 C.3   244  CYS244      0.1808
     78  C         12.6450   38.5490   24.4570 C.2   244  CYS244      0.2601
     79  O         13.3040   38.8240   25.4860 O.2   244  CYS244     -0.2717
     80  CB        13.8700   36.3160   24.4770 C.3   244  CYS244      0.0970
     81  SG        15.4560   36.8690   23.7600 S.3   244  CYS244     -0.0800
     82  N         11.8400   39.4190   23.8350 N.am  245  GLU245     -0.1979
     83  CA        11.7540   40.8330   24.2130 C.3   245  GLU245      0.1602
     84  C         10.3090   41.1580   24.5550 C.2   245  GLU245      0.2287
     85  O          9.9330   42.3190   24.5160 O.2   245  GLU245     -0.2864
     86  CB        12.2400   41.7540   23.0840 C.3   245  GLU245      0.0415
     87  CG        13.5310   41.2110   22.4750 C.3   245  GLU245      0.1163
     88  CD        14.0710   42.0510   21.3180 C.2   245  GLU245      0.3649
     89  OE1       13.4300   42.1700   20.2440 O.co2 245  GLU245     -0.2457
     90  OE2       15.1710   42.6110   21.5220 O.co2 245  GLU245     -0.2457
     91  N         11.4960   36.4820   28.9460 N.3   282  ASP282     -0.1225
     92  CA        12.8390   36.9670   28.6170 C.3   282  ASP282      0.1805
     93  C         13.7200   35.8270   28.2310 C.2   282  ASP282      0.2598
     94  O         14.8500   36.0600   27.7850 O.2   282  ASP282     -0.2718
     95  CB        13.5550   37.5940   29.8670 C.3   282  ASP282      0.1424
     96  CG        12.6770   38.5260   30.6110 C.2   282  ASP282      0.3668
     97  OD1       12.1360   39.4080   29.9630 O.co2 282  ASP282     -0.2456
     98  OD2       12.4620   38.3360   31.8260 O.co2 282  ASP282     -0.2456
     99  N         13.2980   34.6130   28.5140 N.am  283  ILE283     -0.1966
    100  CA        14.1370   33.4290   28.1650 C.3   283  ILE283      0.1727
    101  C         13.7730   33.1130   26.7290 C.2   283  ILE283      0.2616
    102  O         12.6860   33.4880   26.2920 O.2   283  ILE283     -0.2715
    103  CB        13.9220   32.2250   29.1130 C.3   283  ILE283      0.0290
    104  CG1       12.4160   31.8350   29.2250 C.3   283  ILE283      0.0022
    105  CG2       14.5760   32.5250   30.5310 C.3   283  ILE283      0.0023
    106  CD1       12.2070   30.5710   30.0780 C.3   283  ILE283      0.0001
    107  N         14.6820   32.4900   25.9730 N.am  284  TRP284     -0.1960
    108  CA        14.3500   32.1230   24.5970 C.3   284  TRP284      0.1771
    109  C         13.8990   30.6360   24.4720 C.2   284  TRP284      0.2619
    110  O         14.0950   29.8160   25.4150 O.2   284  TRP284     -0.2715
    111  CB        15.5260   32.4580   23.6640 C.3   284  TRP284      0.0590
    112  CG        16.8190   31.6650   23.8760 C.ar  284  TRP284      0.0006
    113  CD1       17.8870   32.0210   24.6700 C.ar  284  TRP284      0.0946
    114  CD2       17.1930   30.4190   23.2500 C.ar  284  TRP284      0.0152
    115  NE1       18.8620   31.0570   24.6240 N.ar  284  TRP284     -0.2442
    116  CE2       18.4850   30.0770   23.7410 C.ar  284  TRP284      0.0810
    117  CE3       16.5750   29.5690   22.3310 C.ar  284  TRP284      0.0012
    118  CZ2       19.1610   28.9090   23.3380 C.ar  284  TRP284      0.0191
    119  CZ3       17.2510   28.3820   21.9240 C.ar  284  TRP284      0.0001
    120  CH2       18.5250   28.0790   22.4320 C.ar  284  TRP284      0.0015
    121  N         13.2900   30.3250   23.3300 N.am  285  TYR285     -0.1974
    122  CA        12.6450   28.9960   23.0300 C.3   285  TYR285      0.1639
    123  C         11.2960   28.9060   23.7630 C.2   285  TYR285      0.2290
    124  O         11.1020   28.0750   24.6620 O.2   285  TYR285     -0.2864
    125  CB        13.5700   27.7850   23.3290 C.3   285  TYR285      0.0560
    126  CG        13.2210   26.5940   22.4790 C.ar  285  TYR285     -0.0198
    127  CD1       13.7330   26.4840   21.1670 C.ar  285  TYR285     -0.0009
    128  CD2       12.3230   25.5920   22.9480 C.ar  285  TYR285     -0.0009
    129  CE1       13.4180   25.3930   20.3290 C.ar  285  TYR285      0.0417
    130  CE2       12.0070   24.4390   22.1080 C.ar  285  TYR285      0.0417
    131  CZ        12.5420   24.3870   20.7920 C.ar  285  TYR285      0.1957
    132  OH        12.2560   23.3420   19.9370 O.3   285  TYR285     -0.2866
    133  N          7.2600   32.7770   31.3110 N.3   302  GLN302     -0.1231
    134  CA         8.2660   32.0400   32.0640 C.3   302  GLN302      0.1698
    135  C          7.8480   31.8480   33.5280 C.2   302  GLN302      0.2592
    136  O          8.5800   31.1930   34.2950 O.2   302  GLN302     -0.2718
    137  CB         9.6650   32.7180   31.9590 C.3   302  GLN302      0.0381
    138  CG         9.9190   33.8650   32.9360 C.3   302  GLN302      0.0905
    139  CD        10.8030   34.9590   32.2940 C.2   302  GLN302      0.2608
    140  OE1       11.1220   34.8660   31.1450 O.2   302  GLN302     -0.2717
    141  NE2       11.1270   36.0140   33.0380 N.am  302  GLN302     -0.0878
    142  N          6.6960   32.4030   33.9120 N.am  303  VAL303     -0.1980
    143  CA         6.1370   32.2190   35.2580 C.3   303  VAL303      0.1595
    144  C          4.7280   31.5890   35.2320 C.2   303  VAL303      0.2287
    145  O          3.9830   31.6310   36.2190 O.2   303  VAL303     -0.2864
    146  CB         6.2060   33.5240   36.1580 C.3   303  VAL303      0.0276
    147  CG1        7.6990   33.9690   36.3840 C.3   303  VAL303      0.0022
    148  CG2        5.3940   34.6740   35.5530 C.3   303  VAL303      0.0022
    149  N          7.8140   27.9500   33.8320 N.3   332  ALA332     -0.1245
    150  CA         7.8430   28.4250   32.4610 C.3   332  ALA332      0.1562
    151  C          7.0060   27.5730   31.5010 C.2   332  ALA332      0.2260
    152  O          7.1750   26.3460   31.4230 O.2   332  ALA332     -0.2867
    153  CB         9.2700   28.5140   31.9990 C.3   332  ALA332      0.0290
    154  N          6.4320   26.3550   27.7260 N.3   334  ARG334     -0.1245
    155  CA         7.2790   26.3520   26.5200 C.3   334  ARG334      0.1563
    156  C          6.4590   26.4140   25.2570 C.2   334  ARG334      0.2260
    157  O          6.9130   26.9780   24.2430 O.2   334  ARG334     -0.2867
    158  CB         8.1470   25.0990   26.4350 C.3   334  ARG334      0.0307
    159  CG         9.1710   25.0230   27.5010 C.3   334  ARG334      0.0489
    160  CD        10.3080   25.9950   27.0940 C.3   334  ARG334      0.2205
    161  NE        11.2770   26.1520   28.1860 N.pl3 334  ARG334     -0.0865
    162  CZ        12.3190   26.9840   28.1550 C.cat 334  ARG334      0.5346
    163  NH1       12.5590   27.7600   27.0710 N.pl3 334  ARG334      0.1354
    164  NH2       13.1510   27.0000   29.1920 N.pl3 334  ARG334      0.1354
    165  N          8.3790   23.8030   32.0630 N.3   350  ASP350     -0.1239
    166  CA         9.7630   23.4260   32.3710 C.3   350  ASP350      0.1674
    167  C          9.8810   22.4040   33.5110 C.2   350  ASP350      0.2266
    168  O         10.8920   21.7610   33.6220 O.2   350  ASP350     -0.2867
    169  CB        10.6240   24.6530   32.7170 C.3   350  ASP350      0.1410
    170  CG        11.2070   25.2760   31.5110 C.2   350  ASP350      0.3668
    171  OD1       10.7590   24.9580   30.3970 O.co2 350  ASP350     -0.2456
    172  OD2       12.1500   26.0460   31.6380 O.co2 350  ASP350     -0.2456
@<TRIPOS>BOND
     1    49    50    2
     2    49    48    1
     3    47    48    1
     4    48    51    1
     5    39    40    1
     6    51    52    1
     7    41    40    1
     8    41    42    2
     9    43    40    1
    10    43    44    1
    11    45    44    2
    12    52    53    1
    13    44    46   am
    14    59    58    2
    15    54    53   ar
    16    53    55   ar
    17    66    65    1
    18    66    67    2
    19    65    64    1
    20    65    68    1
    21    56    57    1
    22    58    64   am
    23    58    57    1
    24    57    60    1
    25    70    72   ar
    26    70    69   ar
    27   132   131    1
    28    68    69    1
    29    89    88   ar
    30   129   131   ar
    31   129   127   ar
    32    72    74   ar
    33    69    71   ar
    34    34    36   ar
    35    34    32   ar
    36    31    32    1
    37    31    28    1
    38   131   130   ar
    39    29    30    2
    40    29    28    1
    41    36    37   ar
    42   127   126   ar
    43    60    61    1
    44    88    90   ar
    45    88    87    1
    46    74    75    1
    47    74    73   ar
    48    32    33   ar
    49    27    28    1
    50    71    73   ar
    51    62    61    2
    52   119   117   ar
    53   119   120   ar
    54   130   128   ar
    55    61    63   am
    56    22    21    2
    57   117   114   ar
    58    76    77    1
    59   120   118   ar
    60    37    38    1
    61    37    35   ar
    62    87    86    1
    63   126   128   ar
    64   126   125    1
    65    33    35   ar
    66   122   125    1
    67   122   121    1
    68   122   123    1
    69    86    83    1
    70    21    20    1
    71   114   116   ar
    72   114   112   ar
    73   121   109   am
    74   118   116   ar
    75    11    10    2
    76    19    20    1
    77   111   112    1
    78   111   108    1
    79   116   115   ar
    80    81    80    1
    81   123   124    2
    82    82    83    1
    83    82    78   am
    84    77    78    1
    85    77    80    1
    86   112   113   ar
    87    10     9    1
    88    83    84    1
    89   157   156    2
    90    20    23    1
    91    78    79    2
    92   109   108    1
    93   109   110    2
    94    12     9    1
    95    12    13    1
    96    85    84    2
    97   108   107    1
    98   115   113   ar
    99    23    24    1
   100     9     8    1
   101   156   155    1
   102    13    15   ar
   103    13    14   ar
   104    15    17   ar
   105    24    25    2
   106    24    26   am
   107   107   101   am
   108    14    16   ar
   109   102   101    2
   110   158   155    1
   111   158   159    1
   112    17    18   ar
   113   155   154    1
   114   101   100    1
   115    16    18   ar
   116   163   162    1
   117   160   159    1
   118   160   161    1
   119    94    93    2
   120   162   161    2
   121   162   164    1
   122   100    99    1
   123   100   103    1
   124    93    99   am
   125    93    92    1
   126    92    91    1
   127    92    95    1
   128     4     3    2
   129   103   104    1
   130   103   105    1
   131   104   106    1
   132     3     2    1
   133    95    96    1
   134     5     2    1
   135     5     6    1
   136    97    96   ar
   137   171   170   ar
   138     2     1    1
   139    96    98   ar
   140     6     7    1
   141   140   139    2
   142     1     7    1
   143   133   134    1
   144   152   151    2
   145   151   150    1
   146   170   172   ar
   147   170   169    1
   148   137   134    1
   149   137   138    1
   150   153   150    1
   151   165   166    1
   152   134   135    1
   153   139   138    1
   154   139   141   am
   155   166   169    1
   156   166   167    1
   157   150   149    1
   158   167   168    2
   159   135   142   am
   160   135   136    2
   161   142   143    1
   162   144   143    1
   163   144   145    2
   164   143   146    1
   165   148   146    1
   166   146   147    1
