@<TRIPOS>MOLECULE
tmp/3jq3A00.pdb
 140 132 0 0 0
SMALL
GASTEIGER

@<TRIPOS>ATOM
      1  N         22.8520   24.1950   11.1270 N.3   113  SER113     -0.1202
      2  CA        23.2330   22.9930   11.8590 C.3   113  SER113      0.2020
      3  C         22.5350   21.7520   11.3130 C.2   113  SER113      0.2619
      4  O         21.5100   21.8500   10.6400 O.2   113  SER113     -0.2717
      5  CB        22.9270   23.1530   13.3510 C.3   113  SER113      0.2103
      6  OG        21.5470   23.3930   13.5620 O.3   113  SER113     -0.2182
      7  N         23.0970   20.5860   11.6080 N.am  114  CYS114     -0.1955
      8  CA        22.5240   19.3280   11.1490 C.3   114  CYS114      0.1843
      9  C         22.3770   18.3400   12.2940 C.2   114  CYS114      0.2625
     10  O         23.2230   18.2720   13.1830 O.2   114  CYS114     -0.2714
     11  CB        23.3780   18.7240   10.0350 C.3   114  CYS114      0.0997
     12  SG        23.5230   19.7750    8.5800 S.3   114  CYS114     -0.0797
     13  N         21.2980   17.5680   12.2610 N.am  115  ARG115     -0.1977
     14  CA        20.9800   16.6510   13.3450 C.3   115  ARG115      0.1597
     15  C         20.3190   15.3900   12.7990 C.2   115  ARG115      0.2287
     16  O         19.4520   15.4600   11.9310 O.2   115  ARG115     -0.2864
     17  CB        20.0570   17.3470   14.3490 C.3   115  ARG115      0.0334
     18  CG        19.6800   16.5180   15.5630 C.3   115  ARG115      0.0492
     19  CD        18.9230   17.3730   16.5740 C.3   115  ARG115      0.2205
     20  NE        18.4970   16.6110   17.7440 N.pl3 115  ARG115     -0.0865
     21  CZ        17.3420   15.9600   17.8310 C.cat 115  ARG115      0.5346
     22  NH1       17.0370   15.2930   18.9370 N.pl3 115  ARG115      0.1354
     23  NH2       16.4910   15.9720   16.8120 N.pl3 115  ARG115      0.1354
     24  N         18.7120   11.6210   14.3250 N.3   117  ARG117     -0.1245
     25  CA        18.4040   10.8100   15.4970 C.3   117  ARG117      0.1563
     26  C         17.6520    9.5280   15.1670 C.2   117  ARG117      0.2260
     27  O         16.9430    9.4420   14.1650 O.2   117  ARG117     -0.2867
     28  CB        17.6300   11.6270   16.5410 C.3   117  ARG117      0.0307
     29  CG        16.2680   12.1390   16.0870 C.3   117  ARG117      0.0489
     30  CD        15.1700   11.0890   16.2530 C.3   117  ARG117      0.2205
     31  NE        13.8330   11.6710   16.1520 N.pl3 117  ARG117     -0.0865
     32  CZ        12.7260   10.9710   15.9230 C.cat 117  ARG117      0.5346
     33  NH1       11.5500   11.5860   15.8470 N.pl3 117  ARG117      0.1354
     34  NH2       12.7960    9.6560   15.7630 N.pl3 117  ARG117      0.1354
     35  N         21.6680   21.8720   26.4640 N.3   176  HIS176     -0.1241
     36  CA        20.3820   21.3660   26.0040 C.3   176  HIS176      0.1621
     37  C         20.4620   19.8550   25.7960 C.2   176  HIS176      0.2264
     38  O         19.9030   19.3180   24.8410 O.2   176  HIS176     -0.2867
     39  CB        19.9660   22.0650   24.7080 C.3   176  HIS176      0.0745
     40  CG        18.4980   21.9910   24.4260 C.ar  176  HIS176      0.0817
     41  ND1       17.5770   22.7940   25.0630 N.ar  176  HIS176     -0.2268
     42  CD2       17.7920   21.2150   23.5700 C.ar  176  HIS176      0.1154
     43  CE1       16.3660   22.5130   24.6150 C.ar  176  HIS176      0.1986
     44  NE2       16.4690   21.5590   23.7080 N.ar  176  HIS176     -0.2212
     45  N         18.3080    6.3940   22.9480 N.3   221  ARG221     -0.1245
     46  CA        18.0700    7.4500   21.9740 C.3   221  ARG221      0.1563
     47  C         19.4190    7.9500   21.4760 C.2   221  ARG221      0.2260
     48  O         20.2510    8.3930   22.2640 O.2   221  ARG221     -0.2867
     49  CB        17.2790    8.6010   22.5950 C.3   221  ARG221      0.0307
     50  CG        17.1230    9.8100   21.6760 C.3   221  ARG221      0.0489
     51  CD        15.8470    9.7460   20.8450 C.3   221  ARG221      0.2205
     52  NE        14.7440   10.4640   21.4810 N.pl3 221  ARG221     -0.0865
     53  CZ        14.4040   11.7200   21.1990 C.cat 221  ARG221      0.5346
     54  NH1       15.0790   12.4040   20.2830 N.pl3 221  ARG221      0.1354
     55  NH2       13.3870   12.2940   21.8310 N.pl3 221  ARG221      0.1354
     56  N         25.0870   15.2370   15.7420 N.3   225  MET225     -0.1245
     57  CA        24.8640   16.6380   15.3970 C.3   225  MET225      0.1570
     58  C         26.1510   17.4280   15.1670 C.2   225  MET225      0.2261
     59  O         27.1860   17.1480   15.7700 O.2   225  MET225     -0.2867
     60  CB        24.0370   17.3170   16.4880 C.3   225  MET225      0.0387
     61  CG        24.7360   17.3360   17.8320 C.3   225  MET225      0.0595
     62  SD        23.6100   17.2960   19.2370 S.3   225  MET225     -0.1393
     63  CE        24.7100   16.6460   20.4910 C.3   225  MET225      0.0692
     64  N         15.0390   10.5840   12.2590 N.3   277  ARG277     -0.1245
     65  CA        14.6750   11.9450   11.8920 C.3   277  ARG277      0.1563
     66  C         15.9320   12.7610   11.6270 C.2   277  ARG277      0.2260
     67  O         16.6260   13.1750   12.5560 O.2   277  ARG277     -0.2867
     68  CB        13.8350   12.6160   12.9780 C.3   277  ARG277      0.0307
     69  CG        13.1380   13.8900   12.5050 C.3   277  ARG277      0.0489
     70  CD        12.3220   14.5430   13.6190 C.3   277  ARG277      0.2205
     71  NE        13.1000   15.5210   14.3720 N.pl3 277  ARG277     -0.0865
     72  CZ        13.1130   16.8230   14.1070 C.cat 277  ARG277      0.5346
     73  NH1       12.3860   17.3060   13.1120 N.pl3 277  ARG277      0.1354
     74  NH2       13.8520   17.6440   14.8380 N.pl3 277  ARG277      0.1354
     75  N         17.4240   16.1990   10.3620 N.3   279  SER279     -0.1202
     76  CA        16.9500   17.5690   10.2650 C.3   279  SER279      0.2020
     77  C         18.0880   18.5630   10.0920 C.2   279  SER279      0.2619
     78  O         19.2430   18.2780   10.4120 O.2   279  SER279     -0.2717
     79  CB        16.1530   17.9380   11.5120 C.3   279  SER279      0.2103
     80  OG        17.0150   18.0650   12.6280 O.3   279  SER279     -0.2182
     81  N         17.7390   19.7380    9.5840 N.am  280  VAL280     -0.1965
     82  CA        18.6570   20.8590    9.5250 C.3   280  VAL280      0.1727
     83  C         17.9640   22.0950   10.0810 C.2   280  VAL280      0.2616
     84  O         16.7350   22.1870   10.0750 O.2   280  VAL280     -0.2715
     85  CB        19.0850   21.1680    8.0800 C.3   280  VAL280      0.0290
     86  CG1       19.7410   19.9530    7.4420 C.3   280  VAL280      0.0023
     87  CG2       17.8840   21.6310    7.2650 C.3   280  VAL280      0.0023
     88  N         18.7560   23.0350   10.5810 N.am  281  HIS281     -0.1973
     89  CA        18.2600   24.3710   10.8490 C.3   281  HIS281      0.1656
     90  C         18.6120   25.2060    9.6310 C.2   281  HIS281      0.2291
     91  O         19.7870   25.4190    9.3390 O.2   281  HIS281     -0.2864
     92  CB        18.8960   24.9480   12.1120 C.3   281  HIS281      0.0771
     93  CG        18.2580   24.4700   13.3790 C.ar  281  HIS281      0.0820
     94  ND1       18.3590   25.1550   14.5710 N.ar  281  HIS281     -0.2267
     95  CD2       17.4920   23.3830   13.6350 C.ar  281  HIS281      0.1154
     96  CE1       17.6960   24.5040   15.5090 C.ar  281  HIS281      0.1986
     97  NE2       17.1600   23.4240   14.9670 N.ar  281  HIS281     -0.2212
     98  N          8.9760   22.7330   11.3080 N.3   305  ARG305     -0.1245
     99  CA         8.6070   23.1120   12.6680 C.3   305  ARG305      0.1563
    100  C          9.5230   24.2030   13.2180 C.2   305  ARG305      0.2260
    101  O         10.4720   24.6220   12.5550 O.2   305  ARG305     -0.2867
    102  CB         8.5880   21.8910   13.5970 C.3   305  ARG305      0.0307
    103  CG         9.9550   21.3170   13.9310 C.3   305  ARG305      0.0489
    104  CD         9.8370   19.9860   14.6710 C.3   305  ARG305      0.2205
    105  NE         9.4600   18.8900   13.7800 N.pl3 305  ARG305     -0.0865
    106  CZ         9.3810   17.6130   14.1480 C.cat 305  ARG305      0.5346
    107  NH1        9.6510   17.2590   15.3990 N.pl3 305  ARG305      0.1354
    108  NH2        9.0310   16.6870   13.2650 N.pl3 305  ARG305      0.1354
    109  N         12.1960   26.3750   15.7540 N.3   307  THR307     -0.1203
    110  CA        13.6090   26.1780   16.0560 C.3   307  THR307      0.1994
    111  C         13.8100   25.4290   17.3710 C.2   307  THR307      0.2618
    112  O         14.8300   24.7720   17.5720 O.2   307  THR307     -0.2717
    113  CB        14.3500   27.5240   16.1390 C.3   307  THR307      0.1784
    114  OG1       13.8840   28.3980   15.1030 O.3   307  THR307     -0.2211
    115  CG2       15.8470   27.3170   15.9910 C.3   307  THR307      0.0376
    116  N         12.8340   25.5350   18.2650 N.am  308  GLY308     -0.1942
    117  CA        12.9270   24.9040   19.5690 C.3   308  GLY308      0.2014
    118  C         12.3170   23.5180   19.5920 C.2   308  GLY308      0.2639
    119  O         12.1000   22.9410   20.6580 O.2   308  GLY308     -0.2714
    120  N         12.0360   22.9820   18.4090 N.am  309  GLY309     -0.1939
    121  CA        11.4860   21.6450   18.2940 C.3   309  GLY309      0.2014
    122  C         10.0090   21.6290   17.9520 C.2   309  GLY309      0.2638
    123  O          9.4660   22.6040   17.4320 O.2   309  GLY309     -0.2714
    124  N          9.3580   20.5090   18.2490 N.am  310  GLU310     -0.1977
    125  CA         7.9430   20.3330   17.9480 C.3   310  GLU310      0.1602
    126  C          7.0740   21.2890   18.7610 C.2   310  GLU310      0.2287
    127  O          7.2380   21.4140   19.9750 O.2   310  GLU310     -0.2864
    128  CB         7.5250   18.8830   18.2050 C.3   310  GLU310      0.0415
    129  CG         6.0820   18.5720   17.8460 C.3   310  GLU310      0.1163
    130  CD         5.7280   17.1140   18.0740 C.2   310  GLU310      0.3649
    131  OE1        6.5710   16.2430   17.7690 O.co2 310  GLU310     -0.2457
    132  OE2        4.6080   16.8390   18.5570 O.co2 310  GLU310     -0.2457
    133  N         13.2030   24.1690   11.3350 N.3   320  ASP320     -0.1239
    134  CA        13.6640   22.8070   11.5370 C.3   320  ASP320      0.1674
    135  C         13.0090   21.9320   10.4730 C.2   320  ASP320      0.2266
    136  O         11.8460   21.5540   10.6040 O.2   320  ASP320     -0.2867
    137  CB        13.2730   22.3360   12.9390 C.3   320  ASP320      0.1410
    138  CG        13.7400   20.9240   13.2440 C.2   320  ASP320      0.3668
    139  OD1       13.9770   20.1440   12.3000 O.co2 320  ASP320     -0.2456
    140  OD2       13.8610   20.5920   14.4410 O.co2 320  ASP320     -0.2456
@<TRIPOS>BOND
     1    87    85    1
     2    86    85    1
     3    85    82    1
     4    12    11    1
     5    91    90    2
     6    82    81    1
     7    82    83    1
     8    81    77   am
     9    90    89    1
    10    11     8    1
    11    84    83    2
    12    83    88   am
    13    77    76    1
    14    77    78    2
    15    76    75    1
    16    76    79    1
    17   135   136    2
    18   135   134    1
    19    88    89    1
    20     4     3    2
    21    89    92    1
    22     1     2    1
    23     8     7    1
    24     8     9    1
    25    98    99    1
    26     3     7   am
    27     3     2    1
    28   133   134    1
    29    79    80    1
    30   134   137    1
    31    66    65    1
    32    66    67    2
    33     2     5    1
    34    65    64    1
    35    65    68    1
    36    16    15    2
    37    92    93    1
    38    13     9   am
    39    13    14    1
    40     9    10    2
    41   139   138   ar
    42    69    68    1
    43    69    70    1
    44   101   100    2
    45    99   100    1
    46    99   102    1
    47    15    14    1
    48   137   138    1
    49    73    72    1
    50   138   140   ar
    51   108   106    1
    52    14    17    1
    53     5     6    1
    54    93    95   ar
    55    93    94   ar
    56   102   103    1
    57    70    71    1
    58    95    97   ar
    59   105   106    2
    60   105   104    1
    61   103   104    1
    62    72    71    2
    63    72    74    1
    64   106   107    1
    65    27    26    2
    66    24    25    1
    67    17    18    1
    68    94    96   ar
    69    97    96   ar
    70   114   113    1
    71    58    57    1
    72    58    59    2
    73    26    25    1
    74    57    56    1
    75    57    60    1
    76    25    28    1
    77    18    19    1
    78   109   110    1
    79    34    32    1
    80    33    32    1
    81    32    31    2
    82   115   113    1
    83   110   113    1
    84   110   111    1
    85    29    30    1
    86    29    28    1
    87    31    30    1
    88    60    61    1
    89    19    20    1
    90    23    21    1
    91   111   112    2
    92   111   116   am
    93   123   122    2
    94    20    21    2
    95   131   130   ar
    96    21    22    1
    97    61    62    1
    98   129   130    1
    99   129   128    1
   100   125   128    1
   101   125   124    1
   102   125   126    1
   103   122   124   am
   104   122   121    1
   105   130   132   ar
   106   116   117    1
   107   121   120    1
   108   120   118   am
   109   126   127    2
   110    62    63    1
   111   117   118    1
   112   118   119    2
   113    54    53    1
   114    51    52    1
   115    51    50    1
   116    53    52    2
   117    53    55    1
   118    47    46    1
   119    47    48    2
   120    50    49    1
   121    46    49    1
   122    46    45    1
   123    42    44   ar
   124    42    40   ar
   125    44    43   ar
   126    40    39    1
   127    40    41   ar
   128    43    41   ar
   129    39    36    1
   130    38    37    2
   131    37    36    1
   132    36    35    1
