@<TRIPOS>MOLECULE
tmp/3jq5A00.pdb
 201 201 0 0 0
SMALL
GASTEIGER

@<TRIPOS>ATOM
      1  N          8.2530   18.9460    9.5530 N.3     2  LEU2       -0.1245
      2  CA         7.9610   17.9030    8.5630 C.3     2  LEU2        0.1561
      3  C          6.5020   17.4470    8.5430 C.2     2  LEU2        0.2260
      4  O          6.0010   17.0330    7.4970 O.2     2  LEU2       -0.2867
      5  CB         8.9040   16.7070    8.7330 C.3     2  LEU2        0.0270
      6  CG        10.0650   16.5690    7.7380 C.3     2  LEU2        0.0019
      7  CD1       10.9280   17.8260    7.6440 C.3     2  LEU2        0.0001
      8  CD2       10.9190   15.3670    8.0980 C.3     2  LEU2        0.0001
      9  N          4.9210   20.1810    6.5940 N.3     5  PHE5       -0.1227
     10  CA         5.2790   20.0430    5.1680 C.3     5  PHE5        0.1736
     11  C          4.4490   18.9350    4.5040 C.2     5  PHE5        0.2595
     12  O          4.0000   19.0860    3.3670 O.2     5  PHE5       -0.2718
     13  CB         6.7860   19.7760    4.9960 C.3     5  PHE5        0.0547
     14  CG         7.2470   19.6760    3.5490 C.ar    5  PHE5       -0.0202
     15  CD1        6.8000   20.5800    2.5860 C.ar    5  PHE5       -0.0042
     16  CD2        8.1740   18.6960    3.1710 C.ar    5  PHE5       -0.0042
     17  CE1        7.2330   20.4870    1.2580 C.ar    5  PHE5       -0.0003
     18  CE2        8.6200   18.5960    1.8590 C.ar    5  PHE5       -0.0003
     19  CZ         8.1500   19.4970    0.8960 C.ar    5  PHE5       -0.0000
     20  N          4.2520   17.8310    5.2240 N.am    6  LYS6       -0.1980
     21  CA         3.4350   16.7230    4.7400 C.3     6  LYS6        0.1596
     22  C          1.9830   17.1610    4.4750 C.2     6  LYS6        0.2287
     23  O          1.3860   16.7730    3.4640 O.2     6  LYS6       -0.2864
     24  CB         3.4910   15.5710    5.7380 C.3     6  LYS6        0.0298
     25  CG         2.7970   14.3120    5.2840 C.3     6  LYS6        0.0038
     26  CD         1.6180   13.9730    6.1830 C.3     6  LYS6        0.0206
     27  CE         2.0800   13.5030    7.5430 C.3     6  LYS6        0.1093
     28  NZ         0.9040   13.1320    8.3800 N.3     6  LYS6       -0.1314
     29  N          1.7130   19.1320    1.2130 N.3     9  ILE9       -0.1231
     30  CA         1.6880   18.2510    0.0420 C.3     9  ILE9        0.1692
     31  C          0.3030   17.6210   -0.1330 C.2     9  ILE9        0.2591
     32  O         -0.1750   17.4680   -1.2590 O.2     9  ILE9       -0.2718
     33  CB         2.7860   17.1530    0.1240 C.3     9  ILE9        0.0266
     34  CG1        4.1700   17.7900    0.2890 C.3     9  ILE9        0.0019
     35  CG2        2.7710   16.2680   -1.1220 C.3     9  ILE9        0.0020
     36  CD1        5.2230   16.8590    0.8630 C.3     9  ILE9        0.0001
     37  N         -0.3250   17.2780    1.0150 N.am   10  GLN10      -0.1979
     38  CA        -1.7000   16.7580    0.9860 C.3    10  GLN10       0.1601
     39  C         -2.7110   17.7970    0.4720 C.2    10  GLN10       0.2287
     40  O         -3.7090   17.4370   -0.1590 O.2    10  GLN10      -0.2864
     41  CB        -2.1050   16.2310    2.3660 C.3    10  GLN10       0.0394
     42  CG        -1.3520   14.9720    2.7950 C.3    10  GLN10       0.0908
     43  CD        -1.7420   14.4590    4.1810 C.2    10  GLN10       0.2608
     44  OE1       -1.5890   13.2730    4.4750 O.2    10  GLN10      -0.2717
     45  NE2       -2.2310   15.3480    5.0390 N.am   10  GLN10      -0.0878
     46  N          1.7020   11.3190    0.3790 N.3    18  TRP18      -0.1227
     47  CA         2.9350   12.0600    0.6120 C.3    18  TRP18       0.1737
     48  C          4.1830   11.1740    0.5410 C.2    18  TRP18       0.2595
     49  O          5.2740   11.6600    0.2270 O.2    18  TRP18      -0.2718
     50  CB         2.8710   12.7390    1.9790 C.3    18  TRP18       0.0564
     51  CG         2.7370   11.7740    3.1230 C.ar   18  TRP18       0.0003
     52  CD1        1.5740   11.2980    3.6600 C.ar   18  TRP18       0.0946
     53  CD2        3.8000   11.1780    3.8800 C.ar   18  TRP18       0.0152
     54  NE1        1.8470   10.4380    4.6960 N.ar   18  TRP18      -0.2442
     55  CE2        3.2060   10.3450    4.8520 C.ar   18  TRP18       0.0810
     56  CE3        5.1980   11.2580    3.8220 C.ar   18  TRP18       0.0012
     57  CZ2        3.9590    9.6040    5.7660 C.ar   18  TRP18       0.0191
     58  CZ3        5.9480   10.5220    4.7300 C.ar   18  TRP18       0.0001
     59  CH2        5.3260    9.7030    5.6890 C.ar   18  TRP18       0.0015
     60  N          4.0120    9.8850    0.8530 N.am   19  ALA19      -0.1980
     61  CA         5.1080    8.9160    0.8640 C.3    19  ALA19       0.1597
     62  C          5.7430    8.7480   -0.5150 C.2    19  ALA19       0.2287
     63  O          6.9020    8.3480   -0.6230 O.2    19  ALA19      -0.2864
     64  CB         4.6240    7.5730    1.3920 C.3    19  ALA19       0.0319
     65  N          6.6370   11.0460   -2.3610 N.3    21  PHE21      -0.1227
     66  CA         7.6370   12.1030   -2.4880 C.3    21  PHE21       0.1736
     67  C          8.7850   11.9220   -1.5040 C.2    21  PHE21       0.2595
     68  O          9.7710   12.6570   -1.5640 O.2    21  PHE21      -0.2718
     69  CB         6.9850   13.4820   -2.2820 C.3    21  PHE21       0.0547
     70  CG         5.8670   13.7830   -3.2500 C.ar   21  PHE21      -0.0202
     71  CD1        6.1440   14.3030   -4.5140 C.ar   21  PHE21      -0.0042
     72  CD2        4.5370   13.5500   -2.8980 C.ar   21  PHE21      -0.0042
     73  CE1        5.1170   14.5820   -5.4210 C.ar   21  PHE21      -0.0003
     74  CE2        3.5010   13.8270   -3.7960 C.ar   21  PHE21      -0.0003
     75  CZ         3.7970   14.3440   -5.0660 C.ar   21  PHE21      -0.0000
     76  N          8.6570   10.9380   -0.6100 N.am   22  ALA22      -0.1966
     77  CA         9.5920   10.7580    0.5010 C.3    22  ALA22       0.1728
     78  C         10.8670   10.0220    0.1110 C.2    22  ALA22       0.2616
     79  O         11.8370   10.0360    0.8570 O.2    22  ALA22      -0.2715
     80  CB         8.9150   10.0430    1.6600 C.3    22  ALA22       0.0334
     81  N         10.8450    9.3680   -1.0490 N.am   23  ASP23      -0.1971
     82  CA        11.9860    8.6050   -1.5410 C.3    23  ASP23       0.1709
     83  C         11.9640    8.5890   -3.0680 C.2    23  ASP23       0.2293
     84  O         11.6140    7.5840   -3.6780 O.2    23  ASP23      -0.2864
     85  CB        11.9360    7.1800   -0.9780 C.3    23  ASP23       0.1436
     86  CG        13.1510    6.3430   -1.3630 C.2    23  ASP23       0.3671
     87  OD1       14.1590    6.8970   -1.8520 O.co2  23  ASP23      -0.2456
     88  OD2       13.0860    5.1120   -1.1670 O.co2  23  ASP23      -0.2456
     89  N         17.1910   13.6890   -4.7680 N.3    27  TYR27      -0.1227
     90  CA        16.9850   14.7730   -3.7980 C.3    27  TYR27       0.1736
     91  C         15.7580   14.6850   -2.8980 C.2    27  TYR27       0.2596
     92  O         15.7900   15.2260   -1.7880 O.2    27  TYR27      -0.2718
     93  CB        17.0450   16.1390   -4.4850 C.3    27  TYR27       0.0548
     94  CG        18.4420   16.4700   -4.9310 C.ar   27  TYR27      -0.0200
     95  CD1       18.8830   16.1230   -6.2070 C.ar   27  TYR27      -0.0009
     96  CD2       19.3340   17.1000   -4.0660 C.ar   27  TYR27      -0.0009
     97  CE1       20.1910   16.3950   -6.6080 C.ar   27  TYR27       0.0417
     98  CE2       20.6380   17.3850   -4.4590 C.ar   27  TYR27       0.0417
     99  CZ        21.0560   17.0300   -5.7300 C.ar   27  TYR27       0.1957
    100  OH        22.3380   17.3190   -6.1220 O.3    27  TYR27      -0.2866
    101  N         14.7260   13.9910   -3.3560 N.am   28  CYS28      -0.1956
    102  CA        13.4920   13.8520   -2.5780 C.3    28  CYS28       0.1843
    103  C         13.6350   12.7980   -1.4810 C.2    28  CYS28       0.2626
    104  O         13.7950   11.6070   -1.7630 O.2    28  CYS28      -0.2714
    105  CB        12.2950   13.5370   -3.4810 C.3    28  CYS28       0.0997
    106  SG        12.1460   14.5850   -4.9480 S.3    28  CYS28      -0.0797
    107  N         13.5850   13.2550   -0.2330 N.am   29  GLY29      -0.1940
    108  CA        13.7200   12.3860    0.9310 C.3    29  GLY29       0.2014
    109  C         15.0750   12.4990    1.6000 C.2    29  GLY29       0.2638
    110  O         15.4920   13.5880    2.0020 O.2    29  GLY29      -0.2714
    111  N         15.7600   11.3630    1.7160 N.am   30  LYS30      -0.1977
    112  CA        17.0690   11.2930    2.3640 C.3    30  LYS30       0.1596
    113  C         18.1780   11.8960    1.4990 C.2    30  LYS30       0.2287
    114  O         19.0430   12.6160    2.0040 O.2    30  LYS30      -0.2864
    115  CB        17.4050    9.8430    2.7320 C.3    30  LYS30       0.0298
    116  CG        18.6860    9.6730    3.5410 C.3    30  LYS30       0.0038
    117  CD        18.9700    8.2090    3.8290 C.3    30  LYS30       0.0206
    118  CE        20.3050    8.0390    4.5350 C.3    30  LYS30       0.1093
    119  NZ        20.5300    6.6320    4.9610 N.3    30  LYS30      -0.1314
    120  N         12.8450   19.1340   -5.3690 N.3    44  CYS44      -0.1235
    121  CA        13.4580   18.6820   -4.1300 C.3    44  CYS44       0.1677
    122  C         14.8710   19.1920   -3.9090 C.2    44  CYS44       0.2270
    123  O         15.2360   19.4930   -2.7730 O.2    44  CYS44      -0.2867
    124  CB        13.4380   17.1560   -4.0510 C.3    44  CYS44       0.0956
    125  SG        11.7570   16.5330   -3.9850 S.3    44  CYS44      -0.0801
    126  N         14.4150   22.7200   -2.7000 N.3    47  HIS47      -0.1226
    127  CA        13.9400   22.5840   -1.2990 C.3    47  HIS47       0.1752
    128  C         15.0740   22.2310   -0.3170 C.2    47  HIS47       0.2596
    129  O         15.2040   22.8460    0.7450 O.2    47  HIS47      -0.2718
    130  CB        12.8110   21.5490   -1.2290 C.3    47  HIS47       0.0759
    131  CG        12.1560   21.4450    0.1200 C.ar   47  HIS47       0.0818
    132  ND1       12.3330   20.3600    0.9570 N.ar   47  HIS47      -0.2268
    133  CD2       11.3120   22.2830    0.7660 C.ar   47  HIS47       0.1154
    134  CE1       11.6360   20.5420    2.0660 C.ar   47  HIS47       0.1986
    135  NE2       11.0010   21.6980    1.9730 N.ar   47  HIS47      -0.2212
    136  N         15.8820   21.2340   -0.6700 N.am   48  ASP48      -0.1974
    137  CA        17.0540   20.8520    0.1250 C.3    48  ASP48       0.1709
    138  C         18.0340   22.0290    0.3450 C.2    48  ASP48       0.2293
    139  O         18.4800   22.2720    1.4680 O.2    48  ASP48      -0.2864
    140  CB        17.8100   19.7110   -0.5640 C.3    48  ASP48       0.1436
    141  CG        17.0670   18.3860   -0.5130 C.2    48  ASP48       0.3671
    142  OD1       16.0560   18.2590    0.2160 O.co2  48  ASP48      -0.2456
    143  OD2       17.5140   17.4420   -1.2130 O.co2  48  ASP48      -0.2456
    144  N         16.5580   24.6670    2.7090 N.3    51  TYR51      -0.1241
    145  CA        16.7390   24.2860    4.1100 C.3    51  TYR51       0.1605
    146  C         18.1600   24.5210    4.6010 C.2    51  TYR51       0.2264
    147  O         18.3530   24.9630    5.7330 O.2    51  TYR51      -0.2867
    148  CB        16.3990   22.8280    4.3110 C.3    51  TYR51       0.0534
    149  CG        14.9420   22.5090    4.6350 C.ar   51  TYR51      -0.0201
    150  CD1       13.8950   23.3890    4.3220 C.ar   51  TYR51      -0.0009
    151  CD2       14.6190   21.2780    5.1890 C.ar   51  TYR51      -0.0009
    152  CE1       12.5460   23.0440    4.6150 C.ar   51  TYR51       0.0417
    153  CE2       13.2860   20.9200    5.4700 C.ar   51  TYR51       0.0417
    154  CZ        12.2670   21.7920    5.1880 C.ar   51  TYR51       0.1957
    155  OH        10.9780   21.3690    5.4820 O.3    51  TYR51      -0.2866
    156  N         13.6440   21.1020   10.0160 N.3    63  TYR63      -0.1227
    157  CA        12.9920   19.8090   10.2210 C.3    63  TYR63       0.1736
    158  C         11.9960   19.8230   11.3830 C.2    63  TYR63       0.2595
    159  O         11.0760   19.0030   11.4250 O.2    63  TYR63      -0.2718
    160  CB        14.0410   18.7180   10.4640 C.3    63  TYR63       0.0548
    161  CG        14.5670   18.0380    9.2160 C.ar   63  TYR63      -0.0200
    162  CD1       15.3440   18.7320    8.2860 C.ar   63  TYR63      -0.0009
    163  CD2       14.3090   16.6880    8.9790 C.ar   63  TYR63      -0.0009
    164  CE1       15.8330   18.1030    7.1450 C.ar   63  TYR63       0.0417
    165  CE2       14.7940   16.0490    7.8410 C.ar   63  TYR63       0.0417
    166  CZ        15.5550   16.7620    6.9300 C.ar   63  TYR63       0.1957
    167  OH        16.0380   16.1350    5.8050 O.3    63  TYR63      -0.2866
    168  N         12.1800   20.7570   12.3150 N.am   64  PHE64      -0.1976
    169  CA        11.4290   20.7510   13.5730 C.3    64  PHE64       0.1639
    170  C         10.6750   22.0450   13.8870 C.2    64  PHE64       0.2290
    171  O          9.7270   22.0310   14.6770 O.2    64  PHE64      -0.2864
    172  CB        12.3580   20.3980   14.7400 C.3    64  PHE64       0.0560
    173  CG        13.0340   19.0600   14.6010 C.ar   64  PHE64      -0.0200
    174  CD1       12.3760   17.8910   14.9720 C.ar   64  PHE64      -0.0042
    175  CD2       14.3330   18.9700   14.1090 C.ar   64  PHE64      -0.0042
    176  CE1       12.9980   16.6510   14.8470 C.ar   64  PHE64      -0.0003
    177  CE2       14.9630   17.7350   13.9790 C.ar   64  PHE64      -0.0003
    178  CZ        14.2940   16.5730   14.3490 C.ar   64  PHE64      -0.0000
    179  N          5.8860   20.6040   -6.5870 N.3   100  PHE100     -0.1241
    180  CA         5.4440   19.2040   -6.6680 C.3   100  PHE100      0.1605
    181  C          4.1490   19.0590   -7.4820 C.2   100  PHE100      0.2264
    182  O          3.9820   18.0980   -8.2280 O.2   100  PHE100     -0.2867
    183  CB         5.2000   18.6150   -5.2740 C.3   100  PHE100      0.0534
    184  CG         6.4480   18.3680   -4.4560 C.ar  100  PHE100     -0.0203
    185  CD1        7.7040   18.7770   -4.8870 C.ar  100  PHE100     -0.0042
    186  CD2        6.3400   17.7510   -3.2220 C.ar  100  PHE100     -0.0042
    187  CE1        8.8310   18.5590   -4.0990 C.ar  100  PHE100     -0.0003
    188  CE2        7.4550   17.5210   -2.4380 C.ar  100  PHE100     -0.0003
    189  CZ         8.7020   17.9290   -2.8790 C.ar  100  PHE100     -0.0000
    190  N         11.1020    6.5160   -8.4770 N.3   110  TYR110     -0.1241
    191  CA        10.8490    6.2440   -7.0650 C.3   110  TYR110      0.1605
    192  C         11.8500    5.2080   -6.5530 C.2   110  TYR110      0.2264
    193  O         12.1720    4.2510   -7.2690 O.2   110  TYR110     -0.2867
    194  CB         9.3940    5.7880   -6.8480 C.3   110  TYR110      0.0534
    195  CG         9.0400    5.4700   -5.4120 C.ar  110  TYR110     -0.0201
    196  CD1        8.8330    6.4850   -4.4720 C.ar  110  TYR110     -0.0009
    197  CD2        8.9130    4.1500   -4.9910 C.ar  110  TYR110     -0.0009
    198  CE1        8.5190    6.1800   -3.1420 C.ar  110  TYR110      0.0417
    199  CE2        8.5910    3.8420   -3.6840 C.ar  110  TYR110      0.0417
    200  CZ         8.4000    4.8550   -2.7650 C.ar  110  TYR110      0.1957
    201  OH         8.0870    4.5230   -1.4650 O.3   110  TYR110     -0.2866
@<TRIPOS>BOND
     1   190   191    1
     2   182   181    2
     3   181   180    1
     4   193   192    2
     5   191   194    1
     6   191   192    1
     7   194   195    1
     8   180   179    1
     9   180   183    1
    10    97    95   ar
    11    97    99   ar
    12    95    94   ar
    13   100    99    1
    14    99    98   ar
    15    73    75   ar
    16    73    71   ar
    17   195   197   ar
    18   195   196   ar
    19   120   121    1
    20   183   184    1
    21    75    74   ar
    22   197   199   ar
    23   106   125    1
    24   106   105    1
    25    94    93    1
    26    94    96   ar
    27   185   184   ar
    28   185   187   ar
    29    89    90    1
    30    71    70   ar
    31    93    90    1
    32   196   198   ar
    33    98    96   ar
    34   184   186   ar
    35   121   124    1
    36   121   122    1
    37   187   189   ar
    38   124   125    1
    39   122   123    2
    40    90    91    1
    41    74    72   ar
    42   199   200   ar
    43    84    83    2
    44   105   102    1
    45   101    91   am
    46   101   102    1
    47    70    72   ar
    48    70    69    1
    49   186   188   ar
    50   198   200   ar
    51    83    82    1
    52    91    92    2
    53   189   188   ar
    54   200   201    1
    55   126   127    1
    56   102   103    1
    57    66    65    1
    58    66    69    1
    59    66    67    1
    60    87    86   ar
    61   104   103    2
    62    68    67    2
    63    82    81    1
    64    82    85    1
    65    67    76   am
    66   103   107   am
    67    86    88   ar
    68    86    85    1
    69   127   130    1
    70   127   128    1
    71    32    31    2
    72   130   131    1
    73   143   141   ar
    74    35    33    1
    75    81    78   am
    76   136   128   am
    77   136   137    1
    78    63    62    2
    79    76    77    1
    80   140   141    1
    81   140   137    1
    82    62    61    1
    83   141   142   ar
    84   128   129    2
    85   107   108    1
    86    40    39    2
    87    31    30    1
    88    31    37   am
    89    30    33    1
    90    30    29    1
    91    78    77    1
    92    78    79    2
    93   131   133   ar
    94   131   132   ar
    95    33    34    1
    96   137   138    1
    97    49    48    2
    98    34    36    1
    99   138   139    2
   100    46    47    1
   101    39    38    1
   102    77    80    1
   103    48    47    1
   104    48    60   am
   105    47    50    1
   106   133   135   ar
   107    60    61    1
   108    61    64    1
   109    19    17   ar
   110    19    18   ar
   111   108   109    1
   112   132   134   ar
   113    38    37    1
   114    38    41    1
   115    17    15   ar
   116   113   114    2
   117   113   112    1
   118   109   111   am
   119   109   110    2
   120   111   112    1
   121    18    16   ar
   122   135   134   ar
   123    50    51    1
   124   112   115    1
   125    41    42    1
   126    15    14   ar
   127   144   145    1
   128   115   116    1
   129    42    43    1
   130    51    52   ar
   131    51    53   ar
   132    16    14   ar
   133    12    11    2
   134    23    22    2
   135   116   117    1
   136    14    13    1
   137    52    54   ar
   138    56    53   ar
   139    56    58   ar
   140   117   118    1
   141    53    55   ar
   142   145   148    1
   143   145   146    1
   144    43    44    2
   145    43    45   am
   146   148   149    1
   147   150   152   ar
   148   150   149   ar
   149    22    21    1
   150    11    10    1
   151    11    20   am
   152   118   119    1
   153   146   147    2
   154   152   154   ar
   155   149   151   ar
   156    54    55   ar
   157    58    59   ar
   158    21    20    1
   159    21    24    1
   160    55    57   ar
   161    13    10    1
   162    10     9    1
   163   154   153   ar
   164   154   155    1
   165   151   153   ar
   166    25    24    1
   167    25    26    1
   168    59    57   ar
   169   167   166    1
   170    26    27    1
   171   166   164   ar
   172   166   165   ar
   173   164   162   ar
   174     4     3    2
   175    27    28    1
   176     7     6    1
   177     6     8    1
   178     6     5    1
   179   165   163   ar
   180   162   161   ar
   181     3     2    1
   182     2     5    1
   183     2     1    1
   184   163   161   ar
   185   161   160    1
   186   156   157    1
   187   157   160    1
   188   157   158    1
   189   158   159    2
   190   158   168   am
   191   168   169    1
   192   169   170    1
   193   169   172    1
   194   170   171    2
   195   177   175   ar
   196   177   178   ar
   197   175   173   ar
   198   178   176   ar
   199   173   172    1
   200   173   174   ar
   201   176   174   ar
