@<TRIPOS>MOLECULE
tmp/3jq6B01.pdb
 146 139 0 0 0
SMALL
GASTEIGER

@<TRIPOS>ATOM
      1  N         15.4030   17.5410   70.9110 N.3    13  ARG13      -0.1245
      2  CA        13.9860   17.6020   70.5650 C.3    13  ARG13       0.1563
      3  C         13.2210   16.3680   71.0440 C.2    13  ARG13       0.2260
      4  O         13.3040   16.0120   72.2190 O.2    13  ARG13      -0.2867
      5  CB        13.8310   17.8840   69.0530 C.3    13  ARG13       0.0307
      6  CG        14.4170   19.2490   68.6380 C.3    13  ARG13       0.0489
      7  CD        14.5340   19.4890   67.1200 C.3    13  ARG13       0.2205
      8  NE        13.2730   19.2470   66.4240 N.pl3  13  ARG13      -0.0865
      9  CZ        12.2610   20.1060   66.3680 C.cat  13  ARG13       0.5346
     10  NH1       12.3440   21.2980   66.9590 N.pl3  13  ARG13       0.1354
     11  NH2       11.1500   19.7660   65.7310 N.pl3  13  ARG13       0.1354
     12  N         14.8960   11.2750   61.5730 N.3    94  SER94      -0.1217
     13  CA        14.1160   11.5190   60.3720 C.3    94  SER94       0.1889
     14  C         14.6530   12.7250   59.6140 C.2    94  SER94       0.2288
     15  O         14.8980   13.7600   60.2120 O.2    94  SER94      -0.2866
     16  CB        12.6590   11.7840   60.7740 C.3    94  SER94       0.2089
     17  OG        11.8640   12.1110   59.6510 O.3    94  SER94      -0.2183
     18  N         13.5370   15.5240   56.8110 N.3    96  PHE96      -0.1241
     19  CA        12.2390   16.1060   56.4550 C.3    96  PHE96       0.1605
     20  C         12.5030   17.3910   55.6870 C.2    96  PHE96       0.2264
     21  O         12.9870   18.3640   56.2540 O.2    96  PHE96      -0.2867
     22  CB        11.4360   16.3800   57.7310 C.3    96  PHE96       0.0534
     23  CG        10.1560   17.1840   57.5330 C.ar   96  PHE96      -0.0203
     24  CD1       10.1120   18.5430   57.8500 C.ar   96  PHE96      -0.0042
     25  CD2        8.9800   16.5710   57.0960 C.ar   96  PHE96      -0.0042
     26  CE1        8.9160   19.2810   57.7150 C.ar   96  PHE96      -0.0003
     27  CE2        7.7950   17.2990   56.9500 C.ar   96  PHE96      -0.0003
     28  CZ         7.7650   18.6660   57.2710 C.ar   96  PHE96      -0.0000
     29  N          3.6680    9.6350   61.6520 N.3   141  ASP141     -0.1239
     30  CA         3.1760   10.9950   61.3760 C.3   141  ASP141      0.1674
     31  C          1.6560   10.9710   61.2320 C.2   141  ASP141      0.2266
     32  O          1.1160   10.2370   60.3840 O.2   141  ASP141     -0.2867
     33  CB         3.8200   11.4550   60.0670 C.3   141  ASP141      0.1410
     34  CG         3.4440   12.8720   59.6630 C.2   141  ASP141      0.3668
     35  OD1        2.4860   13.4690   60.1900 O.co2 141  ASP141     -0.2456
     36  OD2        4.1330   13.3990   58.7820 O.co2 141  ASP141     -0.2456
     37  N         -0.2780   13.0470   60.0130 N.3   143  MET143     -0.1245
     38  CA        -0.7510   13.6760   58.7890 C.3   143  MET143      0.1570
     39  C         -0.4160   12.8690   57.5200 C.2   143  MET143      0.2261
     40  O         -0.5560   13.3870   56.4170 O.2   143  MET143     -0.2867
     41  CB        -0.2270   15.1180   58.7020 C.3   143  MET143      0.0387
     42  CG        -0.7030   16.0210   59.8720 C.3   143  MET143      0.0595
     43  SD        -2.5120   16.0890   60.0710 S.3   143  MET143     -0.1393
     44  CE        -2.9630   17.2590   58.7930 C.3   143  MET143      0.0692
     45  N          2.0400   17.2160   53.5530 N.3   148  CYS148     -0.1235
     46  CA         2.5840   18.5030   53.1450 C.3   148  CYS148      0.1677
     47  C          2.7580   18.4660   51.6300 C.2   148  CYS148      0.2270
     48  O          3.2710   17.4870   51.0720 O.2   148  CYS148     -0.2867
     49  CB         3.9450   18.7330   53.7880 C.3   148  CYS148      0.0956
     50  SG         3.9560   18.8130   55.5930 S.3   148  CYS148     -0.0801
     51  N          9.3700   12.2850   51.5280 N.3   154  TYR154     -0.1241
     52  CA         9.1280   12.2180   52.9780 C.3   154  TYR154      0.1605
     53  C          7.8480   11.3980   53.2760 C.2   154  TYR154      0.2264
     54  O          7.8450   10.4250   54.0980 O.2   154  TYR154     -0.2867
     55  CB         9.0480   13.6300   53.6140 C.3   154  TYR154      0.0534
     56  CG         8.4950   13.5570   55.0240 C.ar  154  TYR154     -0.0201
     57  CD1        9.2980   13.1140   56.0830 C.ar  154  TYR154     -0.0009
     58  CD2        7.1560   13.8660   55.2870 C.ar  154  TYR154     -0.0009
     59  CE1        8.7920   13.0190   57.3900 C.ar  154  TYR154      0.0417
     60  CE2        6.6250   13.7570   56.5920 C.ar  154  TYR154      0.0417
     61  CZ         7.4530   13.3410   57.6280 C.ar  154  TYR154      0.1957
     62  OH         6.9400   13.2560   58.8990 O.3   154  TYR154     -0.2866
     63  N          7.3730    7.8140   55.4110 N.3   158  LYS158     -0.1245
     64  CA         6.5230    7.6020   56.5890 C.3   158  LYS158      0.1561
     65  C          5.4240    6.5650   56.3120 C.2   158  LYS158      0.2260
     66  O          5.0740    5.7640   57.1890 O.2   158  LYS158     -0.2867
     67  CB         5.9300    8.9220   57.0770 C.3   158  LYS158      0.0271
     68  CG         6.9450    9.8540   57.7350 C.3   158  LYS158      0.0035
     69  CD         7.5710    9.2540   59.0170 C.3   158  LYS158      0.0206
     70  CE         8.3080   10.3330   59.7970 C.3   158  LYS158      0.1093
     71  NZ         9.1890    9.7300   60.8420 N.3   158  LYS158     -0.1314
     72  N          1.3560   15.0040   65.5180 N.3   185  GLY185     -0.1210
     73  CA         0.8130   15.9640   64.5510 C.3   185  GLY185      0.1956
     74  C          1.8300   17.0850   64.3850 C.2   185  GLY185      0.2612
     75  O          2.8610   16.9060   63.7400 O.2   185  GLY185     -0.2717
     76  N          1.5470   18.2580   64.9260 N.am  186  VAL186     -0.1965
     77  CA         2.5710   19.2890   64.9550 C.3   186  VAL186      0.1727
     78  C          3.1210   19.2740   66.3680 C.2   186  VAL186      0.2617
     79  O          2.3630   19.2080   67.3340 O.2   186  VAL186     -0.2715
     80  CB         2.0610   20.6920   64.4720 C.3   186  VAL186      0.0290
     81  CG1        0.9480   21.2260   65.3530 C.3   186  VAL186      0.0023
     82  CG2        3.2290   21.6950   64.3400 C.3   186  VAL186      0.0023
     83  N          4.4460   19.2560   66.4700 N.am  187  SER187     -0.1936
     84  CA         5.1170   19.2220   67.7630 C.3   187  SER187      0.2055
     85  C          6.3370   20.1310   67.7330 C.2   187  SER187      0.2643
     86  O          7.0380   20.2020   66.7270 O.2   187  SER187     -0.2714
     87  CB         5.5280   17.7830   68.1040 C.3   187  SER187      0.2130
     88  OG         6.1530   17.6930   69.3760 O.3   187  SER187     -0.2179
     89  N          6.5840   20.8210   68.8400 N.am  188  LEU188     -0.1963
     90  CA         7.8260   21.5780   69.0270 C.3   188  LEU188      0.1728
     91  C          8.2160   22.4280   67.8030 C.2   188  LEU188      0.2616
     92  O          8.9460   21.9810   66.9280 O.2   188  LEU188     -0.2715
     93  CB         8.9520   20.5910   69.3920 C.3   188  LEU188      0.0311
     94  CG        10.1160   21.0060   70.2890 C.3   188  LEU188      0.0022
     95  CD1        9.6340   21.7580   71.5250 C.3   188  LEU188      0.0001
     96  CD2       10.9090   19.7680   70.6750 C.3   188  LEU188      0.0001
     97  N          7.7150   23.6520   67.7270 N.am  189  LEU189     -0.1964
     98  CA         8.0610   24.5000   66.5870 C.3   189  LEU189      0.1713
     99  C          9.3880   25.2320   66.8520 C.2   189  LEU189      0.2458
    100  O          9.6280   25.6840   67.9840 O.2   189  LEU189     -0.2730
    101  CB         6.9210   25.4620   66.2670 C.3   189  LEU189      0.0310
    102  CG         5.6100   24.7850   65.8560 C.3   189  LEU189      0.0022
    103  CD1        4.4380   25.7080   66.1490 C.3   189  LEU189      0.0001
    104  CD2        5.6300   24.3510   64.3970 C.3   189  LEU189      0.0001
    105  N         10.2620   25.3350   65.8170 N.am  190  PRO190     -0.2727
    106  CA        11.6180   25.8330   66.0630 C.3   190  PRO190      0.1402
    107  C         11.6930   27.3600   66.1050 C.2   190  PRO190      0.2269
    108  O         10.6560   28.0150   66.1470 O.2   190  PRO190     -0.2865
    109  CB        12.4250   25.2660   64.8790 C.3   190  PRO190      0.0296
    110  CG        11.4600   25.1290   63.7810 C.3   190  PRO190      0.0237
    111  CD        10.0590   24.9980   64.3900 C.3   190  PRO190      0.0939
    112  N         14.6910   27.0560   63.0440 N.3   191  ALA191     -0.1231
    113  CA        14.5260   27.3450   61.6230 C.3   191  ALA191      0.1694
    114  C         13.3020   28.2280   61.3610 C.2   191  ALA191      0.2591
    115  O         13.4260   29.3230   60.8120 O.2   191  ALA191     -0.2718
    116  CB        14.4420   26.0480   60.8240 C.3   191  ALA191      0.0304
    117  N         12.1270   27.7370   61.7550 N.am  192  MET192     -0.1979
    118  CA        10.8590   28.4620   61.6120 C.3   192  MET192      0.1605
    119  C         10.7620   29.5570   62.6690 C.2   192  MET192      0.2287
    120  O         11.3720   29.4500   63.7310 O.2   192  MET192     -0.2864
    121  CB         9.6830   27.4820   61.7510 C.3   192  MET192      0.0413
    122  CG         8.2860   28.0500   61.4910 C.3   192  MET192      0.0598
    123  SD         6.9490   26.8900   61.9140 S.3   192  MET192     -0.1393
    124  CE         7.1630   25.5620   60.7260 C.3   192  MET192      0.0692
    125  N          0.3840   27.3710   62.4730 N.3   200  TRP200     -0.1241
    126  CA         0.2890   25.9510   62.8090 C.3   200  TRP200      0.1605
    127  C         -0.4620   25.6970   64.1150 C.2   200  TRP200      0.2264
    128  O         -1.2790   24.7680   64.2210 O.2   200  TRP200     -0.2867
    129  CB         1.6840   25.3140   62.8520 C.3   200  TRP200      0.0550
    130  CG         2.1980   25.0230   61.4910 C.ar  200  TRP200      0.0003
    131  CD1        3.1610   25.7110   60.8020 C.ar  200  TRP200      0.0946
    132  CD2        1.7410   23.9900   60.6190 C.ar  200  TRP200      0.0152
    133  NE1        3.3410   25.1530   59.5600 N.ar  200  TRP200     -0.2442
    134  CE2        2.4810   24.0950   59.4230 C.ar  200  TRP200      0.0810
    135  CE3        0.7850   22.9710   60.7390 C.ar  200  TRP200      0.0012
    136  CZ2        2.2940   23.2200   58.3510 C.ar  200  TRP200      0.0191
    137  CZ3        0.5990   22.1050   59.6740 C.ar  200  TRP200      0.0001
    138  CH2        1.3500   22.2350   58.4960 C.ar  200  TRP200      0.0015
    139  N         -5.5870   17.3570   65.2300 N.3   242  LEU242     -0.1245
    140  CA        -5.1930   18.0370   63.9650 C.3   242  LEU242      0.1561
    141  C         -5.6300   17.2620   62.7230 C.2   242  LEU242      0.2260
    142  O         -6.1460   17.8340   61.7640 O.2   242  LEU242     -0.2867
    143  CB        -3.6720   18.2670   63.9100 C.3   242  LEU242      0.0270
    144  CG        -3.1270   18.9810   62.6660 C.3   242  LEU242      0.0019
    145  CD1       -3.6150   20.4170   62.6340 C.3   242  LEU242      0.0001
    146  CD2       -1.6070   18.9090   62.6380 C.3   242  LEU242      0.0001
@<TRIPOS>BOND
     1    48    47    2
     2    51    52    1
     3    47    46    1
     4    52    53    1
     5    52    55    1
     6    46    45    1
     7    46    49    1
     8    53    54    2
     9    55    56    1
    10    49    50    1
    11    56    58   ar
    12    56    57   ar
    13    58    60   ar
    14    63    64    1
    15    20    21    2
    16    20    19    1
    17    57    59   ar
    18    65    64    1
    19    65    66    2
    20    40    39    2
    21    19    18    1
    22    19    22    1
    23    64    67    1
    24    60    61   ar
    25    27    25   ar
    26    27    28   ar
    27    67    68    1
    28    25    23   ar
    29    28    26   ar
    30    59    61   ar
    31    39    38    1
    32    23    22    1
    33    23    24   ar
    34    61    62    1
    35    26    24   ar
    36    68    69    1
    37   136   138   ar
    38   136   134   ar
    39   138   137   ar
    40    41    38    1
    41    41    42    1
    42    36    34   ar
    43    38    37    1
    44    44    43    1
    45    69    70    1
    46   134   133   ar
    47   134   132   ar
    48   133   131   ar
    49    14    15    2
    50    14    13    1
    51    17    16    1
    52    34    33    1
    53    34    35   ar
    54   137   135   ar
    55    70    71    1
    56    42    43    1
    57    33    30    1
    58    13    16    1
    59    13    12    1
    60    32    31    2
    61   132   135   ar
    62   132   130   ar
    63   124   123    1
    64   131   130   ar
    65   115   114    2
    66   116   113    1
    67    31    30    1
    68   114   113    1
    69   114   117   am
    70    30    29    1
    71   130   129    1
    72   122   121    1
    73   122   123    1
    74   118   121    1
    75   118   117    1
    76   118   119    1
    77   113   112    1
    78   142   141    2
    79   125   126    1
    80   145   144    1
    81   146   144    1
    82   144   143    1
    83   119   120    2
    84   141   140    1
    85   126   129    1
    86   126   127    1
    87    75    74    2
    88   110   111    1
    89   110   109    1
    90   143   140    1
    91   140   139    1
    92   127   128    2
    93    82    80    1
    94    74    73    1
    95    74    76   am
    96   111   105    1
    97   104   102    1
    98    80    77    1
    99    80    81    1
   100    73    72    1
   101   109   106    1
   102    76    77    1
   103    77    78    1
   104    11     9    1
   105   105   106    1
   106   105    99   am
   107   102   103    1
   108   102   101    1
   109   106   107    1
   110   107   108    2
   111   101    98    1
   112     9     8    2
   113     9    10    1
   114    78    83   am
   115    78    79    2
   116     8     7    1
   117    83    84    1
   118    98    99    1
   119    98    97    1
   120    86    85    2
   121    99   100    2
   122    92    91    2
   123     7     6    1
   124    97    91   am
   125    85    84    1
   126    85    89   am
   127    84    87    1
   128    91    90    1
   129    87    88    1
   130     6     5    1
   131    89    90    1
   132    90    93    1
   133     5     2    1
   134    93    94    1
   135    94    96    1
   136    94    95    1
   137     2     1    1
   138     2     3    1
   139     3     4    2
