@<TRIPOS>MOLECULE
tmp/3jq7A01.pdb
 119 115 0 0 0
SMALL
GASTEIGER

@<TRIPOS>ATOM
      1  N         15.1710  -11.2240    4.8180 N.3    13  ARG13      -0.1245
      2  CA        13.7680  -11.1980    5.2190 C.3    13  ARG13       0.1563
      3  C         13.0380   -9.9440    4.7120 C.2    13  ARG13       0.2260
      4  O         13.1980   -9.5970    3.5360 O.2    13  ARG13      -0.2867
      5  CB        13.6900  -11.4570    6.7390 C.3    13  ARG13       0.0307
      6  CG        14.0600  -12.9330    7.0810 C.3    13  ARG13       0.0489
      7  CD        14.2740  -13.1700    8.5760 C.3    13  ARG13       0.2205
      8  NE        13.0770  -12.8550    9.3760 N.pl3  13  ARG13      -0.0865
      9  CZ        12.0830  -13.7140    9.6370 C.cat  13  ARG13       0.5346
     10  NH1       12.1030  -14.9420    9.1320 N.pl3  13  ARG13       0.1354
     11  NH2       11.0580  -13.3490   10.4040 N.pl3  13  ARG13       0.1354
     12  N         14.8090   -4.5980   13.9990 N.3    93  SER93      -0.1217
     13  CA        13.9850   -4.8290   15.1580 C.3    93  SER93       0.1889
     14  C         14.4140   -6.0900   15.8960 C.2    93  SER93       0.2288
     15  O         14.4610   -7.1860   15.3140 O.2    93  SER93      -0.2866
     16  CB        12.5260   -4.9800   14.7150 C.3    93  SER93       0.2089
     17  OG        11.7190   -5.4430   15.7790 O.3    93  SER93      -0.2183
     18  N         13.4880   -8.8950   18.6370 N.3    95  PHE95      -0.1241
     19  CA        12.2040   -9.5380   18.9650 C.3    95  PHE95       0.1605
     20  C         12.4390  -10.8520   19.7330 C.2    95  PHE95       0.2264
     21  O         12.9620  -11.8340   19.1920 O.2    95  PHE95      -0.2867
     22  CB        11.4040   -9.7530   17.6590 C.3    95  PHE95       0.0534
     23  CG        10.1870  -10.6390   17.7930 C.ar   95  PHE95      -0.0203
     24  CD1       10.2260  -11.9600   17.3740 C.ar   95  PHE95      -0.0042
     25  CD2        8.9840  -10.1270   18.2590 C.ar   95  PHE95      -0.0042
     26  CE1        9.0740  -12.7670   17.4750 C.ar   95  PHE95      -0.0003
     27  CE2        7.8350  -10.9000   18.3610 C.ar   95  PHE95      -0.0003
     28  CZ         7.8790  -12.2300   17.9650 C.ar   95  PHE95      -0.0000
     29  N          3.5120   -3.1570   13.9440 N.3   141  ASP141     -0.1239
     30  CA         3.0380   -4.5140   14.2250 C.3   141  ASP141      0.1674
     31  C          1.5120   -4.4290   14.3580 C.2   141  ASP141      0.2266
     32  O          1.0000   -3.6620   15.1750 O.2   141  ASP141     -0.2867
     33  CB         3.6880   -5.0150   15.5170 C.3   141  ASP141      0.1410
     34  CG         3.4060   -6.4950   15.8090 C.2   141  ASP141      0.3668
     35  OD1        2.3370   -7.0380   15.4490 O.co2 141  ASP141     -0.2456
     36  OD2        4.2690   -7.1200   16.4320 O.co2 141  ASP141     -0.2456
     37  N          9.1530   -5.8400   23.9000 N.3   153  TYR153     -0.1241
     38  CA         8.9330   -5.7570   22.4660 C.3   153  TYR153      0.1605
     39  C          7.6660   -4.9130   22.1640 C.2   153  TYR153      0.2264
     40  O          7.7040   -3.9700   21.3380 O.2   153  TYR153     -0.2867
     41  CB         8.8480   -7.1510   21.8330 C.3   153  TYR153      0.0534
     42  CG         8.3230   -7.0700   20.4260 C.ar  153  TYR153     -0.0201
     43  CD1        9.1600   -6.6600   19.3810 C.ar  153  TYR153     -0.0009
     44  CD2        6.9780   -7.3260   20.1570 C.ar  153  TYR153     -0.0009
     45  CE1        8.6620   -6.5300   18.0570 C.ar  153  TYR153      0.0417
     46  CE2        6.4600   -7.2020   18.8560 C.ar  153  TYR153      0.0417
     47  CZ         7.3050   -6.8200   17.8230 C.ar  153  TYR153      0.1957
     48  OH         6.7980   -6.7050   16.5600 O.3   153  TYR153     -0.2866
     49  N          7.1960   -1.2970   20.0470 N.3   157  LYS157     -0.1245
     50  CA         6.3260   -1.0410   18.8870 C.3   157  LYS157      0.1561
     51  C          5.2520    0.0220   19.1820 C.2   157  LYS157      0.2260
     52  O          4.9570    0.8470   18.3250 O.2   157  LYS157     -0.2867
     53  CB         5.6710   -2.3220   18.3850 C.3   157  LYS157      0.0271
     54  CG         6.6680   -3.2730   17.7830 C.3   157  LYS157      0.0035
     55  CD         7.4740   -2.5920   16.6140 C.3   157  LYS157      0.0206
     56  CE         8.1160   -3.6890   15.7360 C.3   157  LYS157      0.1093
     57  NZ         9.0720   -3.0730   14.7520 N.3   157  LYS157     -0.1314
     58  N          1.0590   -8.4230   10.1030 N.3   184  GLY184     -0.1210
     59  CA         0.5220   -9.3320   11.1220 C.3   184  GLY184      0.1956
     60  C          1.4900  -10.4870   11.3110 C.2   184  GLY184      0.2612
     61  O          2.5110  -10.3580   11.9980 O.2   184  GLY184     -0.2717
     62  N          1.1600  -11.6390   10.7500 N.am  185  VAL185     -0.1965
     63  CA         2.1830  -12.6610   10.6030 C.3   185  VAL185      0.1727
     64  C          2.6940  -12.6240    9.1810 C.2   185  VAL185      0.2617
     65  O          1.9400  -12.7490    8.2250 O.2   185  VAL185     -0.2715
     66  CB         1.7050  -14.0670   11.0170 C.3   185  VAL185      0.0290
     67  CG1        1.2630  -14.0550   12.4650 C.3   185  VAL185      0.0023
     68  CG2        0.5640  -14.5330   10.1530 C.3   185  VAL185      0.0023
     69  N          3.9850  -12.3870    9.0450 N.am  186  SER186     -0.1936
     70  CA         4.6310  -12.4480    7.7500 C.3   186  SER186      0.2055
     71  C          5.6550  -13.5420    7.9470 C.2   186  SER186      0.2643
     72  O          5.3230  -14.5730    8.5100 O.2   186  SER186     -0.2714
     73  CB         5.2480  -11.0890    7.3780 C.3   186  SER186      0.2130
     74  OG         5.8960  -11.1390    6.1210 O.3   186  SER186     -0.2179
     75  N          6.9020  -13.3110    7.5600 N.am  187  LEU187     -0.1963
     76  CA         7.9160  -14.3650    7.6210 C.3   187  LEU187      0.1728
     77  C          8.0850  -14.8790    9.0430 C.2   187  LEU187      0.2616
     78  O          8.4280  -14.1300    9.9800 O.2   187  LEU187     -0.2715
     79  CB         9.2480  -13.8730    7.0530 C.3   187  LEU187      0.0311
     80  CG         9.2330  -13.4310    5.5930 C.3   187  LEU187      0.0022
     81  CD1       10.5390  -12.7020    5.2650 C.3   187  LEU187      0.0001
     82  CD2        9.0430  -14.6380    4.6740 C.3   187  LEU187      0.0001
     83  N          7.8210  -16.1640    9.1960 N.am  188  LEU188     -0.1964
     84  CA         7.8030  -16.7860   10.5000 C.3   188  LEU188      0.1713
     85  C          9.2540  -17.0140   10.9710 C.2   188  LEU188      0.2458
     86  O         10.1910  -16.9400   10.1530 O.2   188  LEU188     -0.2730
     87  CB         6.9800  -18.0900   10.4270 C.3   188  LEU188      0.0310
     88  CG         5.4680  -17.8310   10.1970 C.3   188  LEU188      0.0022
     89  CD1        4.9020  -18.7240    9.1230 C.3   188  LEU188      0.0001
     90  CD2        4.6520  -17.9660   11.4560 C.3   188  LEU188      0.0001
     91  N          9.4510  -17.3070   12.2780 N.am  189  PRO189     -0.2727
     92  CA        10.8340  -17.3910   12.7610 C.3   189  PRO189      0.1402
     93  C         11.5460  -18.5930   12.1690 C.2   189  PRO189      0.2269
     94  O         10.9340  -19.6470   12.0080 O.2   189  PRO189     -0.2865
     95  CB        10.6810  -17.5520   14.2860 C.3   189  PRO189      0.0296
     96  CG         9.2390  -17.2630   14.5980 C.3   189  PRO189      0.0237
     97  CD         8.4840  -17.6130   13.3490 C.3   189  PRO189      0.0939
     98  N         11.2990  -21.4240   14.5390 N.3   192  MET192     -0.1245
     99  CA         9.9660  -22.0230   14.7240 C.3   192  MET192      0.1570
    100  C          9.7390  -23.2820   13.8840 C.2   192  MET192      0.2261
    101  O         10.0000  -23.2790   12.6830 O.2   192  MET192     -0.2867
    102  CB         8.8750  -20.9930   14.4240 C.3   192  MET192      0.0387
    103  CG         7.4490  -21.4720   14.7130 C.3   192  MET192      0.0595
    104  SD         6.1940  -20.2100   14.4090 S.3   192  MET192     -0.1393
    105  CE         6.3150  -19.1530   15.8580 C.3   192  MET192      0.0692
    106  N         -0.1370  -20.7050   13.3700 N.3   200  TRP200     -0.1241
    107  CA        -0.2340  -19.2760   13.0930 C.3   200  TRP200      0.1605
    108  C         -0.9270  -19.0040   11.7440 C.2   200  TRP200      0.2264
    109  O         -1.8010  -18.1290   11.6390 O.2   200  TRP200     -0.2867
    110  CB         1.1470  -18.6280   13.1500 C.3   200  TRP200      0.0550
    111  CG         1.5620  -18.3330   14.5380 C.ar  200  TRP200      0.0003
    112  CD1        2.4500  -19.0360   15.3030 C.ar  200  TRP200      0.0946
    113  CD2        1.0870  -17.2580   15.3550 C.ar  200  TRP200      0.0152
    114  NE1        2.5600  -18.4630   16.5460 N.ar  200  TRP200     -0.2442
    115  CE2        1.7340  -17.3680   16.6040 C.ar  200  TRP200      0.0810
    116  CE3        0.1690  -16.2170   15.1550 C.ar  200  TRP200      0.0012
    117  CZ2        1.5000  -16.4680   17.6490 C.ar  200  TRP200      0.0191
    118  CZ3       -0.0650  -15.3320   16.1920 C.ar  200  TRP200      0.0001
    119  CH2        0.6020  -15.4660   17.4250 C.ar  200  TRP200      0.0015
@<TRIPOS>BOND
     1     4     3    2
     2    82    80    1
     3     3     2    1
     4     1     2    1
     5     2     5    1
     6    81    80    1
     7    80    79    1
     8    74    73    1
     9     5     6    1
    10    79    76    1
    11     6     7    1
    12    73    70    1
    13    75    76    1
    14    75    71   am
    15    76    77    1
    16    70    71    1
    17    70    69    1
    18    71    72    2
    19    65    64    2
    20     7     8    1
    21    77    83   am
    22    77    78    2
    23    69    64   am
    24    89    88    1
    25    10     9    1
    26    64    63    1
    27    83    84    1
    28     8     9    2
    29     9    11    1
    30    58    59    1
    31    86    85    2
    32    68    66    1
    33    88    87    1
    34    88    90    1
    35    87    84    1
    36    84    85    1
    37    63    62    1
    38    63    66    1
    39    62    60   am
    40    85    91   am
    41    66    67    1
    42    59    60    1
    43    60    61    2
    44   109   108    2
    45   108   107    1
    46    94    93    2
    47    93    92    1
    48    91    92    1
    49    91    97    1
    50   101   100    2
    51    92    95    1
    52   107   110    1
    53   107   106    1
    54   110   111    1
    55    97    96    1
    56   100    99    1
    57    29    30    1
    58    12    13    1
    59    30    31    1
    60    30    33    1
    61    95    96    1
    62    31    32    2
    63   104   103    1
    64   104   105    1
    65   102   103    1
    66   102    99    1
    67   111   112   ar
    68   111   113   ar
    69    98    99    1
    70    16    13    1
    71    16    17    1
    72    57    56    1
    73   116   113   ar
    74   116   118   ar
    75    13    14    1
    76   112   114   ar
    77    15    14    2
    78   113   115   ar
    79    35    34   ar
    80    33    34    1
    81    56    55    1
    82    34    36   ar
    83   118   119   ar
    84   114   115   ar
    85    48    47    1
    86   115   117   ar
    87    55    54    1
    88    24    26   ar
    89    24    23   ar
    90   119   117   ar
    91    26    28   ar
    92    22    23    1
    93    22    19    1
    94    54    53    1
    95    23    25   ar
    96    47    45   ar
    97    47    46   ar
    98    28    27   ar
    99    45    43   ar
   100    25    27   ar
   101    52    51    2
   102    53    50    1
   103    18    19    1
   104    46    44   ar
   105    50    51    1
   106    50    49    1
   107    19    20    1
   108    21    20    2
   109    43    42   ar
   110    44    42   ar
   111    42    41    1
   112    40    39    2
   113    41    38    1
   114    39    38    1
   115    38    37    1
