@<TRIPOS>MOLECULE
tmp/3jq8D01.pdb
 101 96 0 0 0
SMALL
GASTEIGER

@<TRIPOS>ATOM
      1  N        -16.5630   -8.3620   83.4080 N.3    13  ARG13      -0.1245
      2  CA       -15.5220   -8.4490   82.3760 C.3    13  ARG13       0.1563
      3  C        -14.7060   -7.1590   82.1970 C.2    13  ARG13       0.2260
      4  O        -14.2150   -6.5850   83.1710 O.2    13  ARG13      -0.2867
      5  CB       -16.1270   -8.9240   81.0430 C.3    13  ARG13       0.0307
      6  CG       -16.7180  -10.3320   81.0860 C.3    13  ARG13       0.0489
      7  CD       -17.8190  -10.5350   80.0390 C.3    13  ARG13       0.2205
      8  NE       -17.3390  -10.3870   78.6630 N.pl3  13  ARG13      -0.0865
      9  CZ       -16.8380  -11.3720   77.9200 C.cat  13  ARG13       0.5346
     10  NH1      -16.7360  -12.6040   78.4030 N.pl3  13  ARG13       0.1354
     11  NH2      -16.4340  -11.1230   76.6820 N.pl3  13  ARG13       0.1354
     12  N        -22.0700   -2.8180   75.3540 N.3    94  SER94      -0.1217
     13  CA       -22.2090   -3.2070   73.9600 C.3    94  SER94       0.1889
     14  C        -23.0430   -4.4660   73.8260 C.2    94  SER94       0.2288
     15  O        -22.8780   -5.4060   74.5950 O.2    94  SER94      -0.2866
     16  CB       -20.8260   -3.4340   73.3440 C.3    94  SER94       0.2089
     17  OG       -20.9150   -4.0550   72.0730 O.3    94  SER94      -0.2183
     18  N        -23.8130   -7.6330   71.3550 N.3    96  PHE96      -0.1241
     19  CA       -23.0310   -8.3990   70.3960 C.3    96  PHE96       0.1605
     20  C        -23.7210   -9.7230   70.0880 C.2    96  PHE96       0.2264
     21  O        -23.7700  -10.6190   70.9370 O.2    96  PHE96      -0.2867
     22  CB       -21.6230   -8.6390   70.9540 C.3    96  PHE96       0.0534
     23  CG       -20.7160   -9.4280   70.0470 C.ar   96  PHE96      -0.0203
     24  CD1      -20.4790  -10.7780   70.2830 C.ar   96  PHE96      -0.0042
     25  CD2      -20.0690   -8.8140   68.9760 C.ar   96  PHE96      -0.0042
     26  CE1      -19.6320  -11.5080   69.4550 C.ar   96  PHE96      -0.0003
     27  CE2      -19.2160   -9.5350   68.1450 C.ar   96  PHE96      -0.0003
     28  CZ       -18.9950  -10.8820   68.3850 C.ar   96  PHE96      -0.0000
     29  N        -13.5150   -1.6550   68.2060 N.3   142  ASP142     -0.1239
     30  CA       -13.2120   -3.0210   67.7880 C.3   142  ASP142      0.1674
     31  C        -12.0570   -3.0250   66.7920 C.2   142  ASP142      0.2266
     32  O        -12.1370   -2.4010   65.7360 O.2   142  ASP142     -0.2867
     33  CB       -14.4590   -3.6910   67.1880 C.3   142  ASP142      0.1410
     34  CG       -14.3520   -5.2090   67.1400 C.2   142  ASP142      0.3668
     35  OD1      -13.2790   -5.7350   66.7800 O.co2 142  ASP142     -0.2456
     36  OD2      -15.3510   -5.8890   67.4620 O.co2 142  ASP142     -0.2456
     37  N        -23.8420   -5.0730   64.2470 N.3   154  TYR154     -0.1241
     38  CA       -22.7760   -4.8690   65.2310 C.3   154  TYR154      0.1605
     39  C        -21.6270   -4.0630   64.6210 C.2   154  TYR154      0.2264
     40  O        -21.1870   -3.0590   65.1980 O.2   154  TYR154     -0.2867
     41  CB       -22.2540   -6.1980   65.8050 C.3   154  TYR154      0.0534
     42  CG       -20.9730   -6.0290   66.5990 C.ar  154  TYR154     -0.0201
     43  CD1      -21.0060   -5.5480   67.9070 C.ar  154  TYR154     -0.0009
     44  CD2      -19.7280   -6.3240   66.0350 C.ar  154  TYR154     -0.0009
     45  CE1      -19.8460   -5.3730   68.6370 C.ar  154  TYR154      0.0417
     46  CE2      -18.5540   -6.1520   66.7630 C.ar  154  TYR154      0.0417
     47  CZ       -18.6260   -5.6710   68.0650 C.ar  154  TYR154      0.1957
     48  OH       -17.4830   -5.4850   68.8070 O.3   154  TYR154     -0.2866
     49  N        -20.1620   -0.3220   65.6190 N.3   158  LYS158     -0.1245
     50  CA       -18.7620   -0.1100   65.9650 C.3   158  LYS158      0.1561
     51  C        -18.0840    0.8740   65.0180 C.2   158  LYS158      0.2260
     52  O        -17.2340    1.6470   65.4410 O.2   158  LYS158     -0.2867
     53  CB       -18.0030   -1.4370   66.0040 C.3   158  LYS158      0.0271
     54  CG       -18.2610   -2.2560   67.2600 C.3   158  LYS158      0.0035
     55  CD       -17.9120   -1.4760   68.5190 C.3   158  LYS158      0.0206
     56  CE       -18.1390   -2.3030   69.7550 C.3   158  LYS158      0.1093
     57  NZ       -18.0790   -1.4720   70.9830 N.3   158  LYS158     -0.1314
     58  N         -9.2510   -9.8540   70.2870 N.3   186  VAL186     -0.1231
     59  CA        -9.8690  -10.8660   71.1330 C.3   186  VAL186      0.1692
     60  C         -9.3830  -10.7160   72.5740 C.2   186  VAL186      0.2593
     61  O         -8.1930  -10.8520   72.8670 O.2   186  VAL186     -0.2718
     62  CB        -9.7010  -12.3250   70.5850 C.3   186  VAL186      0.0266
     63  CG1       -8.2470  -12.7090   70.4470 C.3   186  VAL186      0.0020
     64  CG2      -10.4320  -13.3240   71.4710 C.3   186  VAL186      0.0020
     65  N        -10.3220  -10.3750   73.4510 N.am  187  SER187     -0.1938
     66  CA       -10.0920  -10.3190   74.8860 C.3   187  SER187      0.2055
     67  C        -10.9050  -11.4420   75.5380 C.2   187  SER187      0.2643
     68  O        -11.1640  -12.4710   74.8990 O.2   187  SER187     -0.2714
     69  CB       -10.4830   -8.9440   75.4340 C.3   187  SER187      0.2130
     70  OG       -10.1090   -8.8040   76.7960 O.3   187  SER187     -0.2179
     71  N        -11.3020  -11.2470   76.7960 N.am  188  LEU188     -0.1963
     72  CA       -12.0800  -12.2350   77.5480 C.3   188  LEU188      0.1728
     73  C        -13.1950  -12.8430   76.7130 C.2   188  LEU188      0.2616
     74  O        -14.0750  -12.1320   76.2300 O.2   188  LEU188     -0.2715
     75  CB       -12.6910  -11.6070   78.8030 C.3   188  LEU188      0.0311
     76  CG       -11.8360  -11.3100   80.0340 C.3   188  LEU188      0.0022
     77  CD1      -12.7390  -10.7370   81.1030 C.3   188  LEU188      0.0001
     78  CD2      -11.1280  -12.5540   80.5580 C.3   188  LEU188      0.0001
     79  N        -13.1410  -14.1590   76.5440 N.am  189  LEU189     -0.1964
     80  CA       -14.1440  -14.8990   75.7840 C.3   189  LEU189      0.1713
     81  C        -15.1990  -15.4710   76.7360 C.2   189  LEU189      0.2458
     82  O        -14.9180  -15.6440   77.9240 O.2   189  LEU189     -0.2730
     83  CB       -13.4650  -16.0010   74.9650 C.3   189  LEU189      0.0310
     84  CG       -12.6230  -15.5330   73.7690 C.3   189  LEU189      0.0022
     85  CD1      -11.5180  -16.5220   73.4280 C.3   189  LEU189      0.0001
     86  CD2      -13.5050  -15.2930   72.5540 C.3   189  LEU189      0.0001
     87  N        -16.4210  -15.7470   76.2330 N.am  190  PRO190     -0.2727
     88  CA       -17.4850  -16.2300   77.1220 C.3   190  PRO190      0.1402
     89  C        -17.0850  -17.4920   77.8810 C.2   190  PRO190      0.2269
     90  O        -16.4670  -18.3870   77.3040 O.2   190  PRO190     -0.2865
     91  CB       -18.6380  -16.5330   76.1590 C.3   190  PRO190      0.0296
     92  CG       -18.3820  -15.6610   74.9850 C.3   190  PRO190      0.0237
     93  CD       -16.8920  -15.6280   74.8410 C.3   190  PRO190      0.0939
     94  N        -18.4140  -20.6800   76.3130 N.3   193  MET193     -0.1245
     95  CA       -17.7680  -21.0460   75.0540 C.3   193  MET193      0.1570
     96  C        -16.7300  -22.1440   75.2930 C.2   193  MET193      0.2261
     97  O        -15.8740  -22.0160   76.1690 O.2   193  MET193     -0.2867
     98  CB       -17.1180  -19.8170   74.4040 C.3   193  MET193      0.0387
     99  CG       -16.1990  -20.1310   73.2240 C.3   193  MET193      0.0595
    100  SD       -15.4960  -18.6930   72.3810 S.3   193  MET193     -0.1393
    101  CE       -16.9410  -18.0830   71.5030 C.3   193  MET193      0.0692
@<TRIPOS>BOND
     1    37    38    1
     2    39    40    2
     3    39    38    1
     4    51    52    2
     5    51    50    1
     6    38    41    1
     7    49    50    1
     8    32    31    2
     9    41    42    1
    10    50    53    1
    11    53    54    1
    12    44    42   ar
    13    44    46   ar
    14    42    43   ar
    15    46    47   ar
    16    35    34   ar
    17    31    30    1
    18    34    33    1
    19    34    36   ar
    20    33    30    1
    21    54    55    1
    22    30    29    1
    23    43    45   ar
    24    47    45   ar
    25    47    48    1
    26    27    28   ar
    27    27    25   ar
    28    28    26   ar
    29    55    56    1
    30    25    23   ar
    31    26    24   ar
    32    56    57    1
    33    23    24   ar
    34    23    22    1
    35    20    19    1
    36    20    21    2
    37    58    59    1
    38    19    22    1
    39    19    18    1
    40    63    62    1
    41    62    59    1
    42    62    64    1
    43    59    60    1
    44   101   100    1
    45    17    16    1
    46   100    99    1
    47    86    84    1
    48    60    61    2
    49    60    65   am
    50    99    98    1
    51    16    13    1
    52    85    84    1
    53    65    66    1
    54    84    83    1
    55    14    13    1
    56    14    15    2
    57    13    12    1
    58    98    95    1
    59    93    92    1
    60    93    87    1
    61    66    69    1
    62    66    67    1
    63    68    67    2
    64    83    80    1
    65    92    91    1
    66    95    96    1
    67    95    94    1
    68    96    97    2
    69    69    70    1
    70    67    71   am
    71    80    79    1
    72    80    81    1
    73    91    88    1
    74    74    73    2
    75    87    81   am
    76    87    88    1
    77    79    73   am
    78    11     9    1
    79    73    72    1
    80    81    82    2
    81    71    72    1
    82    88    89    1
    83    90    89    2
    84    72    75    1
    85     9    10    1
    86     9     8    2
    87     8     7    1
    88    75    76    1
    89    76    78    1
    90    76    77    1
    91     7     6    1
    92     5     6    1
    93     5     2    1
    94     3     2    1
    95     3     4    2
    96     2     1    1
