@<TRIPOS>MOLECULE
tmp/3jq9A01.pdb
 159 151 0 0 0
SMALL
GASTEIGER

@<TRIPOS>ATOM
      1  N          1.5450  -11.7460   32.5990 N.3    13  ARG13      -0.1245
      2  CA         0.5830  -11.6410   33.7140 C.3    13  ARG13       0.1563
      3  C         -0.2820  -10.3670   33.7010 C.2    13  ARG13       0.2260
      4  O         -0.8170  -10.0010   32.6510 O.2    13  ARG13      -0.2867
      5  CB         1.2820  -11.8770   35.0670 C.3    13  ARG13       0.0307
      6  CG         1.8090  -13.3080   35.2420 C.3    13  ARG13       0.0489
      7  CD         2.8700  -13.4260   36.3400 C.3    13  ARG13       0.2205
      8  NE         2.3280  -13.1490   37.6700 N.pl3  13  ARG13      -0.0865
      9  CZ         1.7780  -14.0590   38.4700 C.cat  13  ARG13       0.5346
     10  NH1        1.6920  -15.3290   38.0910 N.pl3  13  ARG13       0.1354
     11  NH2        1.3090  -13.6960   39.6560 N.pl3  13  ARG13       0.1354
     12  N          3.3640   -0.7880   37.4870 N.3    92  ASN92      -0.1240
     13  CA         2.9720   -2.1890   37.6420 C.3    92  ASN92       0.1653
     14  C          4.1030   -3.1180   38.1000 C.2    92  ASN92       0.2266
     15  O          3.8690   -4.0370   38.8780 O.2    92  ASN92      -0.2867
     16  CB         2.3530   -2.7010   36.3350 C.3    92  ASN92       0.1155
     17  CG         1.7440   -4.0930   36.4680 C.2    92  ASN92       0.2627
     18  OD1        0.5940   -4.2400   36.8810 O.2    92  ASN92      -0.2716
     19  ND2        2.5060   -5.1160   36.0870 N.am   92  ASN92      -0.0877
     20  N          6.9160   -5.0590   39.9500 N.3    94  SER94      -0.1217
     21  CA         7.0540   -5.3140   41.3850 C.3    94  SER94       0.1889
     22  C          7.8200   -6.5830   41.7510 C.2    94  SER94       0.2288
     23  O          7.4620   -7.6930   41.3240 O.2    94  SER94      -0.2866
     24  CB         5.6730   -5.3420   42.0490 C.3    94  SER94       0.2089
     25  OG         5.7180   -5.9440   43.3360 O.3    94  SER94      -0.2183
     26  N          8.5800   -9.3440   44.5230 N.3    96  PHE96      -0.1241
     27  CA         7.7290   -9.9550   45.5410 C.3    96  PHE96       0.1605
     28  C          8.3390  -11.2550   46.0910 C.2    96  PHE96       0.2264
     29  O          8.2610  -12.3060   45.4510 O.2    96  PHE96      -0.2867
     30  CB         6.3220  -10.1980   44.9600 C.3    96  PHE96       0.0534
     31  CG         5.3790  -10.9090   45.8960 C.ar   96  PHE96      -0.0203
     32  CD1        5.0670  -12.2520   45.6990 C.ar   96  PHE96      -0.0042
     33  CD2        4.8030  -10.2390   46.9750 C.ar   96  PHE96      -0.0042
     34  CE1        4.1980  -12.9210   46.5600 C.ar   96  PHE96      -0.0003
     35  CE2        3.9320  -10.8950   47.8420 C.ar   96  PHE96      -0.0003
     36  CZ         3.6290  -12.2420   47.6340 C.ar   96  PHE96      -0.0000
     37  N         -2.0310   -2.9160   46.7650 N.3   142  ASP142     -0.1239
     38  CA        -2.3850   -4.1690   47.4150 C.3   142  ASP142      0.1674
     39  C         -3.5850   -3.9230   48.3320 C.2   142  ASP142      0.2266
     40  O         -3.6070   -2.9610   49.1010 O.2   142  ASP142     -0.2867
     41  CB        -1.1860   -4.6980   48.2180 C.3   142  ASP142      0.1410
     42  CG        -1.2510   -6.2010   48.4670 C.2   142  ASP142      0.3668
     43  OD1       -2.3500   -6.7990   48.4190 O.co2 142  ASP142     -0.2456
     44  OD2       -0.1840   -6.7900   48.7210 O.co2 142  ASP142     -0.2456
     45  N         -4.4230   -5.9230   50.6230 N.3   144  MET144     -0.1245
     46  CA        -4.0590   -6.5540   51.8860 C.3   144  MET144      0.1570
     47  C         -2.9170   -5.8300   52.5890 C.2   144  MET144      0.2261
     48  O         -2.1910   -6.4280   53.3930 O.2   144  MET144     -0.2867
     49  CB        -3.6550   -8.0010   51.6370 C.3   144  MET144      0.0387
     50  CG        -4.7050   -8.8250   50.9340 C.3   144  MET144      0.0595
     51  SD        -6.0520   -9.2270   52.0460 S.3   144  MET144     -0.1393
     52  CE        -5.3280  -10.5570   52.9950 C.3   144  MET144      0.0692
     53  N         -3.1940   -6.3800   56.2250 N.3   147  GLN147     -0.1231
     54  CA        -3.0670   -7.7590   56.6810 C.3   147  GLN147      0.1683
     55  C         -2.0060   -8.4560   55.8240 C.2   147  GLN147      0.2434
     56  O         -2.3370   -9.1970   54.8980 O.2   147  GLN147     -0.2733
     57  CB        -4.4030   -8.5100   56.6220 C.3   147  GLN147      0.0380
     58  CG        -5.5860   -7.7980   57.2830 C.3   147  GLN147      0.0905
     59  CD        -6.6210   -7.2960   56.2780 C.2   147  GLN147      0.2608
     60  OE1       -7.7030   -7.8730   56.1510 O.2   147  GLN147     -0.2717
     61  NE2       -6.2900   -6.2250   55.5590 N.am  147  GLN147     -0.0878
     62  N         -0.7220   -8.2200   56.1410 N.am  148  PRO148     -0.2718
     63  CA         0.3760   -8.6170   55.2710 C.3   148  PRO148      0.1535
     64  C          0.7140  -10.1100   55.3690 C.2   148  PRO148      0.2598
     65  O          0.2410  -10.7960   56.2820 O.2   148  PRO148     -0.2715
     66  CB         1.5430   -7.7720   55.7880 C.3   148  PRO148      0.0310
     67  CG         1.2520   -7.5630   57.2290 C.3   148  PRO148      0.0237
     68  CD        -0.2440   -7.5850   57.3840 C.3   148  PRO148      0.0939
     69  N          1.5120  -10.6030   54.4230 N.am  149  CYS149     -0.1968
     70  CA         2.0410  -11.9600   54.5100 C.3   149  CYS149      0.1712
     71  C          3.1550  -12.0000   55.5530 C.2   149  CYS149      0.2296
     72  O          3.9080  -11.0360   55.7100 O.2   149  CYS149     -0.2864
     73  CB         2.5920  -12.4290   53.1650 C.3   149  CYS149      0.0983
     74  SG         1.4090  -12.5490   51.8240 S.3   149  CYS149     -0.0798
     75  N          8.5380   -5.7520   51.2680 N.3   155  TYR155     -0.1241
     76  CA         7.5240   -5.6560   50.2270 C.3   155  TYR155      0.1605
     77  C          6.3310   -4.8030   50.6660 C.2   155  TYR155      0.2264
     78  O          5.9030   -3.9040   49.9380 O.2   155  TYR155     -0.2867
     79  CB         7.0590   -7.0510   49.7980 C.3   155  TYR155      0.0534
     80  CG         5.7190   -7.0580   49.1020 C.ar  155  TYR155     -0.0201
     81  CD1        5.5560   -6.4750   47.8420 C.ar  155  TYR155     -0.0009
     82  CD2        4.6110   -7.6470   49.7020 C.ar  155  TYR155     -0.0009
     83  CE1        4.3220   -6.4800   47.2060 C.ar  155  TYR155      0.0417
     84  CE2        3.3720   -7.6580   49.0750 C.ar  155  TYR155      0.0417
     85  CZ         3.2300   -7.0730   47.8310 C.ar  155  TYR155      0.1957
     86  OH         1.9940   -7.0890   47.2130 O.3   155  TYR155     -0.2866
     87  N          4.5540   -1.2310   49.2730 N.3   159  LYS159     -0.1245
     88  CA         3.1650   -0.9720   48.8570 C.3   159  LYS159      0.1561
     89  C          2.4810    0.0820   49.7270 C.2   159  LYS159      0.2260
     90  O          1.5540    0.7620   49.2740 O.2   159  LYS159     -0.2867
     91  CB         2.3340   -2.2610   48.8590 C.3   159  LYS159      0.0271
     92  CG         2.9230   -3.4240   48.0530 C.3   159  LYS159      0.0035
     93  CD         3.3080   -3.0640   46.6060 C.3   159  LYS159      0.0206
     94  CE         2.1440   -3.1920   45.6410 C.3   159  LYS159      0.1093
     95  NZ         2.5260   -2.8760   44.2240 N.3   159  LYS159     -0.1314
     96  N         -6.4290   -8.1880   45.4650 N.3   186  GLY186     -0.1210
     97  CA        -6.2630   -9.0490   46.6320 C.3   186  GLY186      0.1956
     98  C         -5.4490  -10.2420   46.1880 C.2   186  GLY186      0.2611
     99  O         -4.2490  -10.3250   46.4630 O.2   186  GLY186     -0.2717
    100  N         -6.1160  -11.1720   45.5090 N.am  187  VAL187     -0.1979
    101  CA        -5.4300  -12.2140   44.7530 C.3   187  VAL187      0.1595
    102  C         -5.9450  -12.2530   43.3170 C.2   187  VAL187      0.2287
    103  O         -7.1160  -12.5520   43.0610 O.2   187  VAL187     -0.2864
    104  CB        -5.4720  -13.6290   45.4190 C.3   187  VAL187      0.0276
    105  CG1       -4.5190  -13.6920   46.6100 C.3   187  VAL187      0.0022
    106  CG2       -6.8920  -14.0420   45.8180 C.3   187  VAL187      0.0022
    107  N         -3.7980  -13.3240   39.4600 N.3   189  LEU189     -0.1231
    108  CA        -2.9420  -14.4420   39.0590 C.3   189  LEU189      0.1693
    109  C         -1.9550  -14.7840   40.1660 C.2   189  LEU189      0.2592
    110  O         -1.2490  -13.9100   40.6780 O.2   189  LEU189     -0.2718
    111  CB        -2.2040  -14.1310   37.7580 C.3   189  LEU189      0.0284
    112  CG        -3.0380  -14.1550   36.4780 C.3   189  LEU189      0.0019
    113  CD1       -2.1960  -13.6560   35.3150 C.3   189  LEU189      0.0001
    114  CD2       -3.5790  -15.5570   36.2010 C.3   189  LEU189      0.0001
    115  N         -1.9310  -16.0540   40.5520 N.am  190  LEU190     -0.1966
    116  CA        -1.0800  -16.4920   41.6520 C.3   190  LEU190      0.1713
    117  C          0.3460  -16.7420   41.1510 C.2   190  LEU190      0.2458
    118  O          0.5430  -16.9150   39.9450 O.2   190  LEU190     -0.2730
    119  CB        -1.6880  -17.7250   42.3330 C.3   190  LEU190      0.0310
    120  CG        -3.0420  -17.4690   43.0120 C.3   190  LEU190      0.0022
    121  CD1       -3.8710  -18.7430   43.0870 C.3   190  LEU190      0.0001
    122  CD2       -2.8650  -16.8600   44.3910 C.3   190  LEU190      0.0001
    123  N          1.3500  -16.7280   42.0620 N.am  191  PRO191     -0.2727
    124  CA         2.7330  -16.9500   41.6350 C.3   191  PRO191      0.1402
    125  C          2.8830  -18.2780   40.9040 C.2   191  PRO191      0.2269
    126  O          2.2630  -19.2720   41.2960 O.2   191  PRO191     -0.2865
    127  CB         3.5120  -16.9760   42.9550 C.3   191  PRO191      0.0296
    128  CG         2.6910  -16.1870   43.8860 C.3   191  PRO191      0.0237
    129  CD         1.2730  -16.5070   43.5170 C.3   191  PRO191      0.0939
    130  N          3.9540  -21.2750   43.0170 N.3   194  MET194     -0.1245
    131  CA         3.0570  -21.6910   44.1020 C.3   194  MET194      0.1570
    132  C          2.3820  -23.0310   43.8050 C.2   194  MET194      0.2261
    133  O          1.9420  -23.2800   42.6800 O.2   194  MET194     -0.2867
    134  CB         2.0090  -20.6070   44.3830 C.3   194  MET194      0.0387
    135  CG         1.1750  -20.8270   45.6460 C.3   194  MET194      0.0595
    136  SD         0.0390  -19.4660   46.0020 S.3   194  MET194     -0.1393
    137  CE         1.1320  -18.3290   46.8540 C.3   194  MET194      0.0692
    138  N         -5.7800  -20.5210   49.0750 N.3   202  TRP202     -0.1241
    139  CA        -5.9770  -19.0770   48.9370 C.3   202  TRP202      0.1605
    140  C         -7.2820  -18.7740   48.2080 C.2   202  TRP202      0.2264
    141  O         -7.9250  -17.7610   48.4740 O.2   202  TRP202     -0.2867
    142  CB        -4.8030  -18.4260   48.1970 C.3   202  TRP202      0.0550
    143  CG        -3.6580  -18.0250   49.0830 C.ar  202  TRP202      0.0003
    144  CD1       -2.4630  -18.6740   49.2300 C.ar  202  TRP202      0.0946
    145  CD2       -3.5970  -16.8790   49.9390 C.ar  202  TRP202      0.0152
    146  NE1       -1.6630  -18.0070   50.1260 N.ar  202  TRP202     -0.2442
    147  CE2       -2.3340  -16.9000   50.5770 C.ar  202  TRP202      0.0810
    148  CE3       -4.4880  -15.8360   50.2330 C.ar  202  TRP202      0.0012
    149  CZ2       -1.9400  -15.9180   51.4930 C.ar  202  TRP202      0.0191
    150  CZ3       -4.0950  -14.8600   51.1440 C.ar  202  TRP202      0.0001
    151  CH2       -2.8300  -14.9080   51.7610 C.ar  202  TRP202      0.0015
    152  N        -11.8010  -10.1680   49.8680 N.3   244  LEU244     -0.1245
    153  CA       -10.7690  -10.8690   50.6440 C.3   244  LEU244      0.1561
    154  C        -10.2480  -10.1010   51.8650 C.2   244  LEU244      0.2260
    155  O         -9.9150  -10.7080   52.8910 O.2   244  LEU244     -0.2867
    156  CB        -9.5920  -11.2890   49.7440 C.3   244  LEU244      0.0270
    157  CG        -8.5000  -12.1700   50.3870 C.3   244  LEU244      0.0019
    158  CD1       -9.0550  -13.4980   50.8960 C.3   244  LEU244      0.0001
    159  CD2       -7.3330  -12.4110   49.4440 C.3   244  LEU244      0.0001
@<TRIPOS>BOND
     1     1     2    1
     2     4     3    2
     3     3     2    1
     4     2     5    1
     5     5     6    1
     6     6     7    1
     7   113   112    1
     8    19    17   am
     9   114   112    1
    10    16    17    1
    11    16    13    1
    12     7     8    1
    13    17    18    2
    14   112   111    1
    15    12    13    1
    16    13    14    1
    17     8     9    2
    18   111   108    1
    19    10     9    1
    20    14    15    2
    21     9    11    1
    22   108   107    1
    23   108   109    1
    24   118   117    2
    25    20    21    1
    26   109   115   am
    27   109   110    2
    28   115   116    1
    29   125   126    2
    30   125   124    1
    31   117   116    1
    32   117   123   am
    33    23    22    2
    34    21    22    1
    35    21    24    1
    36   124   123    1
    37   124   127    1
    38   116   119    1
    39    24    25    1
    40   123   129    1
    41   119   120    1
    42   133   132    2
    43   127   128    1
    44   120   121    1
    45   120   122    1
    46   130   131    1
    47   103   102    2
    48   102   101    1
    49   129   128    1
    50   132   131    1
    51   131   134    1
    52    95    94    1
    53   134   135    1
    54    26    27    1
    55   101   104    1
    56   101   100    1
    57    30    27    1
    58    30    31    1
    59   104   106    1
    60   104   105    1
    61    29    28    2
    62    96    97    1
    63   100    98   am
    64    27    28    1
    65    94    93    1
    66   135   136    1
    67    32    31   ar
    68    32    34   ar
    69    31    33   ar
    70   136   137    1
    71    98    99    2
    72    98    97    1
    73    34    36   ar
    74    93    92    1
    75    37    38    1
    76    33    35   ar
    77    83    85   ar
    78    83    81   ar
    79    86    85    1
    80    38    41    1
    81    38    39    1
    82    36    35   ar
    83    85    84   ar
    84    81    80   ar
    85    92    91    1
    86   142   139    1
    87   142   143    1
    88   140   141    2
    89   140   139    1
    90    41    42    1
    91    39    40    2
    92    43    42   ar
    93    42    44   ar
    94    88    91    1
    95    88    87    1
    96    88    89    1
    97   139   138    1
    98    84    82   ar
    99   143   144   ar
   100   143   145   ar
   101    80    82   ar
   102    80    79    1
   103   144   146   ar
   104    90    89    2
   105   159   157    1
   106   156   157    1
   107   156   153    1
   108    79    76    1
   109   152   153    1
   110    78    77    2
   111   145   148   ar
   112   145   147   ar
   113   146   147   ar
   114    76    77    1
   115    76    75    1
   116   148   150   ar
   117   157   158    1
   118   147   149   ar
   119    45    46    1
   120   153   154    1
   121    50    49    1
   122    50    51    1
   123   150   151   ar
   124   149   151   ar
   125    49    46    1
   126    74    73    1
   127   154   155    2
   128    46    47    1
   129    51    52    1
   130    47    48    2
   131    73    70    1
   132    69    70    1
   133    69    64   am
   134    70    71    1
   135    56    55    2
   136    63    64    1
   137    63    66    1
   138    63    62    1
   139    64    65    2
   140    71    72    2
   141    61    59   am
   142    66    67    1
   143    55    62   am
   144    55    54    1
   145    62    68    1
   146    60    59    2
   147    53    54    1
   148    59    58    1
   149    57    54    1
   150    57    58    1
   151    67    68    1
