@<TRIPOS>MOLECULE
tmp/3jqcD01.pdb
 119 112 0 0 0
SMALL
GASTEIGER

@<TRIPOS>ATOM
      1  N        -30.9690   -9.3420   34.0670 N.3    13  ARG13      -0.1245
      2  CA       -29.5410   -9.3920   33.7820 C.3    13  ARG13       0.1563
      3  C        -28.8220   -8.0720   34.1100 C.2    13  ARG13       0.2260
      4  O        -28.9950   -7.5460   35.2180 O.2    13  ARG13      -0.2867
      5  CB       -29.3280   -9.9050   32.3400 C.3    13  ARG13       0.0307
      6  CG       -29.8440  -11.3610   32.1490 C.3    13  ARG13       0.0489
      7  CD       -30.1490  -11.7300   30.6950 C.3    13  ARG13       0.2205
      8  NE       -28.9950  -11.5270   29.8120 N.pl3  13  ARG13      -0.0865
      9  CZ       -28.0710  -12.4460   29.5420 C.cat  13  ARG13       0.5346
     10  NH1      -28.1500  -13.6680   30.0670 N.pl3  13  ARG13       0.1354
     11  NH2      -27.0670  -12.1480   28.7310 N.pl3  13  ARG13       0.1354
     12  N        -29.1160    0.5910   27.9030 N.3    92  ASN92      -0.1240
     13  CA       -28.7640   -0.8150   28.1350 C.3    92  ASN92       0.1653
     14  C        -29.4580   -1.7780   27.1750 C.2    92  ASN92       0.2266
     15  O        -28.8540   -2.7680   26.7450 O.2    92  ASN92      -0.2867
     16  CB       -29.0760   -1.2140   29.5920 C.3    92  ASN92       0.1155
     17  CG       -28.9060   -2.7120   29.8520 C.2    92  ASN92       0.2627
     18  OD1      -27.8040   -3.1810   30.1280 O.2    92  ASN92      -0.2716
     19  ND2      -30.0030   -3.4650   29.7710 N.am   92  ASN92      -0.0877
     20  N        -30.8770   -3.9210   24.2590 N.3    94  SER94      -0.1217
     21  CA       -30.0960   -4.3120   23.0850 C.3    94  SER94       0.1889
     22  C        -30.5560   -5.6400   22.4790 C.2    94  SER94       0.2288
     23  O        -30.7090   -6.6290   23.1880 O.2    94  SER94      -0.2866
     24  CB       -28.6070   -4.3920   23.4650 C.3    94  SER94       0.2089
     25  OG       -27.8470   -5.1470   22.5370 O.3    94  SER94      -0.2183
     26  N        -29.4790   -8.7450   20.1220 N.3    96  PHE96      -0.1241
     27  CA       -28.2130   -9.4240   19.8940 C.3    96  PHE96       0.1605
     28  C        -28.4840  -10.7900   19.2750 C.2    96  PHE96       0.2264
     29  O        -28.9780  -11.7010   19.9400 O.2    96  PHE96      -0.2867
     30  CB       -27.4370   -9.5400   21.2190 C.3    96  PHE96       0.0534
     31  CG       -26.1930  -10.4000   21.1500 C.ar   96  PHE96      -0.0203
     32  CD1      -26.1870  -11.6810   21.7090 C.ar   96  PHE96      -0.0042
     33  CD2      -25.0250   -9.9250   20.5540 C.ar   96  PHE96      -0.0042
     34  CE1      -25.0360  -12.4850   21.6640 C.ar   96  PHE96      -0.0003
     35  CE2      -23.8690  -10.7160   20.5040 C.ar   96  PHE96      -0.0003
     36  CZ       -23.8770  -12.0050   21.0620 C.ar   96  PHE96      -0.0000
     37  N        -19.4170   -2.3810   23.9470 N.3   142  ASP142     -0.1239
     38  CA       -18.9230   -3.7590   23.7770 C.3   142  ASP142      0.1674
     39  C        -17.4110   -3.7100   23.5590 C.2   142  ASP142      0.2266
     40  O        -16.9390   -3.1000   22.6000 O.2   142  ASP142     -0.2867
     41  CB       -19.6340   -4.4240   22.5910 C.3   142  ASP142      0.1410
     42  CG       -19.3380   -5.9210   22.4710 C.2   142  ASP142      0.3668
     43  OD1      -18.2640   -6.3850   22.9160 O.co2 142  ASP142     -0.2456
     44  OD2      -20.1880   -6.6440   21.9110 O.co2 142  ASP142     -0.2456
     45  N        -17.7250  -10.9440   16.8950 N.3   149  CYS149     -0.1235
     46  CA       -18.1980  -12.3130   16.6830 C.3   149  CYS149      0.1677
     47  C        -18.5560  -12.4940   15.2120 C.2   149  CYS149      0.2270
     48  O        -19.1020  -11.5850   14.5740 O.2   149  CYS149     -0.2867
     49  CB       -19.4020  -12.6390   17.5670 C.3   149  CYS149      0.0956
     50  SG       -19.1210  -12.4270   19.3490 S.3   149  CYS149     -0.0801
     51  N        -25.2520   -6.1070   14.5290 N.3   155  TYR155     -0.1241
     52  CA       -24.9840   -5.8740   15.9410 C.3   155  TYR155      0.1605
     53  C        -23.6970   -5.0470   16.1430 C.2   155  TYR155      0.2264
     54  O        -23.6940   -4.0640   16.8870 O.2   155  TYR155     -0.2867
     55  CB       -24.9190   -7.1930   16.7110 C.3   155  TYR155      0.0534
     56  CG       -24.3620   -7.0200   18.0980 C.ar  155  TYR155     -0.0201
     57  CD1      -25.1720   -6.5680   19.1390 C.ar  155  TYR155     -0.0009
     58  CD2      -23.0090   -7.2710   18.3650 C.ar  155  TYR155     -0.0009
     59  CE1      -24.6540   -6.3870   20.4260 C.ar  155  TYR155      0.0417
     60  CE2      -22.4800   -7.0950   19.6460 C.ar  155  TYR155      0.0417
     61  CZ       -23.3070   -6.6430   20.6660 C.ar  155  TYR155      0.1957
     62  OH       -22.7950   -6.4700   21.9260 O.3   155  TYR155     -0.2866
     63  N        -23.1380   -1.2900   17.7520 N.3   159  LYS159     -0.1245
     64  CA       -22.2510   -0.9640   18.8800 C.3   159  LYS159      0.1561
     65  C        -21.1690    0.0490   18.5110 C.2   159  LYS159      0.2260
     66  O        -20.7920    0.8800   19.3250 O.2   159  LYS159     -0.2867
     67  CB       -21.6410   -2.2170   19.4890 C.3   159  LYS159      0.0271
     68  CG       -22.6590   -3.0760   20.2110 C.3   159  LYS159      0.0035
     69  CD       -23.4420   -2.3050   21.2840 C.3   159  LYS159      0.0206
     70  CE       -24.1740   -3.2910   22.1740 C.3   159  LYS159      0.1093
     71  NZ       -25.0430   -2.6910   23.2180 N.3   159  LYS159     -0.1314
     72  N        -16.8880   -7.3790   28.0680 N.3   186  GLY186     -0.1210
     73  CA       -16.3940   -8.3720   27.1280 C.3   186  GLY186      0.1956
     74  C        -17.4540   -9.4440   27.1370 C.2   186  GLY186      0.2612
     75  O        -18.4020   -9.3980   26.3600 O.2   186  GLY186     -0.2717
     76  N        -17.3080  -10.3950   28.0500 N.am  187  VAL187     -0.1965
     77  CA       -18.3370  -11.3880   28.2790 C.3   187  VAL187      0.1727
     78  C        -18.8010  -11.2060   29.7240 C.2   187  VAL187      0.2617
     79  O        -17.9930  -11.1880   30.6580 O.2   187  VAL187     -0.2715
     80  CB       -17.8040  -12.8120   27.9850 C.3   187  VAL187      0.0290
     81  CG1      -18.8230  -13.8620   28.3510 C.3   187  VAL187      0.0023
     82  CG2      -17.4480  -12.9540   26.5120 C.3   187  VAL187      0.0023
     83  N        -20.1050  -11.0230   29.8930 N.am  188  SER188     -0.1936
     84  CA       -20.7360  -10.9460   31.2050 C.3   188  SER188      0.2055
     85  C        -21.7590  -12.0740   31.2390 C.2   188  SER188      0.2643
     86  O        -21.4600  -13.1870   30.7930 O.2   188  SER188     -0.2714
     87  CB       -21.4000   -9.5810   31.4240 C.3   188  SER188      0.2130
     88  OG       -22.0830   -9.5300   32.6770 O.3   188  SER188     -0.2179
     89  N        -22.9610  -11.7950   31.7430 N.am  189  LEU189     -0.1963
     90  CA       -24.0260  -12.8010   31.7340 C.3   189  LEU189      0.1728
     91  C        -24.2340  -13.3370   30.3130 C.2   189  LEU189      0.2616
     92  O        -24.6950  -12.6130   29.4200 O.2   189  LEU189     -0.2715
     93  CB       -25.3230  -12.2510   32.3460 C.3   189  LEU189      0.0311
     94  CG       -25.2890  -11.9490   33.8540 C.3   189  LEU189      0.0022
     95  CD1      -26.6980  -11.7020   34.3940 C.3   189  LEU189      0.0001
     96  CD2      -24.6020  -13.0650   34.6570 C.3   189  LEU189      0.0001
     97  N        -23.8510  -14.5980   30.1110 N.am  190  LEU190     -0.1964
     98  CA       -23.8980  -15.2310   28.7980 C.3   190  LEU190      0.1713
     99  C        -25.3400  -15.5150   28.4160 C.2   190  LEU190      0.2458
    100  O        -26.1820  -15.6970   29.3000 O.2   190  LEU190     -0.2730
    101  CB       -23.0510  -16.5120   28.7970 C.3   190  LEU190      0.0310
    102  CG       -21.5340  -16.3040   28.6720 C.3   190  LEU190      0.0022
    103  CD1      -20.7590  -17.4060   29.3780 C.3   190  LEU190      0.0001
    104  CD2      -21.0990  -16.1790   27.2110 C.3   190  LEU190      0.0001
    105  N        -25.6410  -15.5450   27.1010 N.am  191  PRO191     -0.2727
    106  CA       -27.0250  -15.7270   26.6660 C.3   191  PRO191      0.1402
    107  C        -27.6750  -16.9780   27.2840 C.2   191  PRO191      0.2269
    108  O        -27.0110  -17.9990   27.4980 O.2   191  PRO191     -0.2865
    109  CB       -26.8990  -15.8610   25.1450 C.3   191  PRO191      0.0296
    110  CG       -25.6410  -15.1550   24.8080 C.3   191  PRO191      0.0237
    111  CD       -24.7190  -15.4290   25.9540 C.3   191  PRO191      0.0939
    112  N        -27.5430  -20.1240   25.1730 N.3   194  MET194     -0.1245
    113  CA       -26.2240  -20.7420   25.0160 C.3   194  MET194      0.1570
    114  C        -26.0570  -21.9620   25.9180 C.2   194  MET194      0.2261
    115  O        -26.3550  -21.9070   27.1120 O.2   194  MET194     -0.2867
    116  CB       -25.1020  -19.7260   25.2700 C.3   194  MET194      0.0387
    117  CG       -23.7260  -20.1880   24.7890 C.3   194  MET194      0.0595
    118  SD       -22.4060  -19.0050   25.1200 S.3   194  MET194     -0.1393
    119  CE       -22.6130  -17.8630   23.7480 C.3   194  MET194      0.0692
@<TRIPOS>BOND
     1    51    52    1
     2    48    47    2
     3    47    46    1
     4    52    53    1
     5    52    55    1
     6    53    54    2
     7    46    45    1
     8    46    49    1
     9    55    56    1
    10    49    50    1
    11    63    64    1
    12    56    58   ar
    13    56    57   ar
    14    58    60   ar
    15    65    64    1
    16    65    66    2
    17    64    67    1
    18    57    59   ar
    19    28    27    1
    20    28    29    2
    21    67    68    1
    22    60    61   ar
    23    27    26    1
    24    27    30    1
    25    68    69    1
    26    59    61   ar
    27    35    33   ar
    28    35    36   ar
    29    33    31   ar
    30    61    62    1
    31    36    34   ar
    32    31    30    1
    33    31    32   ar
    34    69    70    1
    35    34    32   ar
    36    44    42   ar
    37    70    71    1
    38    42    41    1
    39    42    43   ar
    40    22    21    1
    41    22    23    2
    42    25    24    1
    43    41    38    1
    44    40    39    2
    45    21    24    1
    46    21    20    1
    47    39    38    1
    48   119   118    1
    49    38    37    1
    50   117   118    1
    51   117   116    1
    52   110   109    1
    53   110   111    1
    54   113   112    1
    55   113   116    1
    56   113   114    1
    57   109   106    1
    58   114   115    2
    59   111   105    1
    60    75    74    2
    61    82    80    1
    62   106   105    1
    63   106   107    1
    64    15    14    2
    65   105    99   am
    66    73    74    1
    67    73    72    1
    68    74    76   am
    69    14    13    1
    70   104   102    1
    71   107   108    2
    72    12    13    1
    73    80    77    1
    74    80    81    1
    75    76    77    1
    76    13    16    1
    77    77    78    1
    78    99    98    1
    79    99   100    2
    80   102   101    1
    81   102   103    1
    82    11     9    1
    83   101    98    1
    84    98    97    1
    85    92    91    2
    86     9     8    2
    87     9    10    1
    88    16    17    1
    89    78    83   am
    90    78    79    2
    91    19    17   am
    92     8     7    1
    93    17    18    2
    94    83    84    1
    95    97    91   am
    96    91    90    1
    97     7     6    1
    98    86    85    2
    99    84    85    1
   100    84    87    1
   101    85    89   am
   102    87    88    1
   103    90    89    1
   104    90    93    1
   105     6     5    1
   106     5     2    1
   107    93    94    1
   108     2     1    1
   109     2     3    1
   110    94    95    1
   111    94    96    1
   112     3     4    2
