@<TRIPOS>MOLECULE
tmp/3jqdB01.pdb
 143 138 0 0 0
SMALL
GASTEIGER

@<TRIPOS>ATOM
      1  N         -0.2750  -12.1080   45.1760 N.3    13  ARG13      -0.1245
      2  CA         0.6910  -12.1720   44.0820 C.3    13  ARG13       0.1563
      3  C          1.5320  -10.8970   43.8890 C.2    13  ARG13       0.2260
      4  O          2.0840  -10.3860   44.8670 O.2    13  ARG13      -0.2867
      5  CB        -0.0430  -12.6340   42.8050 C.3    13  ARG13       0.0307
      6  CG        -0.6230  -14.0470   42.9230 C.3    13  ARG13       0.0489
      7  CD        -1.7960  -14.2990   41.9670 C.3    13  ARG13       0.2205
      8  NE        -1.4110  -14.1910   40.5610 N.pl3  13  ARG13      -0.0865
      9  CZ        -0.8100  -15.1470   39.8570 C.cat  13  ARG13       0.5346
     10  NH1       -0.4800  -16.3080   40.4150 N.pl3  13  ARG13       0.1354
     11  NH2       -0.5220  -14.9310   38.5790 N.pl3  13  ARG13       0.1354
     12  N         -5.7970   -6.4230   37.3170 N.3    94  SER94      -0.1217
     13  CA        -5.9340   -6.8220   35.9260 C.3    94  SER94       0.1889
     14  C         -6.7770   -8.0760   35.7490 C.2    94  SER94       0.2288
     15  O         -6.6240   -9.0500   36.4840 O.2    94  SER94      -0.2866
     16  CB        -4.5330   -7.0450   35.3310 C.3    94  SER94       0.2089
     17  OG        -4.5870   -7.5740   34.0170 O.3    94  SER94      -0.2183
     18  N         -7.5150  -11.1540   33.0950 N.3    96  PHE96      -0.1241
     19  CA        -6.6640  -11.8750   32.1560 C.3    96  PHE96       0.1605
     20  C         -7.2780  -13.2260   31.8180 C.2    96  PHE96       0.2264
     21  O         -7.1910  -14.1830   32.5950 O.2    96  PHE96      -0.2867
     22  CB        -5.2560  -12.0330   32.7510 C.3    96  PHE96       0.0534
     23  CG        -4.3310  -12.9210   31.9490 C.ar   96  PHE96      -0.0203
     24  CD1       -3.9860  -14.1830   32.4140 C.ar   96  PHE96      -0.0042
     25  CD2       -3.7710  -12.4820   30.7540 C.ar   96  PHE96      -0.0042
     26  CE1       -3.1260  -14.9980   31.6930 C.ar   96  PHE96      -0.0003
     27  CE2       -2.9020  -13.2920   30.0260 C.ar   96  PHE96      -0.0003
     28  CZ        -2.5820  -14.5540   30.4940 C.ar   96  PHE96      -0.0000
     29  N          3.0760   -5.1900   30.0260 N.3   141  ASP141     -0.1239
     30  CA         3.3480   -6.5520   29.5630 C.3   141  ASP141      0.1674
     31  C          4.4740   -6.4880   28.5420 C.2   141  ASP141      0.2266
     32  O          4.3480   -5.8180   27.5110 O.2   141  ASP141     -0.2867
     33  CB         2.0950   -7.1560   28.9220 C.3   141  ASP141      0.1410
     34  CG         2.1840   -8.6630   28.7440 C.2   141  ASP141      0.3668
     35  OD1        3.2850   -9.1950   28.4740 O.co2 141  ASP141     -0.2456
     36  OD2        1.1340   -9.3250   28.8680 O.co2 141  ASP141     -0.2456
     37  N          5.4670   -8.7660   26.6010 N.3   143  MET143     -0.1245
     38  CA         5.1130   -9.5580   25.4230 C.3   143  MET143      0.1570
     39  C          3.9680   -8.9700   24.6080 C.2   143  MET143      0.2261
     40  O          3.3720   -9.6630   23.7750 O.2   143  MET143     -0.2867
     41  CB         4.7240  -10.9700   25.8660 C.3   143  MET143      0.0387
     42  CG         5.7930  -11.6670   26.6650 C.3   143  MET143      0.0595
     43  SD         7.2440  -11.9860   25.6540 S.3   143  MET143     -0.1393
     44  CE         6.6920  -13.4520   24.7910 C.3   143  MET143      0.0692
     45  N          4.1860   -9.6670   20.9890 N.3   146  GLN146     -0.1231
     46  CA         4.1970  -11.0980   20.6430 C.3   146  GLN146      0.1683
     47  C          3.1130  -11.7830   21.4790 C.2   146  GLN146      0.2434
     48  O          3.4110  -12.6110   22.3440 O.2   146  GLN146     -0.2733
     49  CB         5.5580  -11.7170   20.9550 C.3   146  GLN146      0.0380
     50  CG         6.7050  -11.1800   20.1260 C.3   146  GLN146      0.0905
     51  CD         7.8560  -10.7100   20.9900 C.2   146  GLN146      0.2608
     52  OE1        7.8100   -9.6160   21.5580 O.2   146  GLN146     -0.2717
     53  NE2        8.9010  -11.5270   21.0870 N.am  146  GLN146     -0.0878
     54  N          1.8430  -11.4350   21.2210 N.am  147  PRO147     -0.2729
     55  CA         0.7520  -11.6980   22.1560 C.3   147  PRO147      0.1401
     56  C          0.3220  -13.1580   22.2200 C.2   147  PRO147      0.2269
     57  O          0.5300  -13.9040   21.2650 O.2   147  PRO147     -0.2865
     58  CB        -0.3890  -10.8570   21.5870 C.3   147  PRO147      0.0296
     59  CG        -0.1400  -10.7960   20.1710 C.3   147  PRO147      0.0237
     60  CD         1.3510  -10.7880   19.9920 C.3   147  PRO147      0.0939
     61  N         -7.4320   -8.6020   26.1090 N.3   153  TYR153     -0.1241
     62  CA        -6.3540   -8.3830   27.0740 C.3   153  TYR153      0.1605
     63  C         -5.2160   -7.5710   26.4530 C.2   153  TYR153      0.2264
     64  O         -4.7550   -6.5740   27.0180 O.2   153  TYR153     -0.2867
     65  CB        -5.8120   -9.7160   27.5830 C.3   153  TYR153      0.0534
     66  CG        -4.5650   -9.5550   28.4000 C.ar  153  TYR153     -0.0201
     67  CD1       -4.6270   -9.0670   29.7010 C.ar  153  TYR153     -0.0009
     68  CD2       -3.3140   -9.8660   27.8720 C.ar  153  TYR153     -0.0009
     69  CE1       -3.4810   -8.9130   30.4580 C.ar  153  TYR153      0.0417
     70  CE2       -2.1570   -9.7040   28.6230 C.ar  153  TYR153      0.0417
     71  CZ        -2.2510   -9.2290   29.9170 C.ar  153  TYR153      0.1957
     72  OH        -1.1120   -9.0560   30.6740 O.3   153  TYR153     -0.2866
     73  N         -3.6510   -3.8170   27.3850 N.3   157  LYS157     -0.1245
     74  CA        -2.2580   -3.5450   27.7620 C.3   157  LYS157      0.1561
     75  C         -1.5760   -2.5470   26.8090 C.2   157  LYS157      0.2260
     76  O         -0.7700   -1.7170   27.2480 O.2   157  LYS157     -0.2867
     77  CB        -1.4520   -4.8430   27.8900 C.3   157  LYS157      0.0271
     78  CG        -1.7970   -5.6630   29.1220 C.3   157  LYS157      0.0035
     79  CD        -1.6530   -4.8850   30.4370 C.3   157  LYS157      0.0206
     80  CE        -1.6530   -5.8350   31.6240 C.3   157  LYS157      0.1093
     81  NZ        -1.8630   -5.1760   32.9570 N.3   157  LYS157     -0.1314
     82  N          7.5580  -10.3740   31.9590 N.3   184  GLY184     -0.1210
     83  CA         7.3890  -11.3580   30.8870 C.3   184  GLY184      0.1956
     84  C          6.5120  -12.4430   31.4560 C.2   184  GLY184      0.2612
     85  O          5.2890  -12.3920   31.3320 O.2   184  GLY184     -0.2717
     86  N          7.1380  -13.4140   32.1100 N.am  185  VAL185     -0.1965
     87  CA         6.4220  -14.3210   32.9890 C.3   185  VAL185      0.1727
     88  C          6.9520  -14.1410   34.4040 C.2   185  VAL185      0.2617
     89  O          8.1720  -14.1410   34.6380 O.2   185  VAL185     -0.2715
     90  CB         6.5210  -15.7960   32.5460 C.3   185  VAL185      0.0290
     91  CG1        5.7850  -15.9980   31.2390 C.3   185  VAL185      0.0023
     92  CG2        7.9620  -16.2420   32.4110 C.3   185  VAL185      0.0023
     93  N          6.0170  -13.9360   35.3240 N.am  186  SER186     -0.1936
     94  CA         6.2970  -13.8500   36.7500 C.3   186  SER186      0.2055
     95  C          5.4810  -14.9770   37.3880 C.2   186  SER186      0.2643
     96  O          5.4620  -16.0830   36.8560 O.2   186  SER186     -0.2714
     97  CB         5.9170  -12.4660   37.2860 C.3   186  SER186      0.2130
     98  OG         6.2650  -12.3240   38.6550 O.3   186  SER186     -0.2179
     99  N          4.7960  -14.7150   38.4970 N.am  187  LEU187     -0.1963
    100  CA         3.9190  -15.7230   39.0890 C.3   187  LEU187      0.1728
    101  C          2.9080  -16.1790   38.0450 C.2   187  LEU187      0.2616
    102  O          2.1050  -15.3830   37.5740 O.2   187  LEU187     -0.2715
    103  CB         3.1750  -15.1700   40.3090 C.3   187  LEU187      0.0311
    104  CG         3.9770  -14.6280   41.4920 C.3   187  LEU187      0.0022
    105  CD1        3.0300  -14.2870   42.6360 C.3   187  LEU187      0.0001
    106  CD2        5.0350  -15.6100   41.9500 C.3   187  LEU187      0.0001
    107  N          2.9480  -17.4540   37.6650 N.am  188  LEU188     -0.1964
    108  CA         2.0630  -17.9420   36.6050 C.3   188  LEU188      0.1713
    109  C          0.6380  -18.1210   37.1390 C.2   188  LEU188      0.2458
    110  O          0.4560  -18.3250   38.3410 O.2   188  LEU188     -0.2730
    111  CB         2.6060  -19.2370   35.9990 C.3   188  LEU188      0.0310
    112  CG         3.9200  -19.0800   35.2270 C.3   188  LEU188      0.0022
    113  CD1        4.5560  -20.4280   34.9780 C.3   188  LEU188      0.0001
    114  CD2        3.7180  -18.3260   33.9110 C.3   188  LEU188      0.0001
    115  N         -0.3790  -18.0520   36.2530 N.am  189  PRO189     -0.2727
    116  CA        -1.7630  -18.0420   36.7380 C.3   189  PRO189      0.1402
    117  C         -2.1000  -19.3020   37.5230 C.2   189  PRO189      0.2269
    118  O         -1.6030  -20.3820   37.1920 O.2   189  PRO189     -0.2865
    119  CB        -2.5930  -17.9770   35.4480 C.3   189  PRO189      0.0296
    120  CG        -1.6600  -17.4640   34.4040 C.3   189  PRO189      0.0237
    121  CD        -0.3290  -18.0300   34.7820 C.3   189  PRO189      0.0939
    122  N         -3.4260  -22.3310   35.5290 N.3   192  MET192     -0.1245
    123  CA        -2.5130  -23.0020   34.6000 C.3   192  MET192      0.1570
    124  C         -1.9800  -24.3030   35.1980 C.2   192  MET192      0.2261
    125  O         -1.6420  -24.3560   36.3830 O.2   192  MET192     -0.2867
    126  CB        -1.3460  -22.0780   34.2300 C.3   192  MET192      0.0387
    127  CG        -0.4430  -22.6200   33.1300 C.3   192  MET192      0.0595
    128  SD         0.8670  -21.4800   32.6450 S.3   192  MET192     -0.1393
    129  CE        -0.0820  -20.2450   31.7560 C.3   192  MET192      0.0692
    130  N          6.6520  -22.6050   29.8480 N.3   200  TRP200     -0.1241
    131  CA         6.9780  -21.1660   29.8670 C.3   200  TRP200      0.1605
    132  C          8.3270  -20.8950   30.5380 C.2   200  TRP200      0.2264
    133  O          9.1720  -20.1910   29.9900 O.2   200  TRP200     -0.2867
    134  CB         5.8670  -20.3700   30.5510 C.3   200  TRP200      0.0550
    135  CG         4.7440  -20.0600   29.6140 C.ar  200  TRP200      0.0003
    136  CD1        3.5110  -20.6360   29.5890 C.ar  200  TRP200      0.0946
    137  CD2        4.7720  -19.1200   28.5350 C.ar  200  TRP200      0.0152
    138  NE1        2.7620  -20.1050   28.5660 N.ar  200  TRP200     -0.2442
    139  CE2        3.5150  -19.1730   27.9020 C.ar  200  TRP200      0.0810
    140  CE3        5.7430  -18.2390   28.0390 C.ar  200  TRP200      0.0012
    141  CZ2        3.1940  -18.3670   26.8070 C.ar  200  TRP200      0.0191
    142  CZ3        5.4240  -17.4380   26.9510 C.ar  200  TRP200      0.0001
    143  CH2        4.1600  -17.5130   26.3440 C.ar  200  TRP200      0.0015
@<TRIPOS>BOND
     1    60    59    1
     2    60    54    1
     3    50    49    1
     4    50    51    1
     5    59    58    1
     6    46    49    1
     7    46    45    1
     8    46    47    1
     9    51    53   am
    10    51    52    2
    11    54    47   am
    12    54    55    1
    13    57    56    2
    14    47    48    2
    15    58    55    1
    16    55    56    1
    17    40    39    2
    18    39    38    1
    19    44    43    1
    20    38    41    1
    21    38    37    1
    22    43    42    1
    23    41    42    1
    24    61    62    1
    25   143   141   ar
    26   143   142   ar
    27    63    64    2
    28    63    62    1
    29   141   139   ar
    30    75    76    2
    31    75    74    1
    32   142   140   ar
    33    62    65    1
    34    73    74    1
    35    32    31    2
    36    65    66    1
    37    74    77    1
    38    68    66   ar
    39    68    70   ar
    40    77    78    1
    41   139   137   ar
    42   139   138   ar
    43   140   137   ar
    44    66    67   ar
    45    35    34   ar
    46   137   135   ar
    47    31    30    1
    48   138   136   ar
    49    70    71   ar
    50    34    36   ar
    51    34    33    1
    52    33    30    1
    53    78    79    1
    54    30    29    1
    55   136   135   ar
    56   135   134    1
    57    67    69   ar
    58   130   131    1
    59   131   132    1
    60   131   134    1
    61    71    69   ar
    62    71    72    1
    63   133   132    2
    64    27    28   ar
    65    27    25   ar
    66    79    80    1
    67    28    26   ar
    68    25    23   ar
    69    83    84    1
    70    83    82    1
    71    91    90    1
    72    85    84    2
    73    84    86   am
    74    80    81    1
    75    26    24   ar
    76   129   128    1
    77    20    19    1
    78    20    21    2
    79    23    24   ar
    80    23    22    1
    81    86    87    1
    82    19    22    1
    83    19    18    1
    84    92    90    1
    85    90    87    1
    86   128   127    1
    87    87    88    1
    88   127   126    1
    89   114   112    1
    90    17    16    1
    91   126   123    1
    92   120   121    1
    93   120   119    1
    94    88    89    2
    95    88    93   am
    96   123   124    1
    97   123   122    1
    98   121   115    1
    99   113   112    1
   100   124   125    2
   101   112   111    1
   102    93    94    1
   103    16    13    1
   104   119   116    1
   105    14    13    1
   106    14    15    2
   107    13    12    1
   108   111   108    1
   109   115   116    1
   110   115   109   am
   111   108   109    1
   112   108   107    1
   113   116   117    1
   114    94    97    1
   115    94    95    1
   116    96    95    2
   117   109   110    2
   118   118   117    2
   119    97    98    1
   120    95    99   am
   121   102   101    2
   122   107   101   am
   123   101   100    1
   124    99   100    1
   125    11     9    1
   126   100   103    1
   127     9    10    1
   128     9     8    2
   129   103   104    1
   130     8     7    1
   131   104   106    1
   132   104   105    1
   133     7     6    1
   134     5     6    1
   135     5     2    1
   136     3     2    1
   137     3     4    2
   138     2     1    1
