@<TRIPOS>MOLECULE
tmp/3jqfC03.pdb
 107 104 0 0 0
SMALL
GASTEIGER

@<TRIPOS>ATOM
      1  N          8.3780   15.3850   31.7190 N.3    95  PHE95      -0.1241
      2  CA         7.5900   15.9680   30.6550 C.3    95  PHE95       0.1605
      3  C          8.2470   17.2490   30.1730 C.2    95  PHE95       0.2264
      4  O          8.2680   18.2450   30.8970 O.2    95  PHE95      -0.2867
      5  CB         6.1700   16.2400   31.1810 C.3    95  PHE95       0.0534
      6  CG         5.2510   17.0190   30.2180 C.ar   95  PHE95      -0.0203
      7  CD1        4.9030   18.3490   30.5220 C.ar   95  PHE95      -0.0042
      8  CD2        4.6860   16.4300   29.0660 C.ar   95  PHE95      -0.0042
      9  CE1        4.0410   19.1140   29.6830 C.ar   95  PHE95      -0.0003
     10  CE2        3.8000   17.1810   28.2230 C.ar   95  PHE95      -0.0003
     11  CZ         3.5000   18.5290   28.5410 C.ar   95  PHE95      -0.0000
     12  N         -2.1130    9.2210   29.1570 N.3   140  ASP140     -0.1239
     13  CA        -2.3170   10.5680   28.6610 C.3   140  ASP140      0.1674
     14  C         -3.3480   10.4830   27.5440 C.2   140  ASP140      0.2266
     15  O         -3.1280    9.7490   26.5480 O.2   140  ASP140     -0.2867
     16  CB        -0.9780   11.1620   28.1660 C.3   140  ASP140      0.1410
     17  CG        -1.0860   12.6170   27.7220 C.2   140  ASP140      0.3668
     18  OD1       -2.1660   13.0450   27.2530 O.co2 140  ASP140     -0.2456
     19  OD2       -0.0790   13.3780   27.8710 O.co2 140  ASP140     -0.2456
     20  N         -4.1250   12.5160   25.3570 N.3   142  MET142     -0.1245
     21  CA        -3.7330   13.2040   24.1140 C.3   142  MET142      0.1570
     22  C         -2.6460   12.4860   23.3230 C.2   142  MET142      0.2261
     23  O         -2.0950   13.0880   22.3840 O.2   142  MET142     -0.2867
     24  CB        -3.3380   14.6650   24.4180 C.3   142  MET142      0.0387
     25  CG        -4.5060   15.4480   25.0700 C.3   142  MET142      0.0595
     26  SD        -5.9690   15.5600   24.0230 S.3   142  MET142     -0.1393
     27  CE        -5.3560   16.6850   22.7640 C.3   142  MET142      0.0692
     28  N          1.3830   16.9490   21.8400 N.3   147  CYS147     -0.1235
     29  CA         2.0400   18.2670   21.8470 C.3   147  CYS147      0.1677
     30  C          3.1570   18.2360   20.7910 C.2   147  CYS147      0.2270
     31  O          3.9060   17.2320   20.6520 O.2   147  CYS147     -0.2867
     32  CB         2.6420   18.5170   23.2210 C.3   147  CYS147      0.0956
     33  SG         1.4700   18.4850   24.6140 S.3   147  CYS147     -0.0801
     34  N          8.5090   12.0790   24.9790 N.3   153  TYR153     -0.1241
     35  CA         7.4120   12.0130   25.9570 C.3   153  TYR153      0.1605
     36  C          6.2680   11.1590   25.3790 C.2   153  TYR153      0.2264
     37  O          5.7990   10.1900   26.0200 O.2   153  TYR153     -0.2867
     38  CB         6.9010   13.4390   26.2970 C.3   153  TYR153      0.0534
     39  CG         5.6300   13.3650   27.1020 C.ar  153  TYR153     -0.0201
     40  CD1        5.6580   13.0280   28.4800 C.ar  153  TYR153     -0.0009
     41  CD2        4.3840   13.4920   26.4680 C.ar  153  TYR153     -0.0009
     42  CE1        4.4780   12.8890   29.2130 C.ar  153  TYR153      0.0417
     43  CE2        3.1730   13.3720   27.2070 C.ar  153  TYR153      0.0417
     44  CZ         3.2310   13.0510   28.5700 C.ar  153  TYR153      0.1957
     45  OH         2.0660   12.9040   29.2800 O.3   153  TYR153     -0.2866
     46  N         -6.5270   14.5320   30.4790 N.3   184  GLY184     -0.1210
     47  CA        -6.3550   15.4320   29.3260 C.3   184  GLY184      0.1956
     48  C         -5.5100   16.5960   29.8150 C.2   184  GLY184      0.2612
     49  O         -4.2590   16.5180   29.8400 O.2   184  GLY184     -0.2717
     50  N         -6.1630   17.6830   30.1940 N.am  185  VAL185     -0.1965
     51  CA        -5.4750   18.7020   30.9750 C.3   185  VAL185      0.1727
     52  C         -5.9580   18.6390   32.4210 C.2   185  VAL185      0.2617
     53  O         -7.1550   18.7970   32.7110 O.2   185  VAL185     -0.2715
     54  CB        -5.5780   20.1390   30.3730 C.3   185  VAL185      0.0290
     55  CG1       -5.0960   20.1390   28.9120 C.3   185  VAL185      0.0023
     56  CG2       -6.9990   20.7010   30.4980 C.3   185  VAL185      0.0023
     57  N         -5.0170   18.3540   33.3170 N.am  186  SER186     -0.1936
     58  CA        -5.2600   18.4850   34.7470 C.3   186  SER186      0.2055
     59  C         -4.4270   19.6800   35.2620 C.2   186  SER186      0.2643
     60  O         -4.3340   20.7330   34.5740 O.2   186  SER186     -0.2714
     61  CB        -4.9210   17.2150   35.4990 C.3   186  SER186      0.2130
     62  OG        -5.2860   17.3420   36.8560 O.3   186  SER186     -0.2179
     63  N         -3.8190   19.5570   36.4500 N.am  187  LEU187     -0.1963
     64  CA        -2.9670   20.6630   36.9410 C.3   187  LEU187      0.1728
     65  C         -1.9170   21.0700   35.8870 C.2   187  LEU187      0.2616
     66  O         -1.1020   20.2630   35.4360 O.2   187  LEU187     -0.2715
     67  CB        -2.2740   20.3100   38.2580 C.3   187  LEU187      0.0311
     68  CG        -3.1910   19.8480   39.3920 C.3   187  LEU187      0.0022
     69  CD1       -2.3490   19.5610   40.6400 C.3   187  LEU187      0.0001
     70  CD2       -4.3510   20.8440   39.6550 C.3   187  LEU187      0.0001
     71  N         -1.9310   22.3330   35.4960 N.am  188  LEU188     -0.1964
     72  CA        -1.0370   22.7550   34.4330 C.3   188  LEU188      0.1713
     73  C          0.4110   22.8710   34.9470 C.2   188  LEU188      0.2458
     74  O          0.6350   22.9840   36.1610 O.2   188  LEU188     -0.2730
     75  CB        -1.5770   24.0340   33.7760 C.3   188  LEU188      0.0310
     76  CG        -2.9370   23.7250   33.1060 C.3   188  LEU188      0.0022
     77  CD1       -3.8130   24.9620   32.9050 C.3   188  LEU188      0.0001
     78  CD2       -2.7610   22.9240   31.7940 C.3   188  LEU188      0.0001
     79  N          1.4060   22.8110   34.0220 N.am  189  PRO189     -0.2727
     80  CA         2.7990   22.8950   34.4980 C.3   189  PRO189      0.1402
     81  C          3.0670   24.2090   35.2580 C.2   189  PRO189      0.2269
     82  O          2.5140   25.2650   34.9120 O.2   189  PRO189     -0.2865
     83  CB         3.6210   22.8160   33.1980 C.3   189  PRO189      0.0296
     84  CG         2.7050   22.1070   32.2150 C.3   189  PRO189      0.0237
     85  CD         1.3600   22.7040   32.5430 C.3   189  PRO189      0.0939
     86  N          4.3450   26.9590   33.0240 N.3   192  MET192     -0.1245
     87  CA         3.4570   27.5030   32.0090 C.3   192  MET192      0.1570
     88  C          2.9130   28.8500   32.4490 C.2   192  MET192      0.2261
     89  O          2.4940   29.0250   33.5960 O.2   192  MET192     -0.2867
     90  CB         2.3050   26.5430   31.7100 C.3   192  MET192      0.0387
     91  CG         1.3890   27.0370   30.5990 C.3   192  MET192      0.0595
     92  SD         0.1190   25.8440   30.1480 S.3   192  MET192     -0.1393
     93  CE         1.0560   24.7650   29.0530 C.3   192  MET192      0.0692
     94  N         -5.4830   26.6430   27.1540 N.3   200  TRP200     -0.1241
     95  CA        -5.7760   25.2030   27.3430 C.3   200  TRP200      0.1605
     96  C         -7.1500   24.9880   27.9920 C.2   200  TRP200      0.2264
     97  O         -7.9580   24.2040   27.4990 O.2   200  TRP200     -0.2867
     98  CB        -4.6380   24.4870   28.0940 C.3   200  TRP200      0.0550
     99  CG        -3.5220   24.1370   27.1530 C.ar  200  TRP200      0.0003
    100  CD1       -2.3360   24.7940   27.0120 C.ar  200  TRP200      0.0946
    101  CD2       -3.5240   23.0840   26.1630 C.ar  200  TRP200      0.0152
    102  NE1       -1.5880   24.2190   26.0010 N.ar  200  TRP200     -0.2442
    103  CE2       -2.2810   23.1480   25.4840 C.ar  200  TRP200      0.0810
    104  CE3       -4.4520   22.1060   25.7880 C.ar  200  TRP200      0.0012
    105  CZ2       -1.9410   22.2680   24.4410 C.ar  200  TRP200      0.0191
    106  CZ3       -4.0930   21.1800   24.7570 C.ar  200  TRP200      0.0001
    107  CH2       -2.8450   21.2830   24.1100 C.ar  200  TRP200      0.0015
@<TRIPOS>BOND
     1    31    30    2
     2    30    29    1
     3    28    29    1
     4    29    32    1
     5    23    22    2
     6    27    26    1
     7    32    33    1
     8    22    21    1
     9    26    25    1
    10   107   105   ar
    11   107   106   ar
    12    21    24    1
    13    21    20    1
    14    24    25    1
    15   105   103   ar
    16   106   104   ar
    17    34    35    1
    18    36    35    1
    19    36    37    2
    20   103   102   ar
    21   103   101   ar
    22   104   101   ar
    23    35    38    1
    24   102   100   ar
    25   101    99   ar
    26    38    39    1
    27    41    39   ar
    28    41    43   ar
    29    15    14    2
    30   100    99   ar
    31    39    40   ar
    32    99    98    1
    33    94    95    1
    34    43    44   ar
    35    18    17   ar
    36    95    96    1
    37    95    98    1
    38    97    96    2
    39    14    13    1
    40    17    19   ar
    41    17    16    1
    42    16    13    1
    43    10    11   ar
    44    10     8   ar
    45    40    42   ar
    46    11     9   ar
    47    44    42   ar
    48    44    45    1
    49    13    12    1
    50    55    54    1
    51    93    92    1
    52     8     6   ar
    53    47    48    1
    54    47    46    1
    55     9     7   ar
    56    48    49    2
    57    48    50   am
    58    92    91    1
    59     3     2    1
    60     3     4    2
    61    50    51    1
    62     6     7   ar
    63     6     5    1
    64    54    56    1
    65    54    51    1
    66    91    90    1
    67     2     5    1
    68     2     1    1
    69    51    52    1
    70    90    87    1
    71    78    76    1
    72    87    88    1
    73    87    86    1
    74    84    85    1
    75    84    83    1
    76    52    53    2
    77    52    57   am
    78    88    89    2
    79    85    79    1
    80    77    76    1
    81    76    75    1
    82    83    80    1
    83    57    58    1
    84    75    72    1
    85    79    80    1
    86    79    73   am
    87    72    73    1
    88    72    71    1
    89    80    81    1
    90    60    59    2
    91    58    59    1
    92    58    61    1
    93    82    81    2
    94    73    74    2
    95    59    63   am
    96    66    65    2
    97    71    65   am
    98    61    62    1
    99    65    64    1
   100    63    64    1
   101    64    67    1
   102    67    68    1
   103    68    70    1
   104    68    69    1
