@<TRIPOS>MOLECULE
tmp/3jqgB01.pdb
 121 116 0 0 0
SMALL
GASTEIGER

@<TRIPOS>ATOM
      1  N        -17.1780   15.1030   -7.7970 N.3    13  ARG13      -0.1245
      2  CA       -16.2000   15.2130   -6.7010 C.3    13  ARG13       0.1563
      3  C        -15.3380   13.9560   -6.4410 C.2    13  ARG13       0.2260
      4  O        -14.6510   13.4660   -7.3480 O.2    13  ARG13      -0.2867
      5  CB       -16.9210   15.7340   -5.4520 C.3    13  ARG13       0.0307
      6  CG       -17.4230   17.1760   -5.6270 C.3    13  ARG13       0.0489
      7  CD       -18.5320   17.5230   -4.6590 C.3    13  ARG13       0.2205
      8  NE       -18.1190   17.2660   -3.2770 N.pl3  13  ARG13      -0.0865
      9  CZ       -17.5320   18.1570   -2.4860 C.cat  13  ARG13       0.5346
     10  NH1      -17.2800   19.3970   -2.9260 N.pl3  13  ARG13       0.1354
     11  NH2      -17.2030   17.8100   -1.2450 N.pl3  13  ARG13       0.1354
     12  N        -22.6720    9.4700    0.1560 N.3    94  SER94      -0.1217
     13  CA       -22.7870    9.9230    1.5360 C.3    94  SER94       0.1889
     14  C        -23.6710   11.1330    1.7170 C.2    94  SER94       0.2288
     15  O        -23.4250   12.1790    1.1120 O.2    94  SER94      -0.2866
     16  CB       -21.3720   10.2130    2.1060 C.3    94  SER94       0.2089
     17  OG       -21.4220   10.7010    3.4440 O.3    94  SER94      -0.2183
     18  N        -24.5200   14.1810    4.2440 N.3    96  PHE96      -0.1241
     19  CA       -23.7350   14.8560    5.2530 C.3    96  PHE96       0.1605
     20  C        -24.3320   16.1970    5.5990 C.2    96  PHE96       0.2264
     21  O        -24.3740   17.1180    4.7780 O.2    96  PHE96      -0.2867
     22  CB       -22.2650   15.0020    4.7710 C.3    96  PHE96       0.0534
     23  CG       -21.4290   15.9680    5.5710 C.ar   96  PHE96      -0.0203
     24  CD1      -21.3390   17.3110    5.1850 C.ar   96  PHE96      -0.0042
     25  CD2      -20.6810   15.5390    6.6720 C.ar   96  PHE96      -0.0042
     26  CE1      -20.5360   18.1960    5.9010 C.ar   96  PHE96      -0.0003
     27  CE2      -19.8680   16.4040    7.3740 C.ar   96  PHE96      -0.0003
     28  CZ       -19.8030   17.7660    6.9950 C.ar   96  PHE96      -0.0000
     29  N        -13.9600    8.1840    7.3450 N.3   141  ASP141     -0.1239
     30  CA       -13.7090    9.5950    7.7740 C.3   141  ASP141      0.1674
     31  C        -12.6060    9.5540    8.8350 C.2   141  ASP141      0.2266
     32  O        -12.7590    8.9080    9.8880 O.2   141  ASP141     -0.2867
     33  CB       -14.9910   10.2210    8.3460 C.3   141  ASP141      0.1410
     34  CG       -14.8840   11.7700    8.5340 C.2   141  ASP141      0.3668
     35  OD1      -13.7690   12.3400    8.6980 O.co2 141  ASP141     -0.2456
     36  OD2      -15.9510   12.4190    8.5340 O.co2 141  ASP141     -0.2456
     37  N        -17.0970   16.6770   14.0780 N.3   148  CYS148     -0.1235
     38  CA       -17.6990   18.0000   14.0410 C.3   148  CYS148      0.1677
     39  C        -18.8820   18.0700   14.9960 C.2   148  CYS148      0.2270
     40  O        -19.5920   17.0810   15.2070 O.2   148  CYS148     -0.2867
     41  CB       -18.1270   18.3710   12.6200 C.3   148  CYS148      0.0956
     42  SG       -16.7280   18.7850   11.5650 S.3   148  CYS148     -0.0801
     43  N        -24.5420   11.7140   11.4280 N.3   154  TYR154     -0.1298
     44  CA       -23.4350   11.4550   10.4390 C.3   154  TYR154      0.1290
     45  C        -22.2680   10.5980   11.0190 C.3   154  TYR154      0.2013
     46  O        -21.7940    9.5420   10.4390 O.3   154  TYR154     -0.2188
     47  CB       -22.9100   12.7710    9.8450 C.3   154  TYR154      0.0480
     48  CG       -21.6410   12.5690    9.0430 C.ar  154  TYR154     -0.0204
     49  CD1      -21.6800   12.0170    7.7580 C.ar  154  TYR154     -0.0009
     50  CD2      -20.3930   12.8580    9.6040 C.ar  154  TYR154     -0.0009
     51  CE1      -20.5120   11.7980    7.0520 C.ar  154  TYR154      0.0417
     52  CE2      -19.2130   12.6370    8.8970 C.ar  154  TYR154      0.0417
     53  CZ       -19.2820   12.1170    7.6380 C.ar  154  TYR154      0.1957
     54  OH       -18.1150   11.9400    6.9520 O.3   154  TYR154     -0.2866
     55  N        -20.6750    6.9360   10.0540 N.3   158  LYS158     -0.1245
     56  CA       -19.2570    6.6150    9.7300 C.3   158  LYS158      0.1561
     57  C        -18.6180    5.5520   10.6510 C.2   158  LYS158      0.2260
     58  O        -17.8600    4.6780   10.1980 O.2   158  LYS158     -0.2867
     59  CB       -18.4410    7.9010    9.6600 C.3   158  LYS158      0.0271
     60  CG       -18.7940    8.7440    8.4510 C.3   158  LYS158      0.0035
     61  CD       -18.6380    7.9330    7.1430 C.3   158  LYS158      0.0206
     62  CE       -18.6420    8.8440    5.9320 C.3   158  LYS158      0.1093
     63  NZ       -18.6330    8.1970    4.5760 N.3   158  LYS158     -0.1314
     64  N         -9.7210   16.3510    5.6350 N.3   186  VAL186     -0.1231
     65  CA       -10.3090   17.4160    4.8140 C.3   186  VAL186      0.1692
     66  C         -9.9140   17.1720    3.3610 C.2   186  VAL186      0.2593
     67  O         -8.7250   17.1640    3.0160 O.2   186  VAL186     -0.2718
     68  CB        -9.9250   18.8500    5.2550 C.3   186  VAL186      0.0266
     69  CG1      -10.6000   19.8420    4.3530 C.3   186  VAL186      0.0020
     70  CG2      -10.3860   19.1280    6.6740 C.3   186  VAL186      0.0020
     71  N        -10.9110   16.8940    2.5350 N.am  187  SER187     -0.1938
     72  CA       -10.7100   16.7930    1.0990 C.3   187  SER187      0.2055
     73  C        -11.5290   17.9140    0.4070 C.2   187  SER187      0.2643
     74  O        -11.5690   19.0580    0.9000 O.2   187  SER187     -0.2714
     75  CB       -11.0100   15.3620    0.6040 C.3   187  SER187      0.2130
     76  OG       -10.7180   15.1960   -0.7730 O.3   187  SER187     -0.2179
     77  N        -12.1720   17.6130   -0.7170 N.am  188  LEU188     -0.1963
     78  CA       -12.9590   18.6340   -1.4150 C.3   188  LEU188      0.1728
     79  C        -13.9960   19.3000   -0.4990 C.2   188  LEU188      0.2616
     80  O        -14.8590   18.6230    0.0850 O.2   188  LEU188     -0.2715
     81  CB       -13.6450   18.0590   -2.6620 C.3   188  LEU188      0.0311
     82  CG       -12.7660   17.5270   -3.8020 C.3   188  LEU188      0.0022
     83  CD1      -13.6430   17.1870   -4.9790 C.3   188  LEU188      0.0001
     84  CD2      -11.6930   18.5070   -4.2270 C.3   188  LEU188      0.0001
     85  N        -13.8660   20.6140   -0.3660 N.am  189  LEU189     -0.1964
     86  CA       -14.7810   21.4330    0.4060 C.3   189  LEU189      0.1713
     87  C        -15.9810   21.8010   -0.4750 C.2   189  LEU189      0.2458
     88  O        -15.8550   21.8230   -1.7050 O.2   189  LEU189     -0.2730
     89  CB       -14.0460   22.6620    0.9460 C.3   189  LEU189      0.0310
     90  CG       -12.9590   22.2510    1.9580 C.3   189  LEU189      0.0022
     91  CD1      -11.8890   23.3140    2.0990 C.3   189  LEU189      0.0001
     92  CD2      -13.5900   21.8680    3.3170 C.3   189  LEU189      0.0001
     93  N        -17.1550   22.0650    0.1360 N.am  190  PRO190     -0.2727
     94  CA       -18.3150   22.3920   -0.6970 C.3   190  PRO190      0.1402
     95  C        -18.0200   23.6520   -1.5130 C.2   190  PRO190      0.2269
     96  O        -17.3610   24.5670   -0.9920 O.2   190  PRO190     -0.2865
     97  CB       -19.4180   22.6760    0.3270 C.3   190  PRO190      0.0296
     98  CG       -18.9770   22.0370    1.5950 C.3   190  PRO190      0.0237
     99  CD       -17.4800   22.1170    1.5730 C.3   190  PRO190      0.0939
    100  N        -19.0830   27.0180   -0.0110 N.3   193  MET193     -0.1245
    101  CA       -18.4310   27.4720    1.2030 C.3   193  MET193      0.1570
    102  C        -17.4950   28.6410    0.8480 C.2   193  MET193      0.2261
    103  O        -16.7020   28.5340   -0.1000 O.2   193  MET193     -0.2867
    104  CB       -17.6530   26.3410    1.8540 C.3   193  MET193      0.0387
    105  CG       -16.8860   26.7540    3.1020 C.3   193  MET193      0.0595
    106  SD       -16.0790   25.3410    3.8880 S.3   193  MET193     -0.1393
    107  CE       -17.4520   24.5950    4.7720 C.3   193  MET193      0.0692
    108  N        -10.0770   25.5260    7.6680 N.3   201  TRP201     -0.1241
    109  CA        -9.8560   24.0790    7.6550 C.3   201  TRP201      0.1605
    110  C         -8.4900   23.7450    7.0490 C.2   201  TRP201      0.2264
    111  O         -7.7040   23.0670    7.6780 O.2   201  TRP201     -0.2867
    112  CB       -11.0210   23.3810    6.9620 C.3   201  TRP201      0.0550
    113  CG       -12.2190   23.3610    7.8450 C.ar  201  TRP201      0.0003
    114  CD1      -13.2610   24.2350    7.8290 C.ar  201  TRP201      0.0946
    115  CD2      -12.4810   22.4370    8.9120 C.ar  201  TRP201      0.0152
    116  NE1      -14.1680   23.9120    8.8110 N.ar  201  TRP201     -0.2442
    117  CE2      -13.7140   22.8100    9.4900 C.ar  201  TRP201      0.0810
    118  CE3      -11.8020   21.3130    9.4200 C.ar  201  TRP201      0.0012
    119  CZ2      -14.2840   22.1080   10.5590 C.ar  201  TRP201      0.0191
    120  CZ3      -12.3600   20.6170   10.4920 C.ar  201  TRP201      0.0001
    121  CH2      -13.5950   21.0090   11.0450 C.ar  201  TRP201      0.0015
@<TRIPOS>BOND
     1     1     2    1
     2     4     3    2
     3     2     3    1
     4     2     5    1
     5     6     5    1
     6     6     7    1
     7    83    82    1
     8     7     8    1
     9    84    82    1
    10    82    81    1
    11     8     9    2
    12    10     9    1
    13    81    78    1
    14     9    11    1
    15    88    87    2
    16    95    96    2
    17    95    94    1
    18    78    77    1
    19    78    79    1
    20    76    75    1
    21    77    73   am
    22    94    93    1
    23    94    97    1
    24    79    85   am
    25    79    80    2
    26    87    93   am
    27    87    86    1
    28    85    86    1
    29   103   102    2
    30   100   101    1
    31    93    99    1
    32    12    13    1
    33    97    98    1
    34    86    89    1
    35    73    74    2
    36    73    72    1
    37    75    72    1
    38   102   101    1
    39    89    90    1
    40    72    71    1
    41    15    14    2
    42   101   104    1
    43    13    14    1
    44    13    16    1
    45    99    98    1
    46   104   105    1
    47    90    91    1
    48    90    92    1
    49    16    17    1
    50    71    66   am
    51    67    66    2
    52   105   106    1
    53    66    65    1
    54   106   107    1
    55    18    19    1
    56    69    68    1
    57    63    62    1
    58    22    19    1
    59    22    23    1
    60    21    20    2
    61    65    68    1
    62    65    64    1
    63    24    23   ar
    64    24    26   ar
    65    19    20    1
    66    68    70    1
    67    23    25   ar
    68    26    28   ar
    69    62    61    1
    70    25    27   ar
    71    54    53    1
    72   112   109    1
    73   112   113    1
    74    28    27   ar
    75   110   109    1
    76   110   111    2
    77    51    53   ar
    78    51    49   ar
    79    61    60    1
    80    29    30    1
    81    53    52   ar
    82   109   108    1
    83    49    48   ar
    84    30    33    1
    85    30    31    1
    86   114   113   ar
    87   114   116   ar
    88   113   115   ar
    89    33    34    1
    90    60    59    1
    91    34    36   ar
    92    34    35   ar
    93   116   117   ar
    94    31    32    2
    95    52    50   ar
    96   115   118   ar
    97   115   117   ar
    98    48    50   ar
    99    48    47    1
   100   118   120   ar
   101   117   119   ar
   102    59    56    1
   103    56    55    1
   104    56    57    1
   105    47    44    1
   106    58    57    2
   107    46    45    1
   108    44    45    1
   109    44    43    1
   110   120   121   ar
   111   119   121   ar
   112    42    41    1
   113    41    38    1
   114    38    37    1
   115    38    39    1
   116    39    40    2
