@<TRIPOS>MOLECULE
tmp/3jqlA00.pdb
 167 167 0 0 0
SMALL
GASTEIGER

@<TRIPOS>ATOM
      1  N         12.8390    2.4580    9.6060 N.3     2  LEU2       -0.1245
      2  CA        13.1280    3.5100    8.6580 C.3     2  LEU2        0.1561
      3  C         14.5940    3.8540    8.5180 C.2     2  LEU2        0.2260
      4  O         15.1270    4.0230    7.4110 O.2     2  LEU2       -0.2867
      5  CB        12.3170    4.7050    9.0000 C.3     2  LEU2        0.0270
      6  CG        11.2750    5.5440    8.3010 C.3     2  LEU2        0.0019
      7  CD1       11.6830    5.8410    6.8690 C.3     2  LEU2        0.0001
      8  CD2        9.9310    4.8410    8.3180 C.3     2  LEU2        0.0001
      9  N         16.2450    1.2040    6.4670 N.3     5  PHE5       -0.1227
     10  CA        15.9130    1.3870    5.0520 C.3     5  PHE5        0.1736
     11  C         16.7470    2.5220    4.4500 C.2     5  PHE5        0.2595
     12  O         17.3060    2.3740    3.3570 O.2     5  PHE5       -0.2718
     13  CB        14.4160    1.6590    4.8970 C.3     5  PHE5        0.0547
     14  CG        13.9170    1.6970    3.4610 C.ar    5  PHE5       -0.0202
     15  CD1       14.4960    0.9250    2.4460 C.ar    5  PHE5       -0.0042
     16  CD2       12.8110    2.4830    3.1430 C.ar    5  PHE5       -0.0042
     17  CE1       13.9940    0.9680    1.1310 C.ar    5  PHE5       -0.0003
     18  CE2       12.3080    2.5270    1.8450 C.ar    5  PHE5       -0.0003
     19  CZ        12.8940    1.7760    0.8430 C.ar    5  PHE5       -0.0000
     20  N         16.8440    3.6360    5.1780 N.am    6  LYS6       -0.1980
     21  CA        17.7020    4.7550    4.7700 C.3     6  LYS6        0.1596
     22  C         19.1350    4.2730    4.5200 C.2     6  LYS6        0.2287
     23  O         19.7620    4.6390    3.5210 O.2     6  LYS6       -0.2864
     24  CB        17.6630    5.8740    5.8190 C.3     6  LYS6        0.0298
     25  CG        18.6480    7.0130    5.5880 C.3     6  LYS6        0.0038
     26  CD        18.6540    8.0020    6.7450 C.3     6  LYS6        0.0206
     27  CE        19.2770    7.3980    7.9920 C.3     6  LYS6        0.1093
     28  NZ        19.6570    8.4250    9.0000 N.3     6  LYS6       -0.1314
     29  N         19.4660    2.3750    1.3190 N.3     9  ILE9       -0.1245
     30  CA        19.4700    3.3180    0.1940 C.3     9  ILE9        0.1561
     31  C         20.8450    4.0010    0.0400 C.2     9  ILE9        0.2260
     32  O         21.3640    4.1510   -1.0760 O.2     9  ILE9       -0.2867
     33  CB        18.3330    4.3630    0.3330 C.3     9  ILE9        0.0252
     34  CG1       16.9650    3.6680    0.2910 C.3     9  ILE9        0.0019
     35  CG2       18.4160    5.4270   -0.7680 C.3     9  ILE9        0.0019
     36  CD1       15.8560    4.4860    0.8810 C.3     9  ILE9        0.0001
     37  N         20.3390   10.4440    0.2340 N.3    18  TRP18      -0.1241
     38  CA        19.1990    9.5730    0.5180 C.3    18  TRP18       0.1605
     39  C         17.8810   10.3510    0.4490 C.2    18  TRP18       0.2264
     40  O         16.8370    9.7880    0.1130 O.2    18  TRP18      -0.2867
     41  CB        19.3590    8.8920    1.8830 C.3    18  TRP18       0.0550
     42  CG        19.4460    9.8530    3.0300 C.ar   18  TRP18       0.0003
     43  CD1       20.5660   10.4790    3.4950 C.ar   18  TRP18       0.0946
     44  CD2       18.3650   10.3000    3.8580 C.ar   18  TRP18       0.0152
     45  NE1       20.2490   11.2880    4.5610 N.ar   18  TRP18      -0.2442
     46  CE2       18.9040   11.1980    4.8040 C.ar   18  TRP18       0.0810
     47  CE3       16.9880   10.0300    3.8880 C.ar   18  TRP18       0.0012
     48  CZ2       18.1180   11.8270    5.7750 C.ar   18  TRP18       0.0191
     49  CZ3       16.2070   10.6560    4.8550 C.ar   18  TRP18       0.0001
     50  CH2       16.7770   11.5430    5.7840 C.ar   18  TRP18       0.0015
     51  N         15.2140   10.2980   -2.3670 N.3    21  PHE21      -0.1227
     52  CA        14.2170    9.2270   -2.4290 C.3    21  PHE21       0.1736
     53  C         13.0960    9.3790   -1.3990 C.2    21  PHE21       0.2595
     54  O         12.1620    8.5730   -1.3660 O.2    21  PHE21      -0.2718
     55  CB        14.9050    7.8630   -2.2780 C.3    21  PHE21       0.0547
     56  CG        15.8780    7.5620   -3.3810 C.ar   21  PHE21      -0.0202
     57  CD1       15.4260    7.0910   -4.6080 C.ar   21  PHE21      -0.0042
     58  CD2       17.2460    7.7690   -3.2040 C.ar   21  PHE21      -0.0042
     59  CE1       16.3150    6.8240   -5.6470 C.ar   21  PHE21      -0.0003
     60  CE2       18.1440    7.4980   -4.2310 C.ar   21  PHE21      -0.0003
     61  CZ        17.6770    7.0250   -5.4570 C.ar   21  PHE21      -0.0000
     62  N         13.1900   10.4200   -0.5740 N.am   22  ALA22      -0.1980
     63  CA        12.2870   10.6210    0.5580 C.3    22  ALA22       0.1597
     64  C         10.9950   11.3490    0.1880 C.2    22  ALA22       0.2287
     65  O         10.0570   11.3930    0.9860 O.2    22  ALA22      -0.2864
     66  CB        13.0070   11.3600    1.6780 C.3    22  ALA22       0.0319
     67  N          4.4940    7.6850   -4.5650 N.3    27  TYR27      -0.1227
     68  CA         4.7340    6.6260   -3.5760 C.3    27  TYR27       0.1736
     69  C          6.0370    6.6890   -2.7770 C.2    27  TYR27       0.2596
     70  O          6.1180    6.0650   -1.7110 O.2    27  TYR27      -0.2718
     71  CB         4.6230    5.2480   -4.2390 C.3    27  TYR27       0.0548
     72  CG         3.2100    4.8850   -4.6420 C.ar   27  TYR27      -0.0200
     73  CD1        2.7120    5.2380   -5.8970 C.ar   27  TYR27      -0.0009
     74  CD2        2.3580    4.2080   -3.7590 C.ar   27  TYR27      -0.0009
     75  CE1        1.4050    4.9150   -6.2690 C.ar   27  TYR27       0.0417
     76  CE2        1.0490    3.8820   -4.1230 C.ar   27  TYR27       0.0417
     77  CZ         0.5790    4.2380   -5.3750 C.ar   27  TYR27       0.1957
     78  OH        -0.7200    3.9030   -5.7120 O.3    27  TYR27      -0.2866
     79  N          7.0740    7.3260   -3.3070 N.am   28  CYS28      -0.1956
     80  CA         8.3010    7.3370   -2.5410 C.3    28  CYS28       0.1843
     81  C          8.1890    8.4100   -1.5530 C.2    28  CYS28       0.2626
     82  O          8.4470    9.5860   -1.8400 O.2    28  CYS28      -0.2714
     83  CB         9.5240    7.6120   -3.4240 C.3    28  CYS28       0.0997
     84  SG         9.5540    6.5260   -4.8860 S.3    28  CYS28      -0.0797
     85  N          7.7600    7.9880   -0.3710 N.am   29  GLY29      -0.1940
     86  CA         7.6580    8.9890    0.6140 C.3    29  GLY29       0.2014
     87  C          6.3140    8.8720    1.3140 C.2    29  GLY29       0.2638
     88  O          5.7320    7.7830    1.4640 O.2    29  GLY29      -0.2714
     89  N          5.8250   10.0120    1.7920 N.am   30  LYS30      -0.1977
     90  CA         4.5670   10.1200    2.5080 C.3    30  LYS30       0.1596
     91  C          3.3420    9.5460    1.7440 C.2    30  LYS30       0.2287
     92  O          2.4520    8.9030    2.3090 O.2    30  LYS30      -0.2864
     93  CB         4.3630   11.5830    2.8770 C.3    30  LYS30       0.0298
     94  CG         2.9920   11.9760    3.4130 C.3    30  LYS30       0.0038
     95  CD         2.8390   13.4820    3.5290 C.3    30  LYS30       0.0206
     96  CE         1.4110   13.8520    3.8830 C.3    30  LYS30       0.1093
     97  NZ         1.2510   15.3220    4.0690 N.3    30  LYS30      -0.1314
     98  N          8.6740    2.2450   -5.4890 N.3    44  CYS44      -0.1235
     99  CA         8.0900    2.6950   -4.2380 C.3    44  CYS44       0.1677
    100  C          6.6630    2.1920   -4.0130 C.2    44  CYS44       0.2270
    101  O          6.2740    1.9240   -2.8720 O.2    44  CYS44      -0.2867
    102  CB         8.1540    4.2150   -4.1590 C.3    44  CYS44       0.0956
    103  SG         9.8970    4.6840   -4.1000 S.3    44  CYS44      -0.0801
    104  N          6.9540   -1.3460   -2.8200 N.3    47  HIS47      -0.1226
    105  CA         7.4260   -1.2700   -1.4360 C.3    47  HIS47       0.1752
    106  C          6.2920   -0.9290   -0.4560 C.2    47  HIS47       0.2596
    107  O          6.1620   -1.5580    0.6050 O.2    47  HIS47      -0.2718
    108  CB         8.5550   -0.2440   -1.3430 C.3    47  HIS47       0.0759
    109  CG         9.1320   -0.1080    0.0250 C.ar   47  HIS47       0.0818
    110  ND1        8.7530    0.8890    0.8940 N.ar   47  HIS47      -0.2268
    111  CD2       10.0490   -0.8560    0.6820 C.ar   47  HIS47       0.1154
    112  CE1        9.4230    0.7610    2.0250 C.ar   47  HIS47       0.1986
    113  NE2       10.2170   -0.2900    1.9220 N.ar   47  HIS47      -0.2212
    114  N          5.4800    0.0650   -0.8180 N.am   48  ASP48      -0.1974
    115  CA         4.3190    0.4670   -0.0280 C.3    48  ASP48       0.1709
    116  C          3.3550   -0.7080    0.1690 C.2    48  ASP48       0.2293
    117  O          2.8960   -0.9810    1.2810 O.2    48  ASP48      -0.2864
    118  CB         3.6050    1.6750   -0.6460 C.3    48  ASP48       0.1436
    119  CG         4.1110    3.0450   -0.2260 C.2    48  ASP48       0.3671
    120  OD1        5.2630    3.1680    0.2410 O.co2  48  ASP48      -0.2456
    121  OD2        3.3450    4.0220   -0.3770 O.co2  48  ASP48      -0.2456
    122  N          4.8050   -3.2980    2.5490 N.3    51  TYR51      -0.1241
    123  CA         4.6080   -2.8970    3.9380 C.3    51  TYR51       0.1605
    124  C          3.1800   -3.1540    4.4160 C.2    51  TYR51       0.2264
    125  O          2.9820   -3.6390    5.5280 O.2    51  TYR51      -0.2867
    126  CB         4.9400   -1.4190    4.1170 C.3    51  TYR51       0.0534
    127  CG         6.3750   -1.0890    4.4640 C.ar   51  TYR51      -0.0201
    128  CD1        7.4260   -1.9820    4.2260 C.ar   51  TYR51      -0.0009
    129  CD2        6.6830    0.1470    5.0160 C.ar   51  TYR51      -0.0009
    130  CE1        8.7360   -1.6530    4.5590 C.ar   51  TYR51       0.0417
    131  CE2        7.9880    0.4890    5.3460 C.ar   51  TYR51       0.0417
    132  CZ         9.0080   -0.4100    5.1170 C.ar   51  TYR51       0.1957
    133  OH        10.2900   -0.0280    5.4460 O.3    51  TYR51      -0.2866
    134  N          7.7160    0.5050    9.7870 N.3    63  TYR63      -0.1227
    135  CA         8.5430    1.7050    9.9850 C.3    63  TYR63       0.1736
    136  C          9.4420    1.5740   11.2220 C.2    63  TYR63       0.2595
    137  O         10.4410    2.2910   11.3480 O.2    63  TYR63      -0.2718
    138  CB         7.6720    2.9620   10.1600 C.3    63  TYR63       0.0548
    139  CG         6.9600    3.6410    8.9950 C.ar   63  TYR63      -0.0200
    140  CD1        6.4820    4.9480    9.1340 C.ar   63  TYR63      -0.0009
    141  CD2        6.7180    2.9850    7.7850 C.ar   63  TYR63      -0.0009
    142  CE1        5.8100    5.5900    8.0960 C.ar   63  TYR63       0.0417
    143  CE2        6.0460    3.6240    6.7370 C.ar   63  TYR63       0.0417
    144  CZ         5.5960    4.9210    6.9040 C.ar   63  TYR63       0.1957
    145  OH         4.9390    5.5480    5.8660 O.3    63  TYR63      -0.2866
    146  N          9.0590    0.6860   12.1460 N.am   64  PHE64      -0.1976
    147  CA         9.6660    0.6290   13.4850 C.3    64  PHE64       0.1639
    148  C         10.3810   -0.6710   13.8160 C.2    64  PHE64       0.2290
    149  O         11.2190   -0.7010   14.7110 O.2    64  PHE64      -0.2864
    150  CB         8.6240    0.9940   14.5590 C.3    64  PHE64       0.0560
    151  CG         8.0520    2.3650   14.3630 C.ar   64  PHE64      -0.0200
    152  CD1        8.7360    3.4820   14.8210 C.ar   64  PHE64      -0.0042
    153  CD2        6.8670    2.5510   13.6610 C.ar   64  PHE64      -0.0042
    154  CE1        8.2320    4.7520   14.6070 C.ar   64  PHE64      -0.0003
    155  CE2        6.3670    3.8300   13.4400 C.ar   64  PHE64      -0.0003
    156  CZ         7.0590    4.9240   13.9040 C.ar   64  PHE64      -0.0000
    157  N         15.7690    0.8620   -6.6980 N.3   100  PHE100     -0.1241
    158  CA        16.1830    2.2680   -6.8100 C.3   100  PHE100      0.1605
    159  C         17.4740    2.4180   -7.6170 C.2   100  PHE100      0.2264
    160  O         17.6040    3.3520   -8.4170 O.2   100  PHE100     -0.2867
    161  CB        16.4160    2.9220   -5.4400 C.3   100  PHE100      0.0534
    162  CG        15.1850    3.0620   -4.5740 C.ar  100  PHE100     -0.0203
    163  CD1       13.9020    2.7250   -5.0250 C.ar  100  PHE100     -0.0042
    164  CD2       15.3260    3.5860   -3.2970 C.ar  100  PHE100     -0.0042
    165  CE1       12.7990    2.8700   -4.1860 C.ar  100  PHE100     -0.0003
    166  CE2       14.2320    3.7450   -2.4650 C.ar  100  PHE100     -0.0003
    167  CZ        12.9690    3.3870   -2.9090 C.ar  100  PHE100     -0.0000
@<TRIPOS>BOND
     1   160   159    2
     2   159   158    1
     3   158   157    1
     4   158   161    1
     5    75    73   ar
     6    75    77   ar
     7    73    72   ar
     8    78    77    1
     9    59    61   ar
    10    59    57   ar
    11    98    99    1
    12    61    60   ar
    13   161   162    1
    14    77    76   ar
    15   163   162   ar
    16   163   165   ar
    17    84   103    1
    18    84    83    1
    19    72    71    1
    20    72    74   ar
    21    57    56   ar
    22   162   164   ar
    23    67    68    1
    24    71    68    1
    25    99   102    1
    26    99   100    1
    27    60    58   ar
    28   165   167   ar
    29   102   103    1
    30    76    74   ar
    31   100   101    2
    32    68    69    1
    33    83    80    1
    34    56    58   ar
    35    56    55    1
    36    79    69   am
    37    79    80    1
    38   164   166   ar
    39   167   166   ar
    40   104   105    1
    41    69    70    2
    42    80    81    1
    43    52    51    1
    44    52    55    1
    45    52    53    1
    46    82    81    2
    47    81    85   am
    48   105   108    1
    49   105   106    1
    50    53    54    2
    51    53    62   am
    52   108   109    1
    53    32    31    2
    54   114   106   am
    55   114   115    1
    56    35    33    1
    57   118   119    1
    58   118   115    1
    59    62    63    1
    60   106   107    2
    61   121   119   ar
    62    85    86    1
    63   119   120   ar
    64   115   116    1
    65   109   111   ar
    66   109   110   ar
    67    31    30    1
    68    40    39    2
    69   116   117    2
    70    64    63    1
    71    64    65    2
    72    30    33    1
    73    30    29    1
    74    37    38    1
    75    34    33    1
    76    34    36    1
    77    39    38    1
    78    38    41    1
    79    63    66    1
    80    86    87    1
    81   111   113   ar
    82    19    17   ar
    83    19    18   ar
    84   110   112   ar
    85    17    15   ar
    86    87    88    2
    87    87    89   am
    88    91    92    2
    89    91    90    1
    90    89    90    1
    91    18    16   ar
    92    41    42    1
    93   113   112   ar
    94    15    14   ar
    95    90    93    1
    96   122   123    1
    97    93    94    1
    98    42    43   ar
    99    42    44   ar
   100    16    14   ar
   101    12    11    2
   102    94    95    1
   103    14    13    1
   104    43    45   ar
   105    23    22    2
   106    95    96    1
   107    44    47   ar
   108    44    46   ar
   109    96    97    1
   110    47    49   ar
   111   123   126    1
   112   123   124    1
   113   126   127    1
   114   128   127   ar
   115   128   130   ar
   116   124   125    2
   117    11    10    1
   118    11    20   am
   119   127   129   ar
   120    22    21    1
   121   130   132   ar
   122    45    46   ar
   123    21    20    1
   124    21    24    1
   125    46    48   ar
   126    49    50   ar
   127    13    10    1
   128   129   131   ar
   129    10     9    1
   130   132   131   ar
   131   132   133    1
   132    25    24    1
   133    25    26    1
   134    48    50   ar
   135   145   144    1
   136   143   144   ar
   137   143   141   ar
   138    26    27    1
   139     7     6    1
   140   144   142   ar
   141     4     3    2
   142   141   139   ar
   143    27    28    1
   144   142   140   ar
   145     6     8    1
   146     6     5    1
   147     3     2    1
   148     2     5    1
   149     2     1    1
   150   139   140   ar
   151   139   138    1
   152   134   135    1
   153   135   138    1
   154   135   136    1
   155   136   137    2
   156   136   146   am
   157   146   147    1
   158   155   153   ar
   159   155   156   ar
   160   147   148    1
   161   147   150    1
   162   153   151   ar
   163   148   149    2
   164   156   154   ar
   165   151   150    1
   166   151   152   ar
   167   154   152   ar
