@<TRIPOS>MOLECULE
tmp/3jqmE02.pdb
 104 100 0 0 0
SMALL
GASTEIGER

@<TRIPOS>ATOM
      1  N        -21.9530  -34.6460   94.9400 N.3    13  LYS13      -0.1245
      2  CA       -22.5360  -35.9840   94.8860 C.3    13  LYS13       0.1561
      3  C        -21.6440  -36.8450   95.7860 C.2    13  LYS13       0.2260
      4  O        -20.4200  -36.6850   95.7910 O.2    13  LYS13      -0.2867
      5  CB       -22.5140  -36.5390   93.4590 C.3    13  LYS13       0.0271
      6  CG       -23.3730  -35.7800   92.4570 C.3    13  LYS13       0.0035
      7  CD       -23.3620  -36.4830   91.0970 C.3    13  LYS13       0.0206
      8  CE       -24.2740  -35.7860   90.0810 C.3    13  LYS13       0.1093
      9  NZ       -24.3830  -36.5180   88.7730 N.3    13  LYS13      -0.1314
     10  N        -19.1680  -48.0090   92.7380 N.3    18  ARG18      -0.1231
     11  CA       -19.7280  -48.1440   91.4000 C.3    18  ARG18       0.1694
     12  C        -19.1360  -49.3290   90.6530 C.2    18  ARG18       0.2592
     13  O        -18.0240  -49.7720   90.9280 O.2    18  ARG18      -0.2718
     14  CB       -19.4770  -46.8730   90.5920 C.3    18  ARG18       0.0321
     15  CG       -19.9230  -45.5730   91.2530 C.3    18  ARG18       0.0489
     16  CD       -21.4290  -45.4750   91.3490 C.3    18  ARG18       0.2205
     17  NE       -21.8570  -44.2160   91.9590 N.pl3  18  ARG18      -0.0865
     18  CZ       -21.9560  -43.0570   91.3150 C.cat  18  ARG18       0.5346
     19  NH1      -21.6610  -42.9800   90.0280 N.pl3  18  ARG18       0.1354
     20  NH2      -22.3520  -41.9700   91.9610 N.pl3  18  ARG18       0.1354
     21  N        -19.9000  -49.8410   89.7000 N.am   19  THR19      -0.1953
     22  CA       -19.4650  -50.9660   88.8960 C.3    19  THR19       0.1897
     23  C        -20.1440  -50.9060   87.5330 C.2    19  THR19       0.2313
     24  O        -21.1580  -50.2240   87.3620 O.2    19  THR19      -0.2863
     25  CB       -19.8130  -52.2980   89.5730 C.3    19  THR19       0.1794
     26  OG1      -19.4200  -53.3880   88.7250 O.3    19  THR19      -0.2208
     27  CG2      -21.3010  -52.3730   89.8400 C.3    19  THR19       0.0378
     28  N        -17.7810  -40.4330   92.7210 N.3   100  GLU100     -0.1231
     29  CA       -19.0940  -39.8370   92.5190 C.3   100  GLU100      0.1699
     30  C        -19.6130  -40.1210   91.1070 C.2   100  GLU100      0.2593
     31  O        -20.7560  -39.8000   90.7840 O.2   100  GLU100     -0.2718
     32  CB       -19.0210  -38.3200   92.7580 C.3   100  GLU100      0.0402
     33  CG       -18.4770  -37.9060   94.1240 C.3   100  GLU100      0.1161
     34  CD       -17.0020  -38.1940   94.2620 C.2   100  GLU100      0.3649
     35  OE1      -16.6630  -39.2510   94.8420 O.co2 100  GLU100     -0.2457
     36  OE2      -16.2010  -37.3660   93.7730 O.co2 100  GLU100     -0.2457
     37  N        -18.7880  -40.7430   90.2730 N.am  101  THR101     -0.1939
     38  CA       -19.2010  -41.0100   88.9050 C.3   101  THR101      0.2028
     39  C        -19.1400  -42.4810   88.5040 C.2   101  THR101      0.2643
     40  O        -18.3900  -43.2530   89.0780 O.2   101  THR101     -0.2714
     41  CB       -18.3450  -40.1590   87.9240 C.3   101  THR101      0.1808
     42  OG1      -17.6660  -41.0250   87.0060 O.3   101  THR101     -0.2208
     43  CG2      -17.3060  -39.3770   88.6740 C.3   101  THR101      0.0379
     44  N        -19.9480  -42.8580   87.5210 N.am  102  GLY102     -0.1939
     45  CA       -19.9900  -44.2400   87.0910 C.3   102  GLY102      0.2014
     46  C        -18.7910  -44.6740   86.2740 C.2   102  GLY102      0.2639
     47  O        -17.9310  -43.8620   85.9250 O.2   102  GLY102     -0.2714
     48  N        -18.7420  -45.9560   85.9400 N.am  103  VAL103     -0.1963
     49  CA       -17.6330  -46.5050   85.1710 C.3   103  VAL103      0.1727
     50  C        -18.0740  -47.2700   83.9220 C.2   103  VAL103      0.2616
     51  O        -17.3950  -48.2000   83.4890 O.2   103  VAL103     -0.2715
     52  CB       -16.7690  -47.4500   86.0600 C.3   103  VAL103      0.0290
     53  CG1      -15.9700  -46.6300   87.0450 C.3   103  VAL103      0.0023
     54  CG2      -17.6580  -48.4440   86.8070 C.3   103  VAL103      0.0023
     55  N        -19.2030  -46.8730   83.3430 N.am  104  GLU104     -0.1977
     56  CA       -19.7280  -47.5230   82.1410 C.3   104  GLU104      0.1602
     57  C        -18.7910  -47.3280   80.9570 C.2   104  GLU104      0.2287
     58  O        -18.6950  -48.1870   80.0870 O.2   104  GLU104     -0.2864
     59  CB       -21.1150  -46.9650   81.7770 C.3   104  GLU104      0.0415
     60  CG       -22.1050  -46.9350   82.9330 C.3   104  GLU104      0.1163
     61  CD       -22.1100  -45.6090   83.6820 C.2   104  GLU104      0.3649
     62  OE1      -21.0140  -45.0720   83.9630 O.co2 104  GLU104     -0.2457
     63  OE2      -23.2150  -45.1080   83.9990 O.co2 104  GLU104     -0.2457
     64  N        -24.5910  -52.2620   85.4300 N.3   139  LYS139     -0.1231
     65  CA       -23.9280  -51.1850   86.1570 C.3   139  LYS139      0.1693
     66  C        -24.6960  -51.0670   87.4720 C.2   139  LYS139      0.2592
     67  O        -25.8450  -51.4930   87.5630 O.2   139  LYS139     -0.2718
     68  CB       -23.8980  -49.8980   85.3310 C.3   139  LYS139      0.0285
     69  CG       -25.2540  -49.2960   85.0950 C.3   139  LYS139      0.0035
     70  CD       -25.2350  -47.8160   85.4270 C.3   139  LYS139      0.0206
     71  CE       -26.6450  -47.2360   85.4600 C.3   139  LYS139      0.1093
     72  NZ       -26.6480  -45.7470   85.5810 N.3   139  LYS139     -0.1314
     73  N        -24.0630  -50.5050   88.4940 N.am  140  ALA140     -0.1966
     74  CA       -24.7140  -50.3640   89.7880 C.3   140  ALA140      0.1728
     75  C        -24.0350  -49.2780   90.6150 C.2   140  ALA140      0.2617
     76  O        -22.9460  -48.8160   90.2710 O.2   140  ALA140     -0.2715
     77  CB       -24.7670  -51.6770   90.5720 C.3   140  ALA140      0.0334
     78  N        -24.7010  -48.8680   91.6930 N.am  141  GLY141     -0.1940
     79  CA       -24.1750  -47.8320   92.5610 C.3   141  GLY141      0.2014
     80  C        -24.7150  -46.4580   92.2030 C.2   141  GLY141      0.2639
     81  O        -25.3880  -46.2910   91.1840 O.2   141  GLY141     -0.2714
     82  N        -24.4280  -45.4730   93.0480 N.am  142  GLY142     -0.1939
     83  CA       -24.8800  -44.1180   92.7880 C.3   142  GLY142      0.2014
     84  C        -26.3660  -43.8630   92.9680 C.2   142  GLY142      0.2639
     85  O        -26.9380  -44.1560   94.0210 O.2   142  GLY142     -0.2714
     86  N        -26.9920  -43.3110   91.9320 N.am  143  LYS143     -0.1963
     87  CA       -28.4170  -43.0000   91.9770 C.3   143  LYS143      0.1728
     88  C        -29.2630  -43.8600   91.0460 C.2   143  LYS143      0.2617
     89  O        -30.2300  -44.4840   91.4850 O.2   143  LYS143     -0.2715
     90  CB       -28.6340  -41.5150   91.6670 C.3   143  LYS143      0.0311
     91  CG       -28.0210  -40.6030   92.7260 C.3   143  LYS143      0.0038
     92  CD       -28.3220  -39.1310   92.4990 C.3   143  LYS143      0.0206
     93  CE       -27.7670  -38.2970   93.6490 C.3   143  LYS143      0.1093
     94  NZ       -28.0900  -36.8500   93.5250 N.3   143  LYS143     -0.1314
     95  N        -28.8980  -43.8970   89.7680 N.am  144  SER144     -0.1936
     96  CA       -29.6400  -44.6810   88.7840 C.3   144  SER144      0.2055
     97  C        -29.9600  -46.0720   89.3080 C.2   144  SER144      0.2643
     98  O        -31.0180  -46.6250   89.0160 O.2   144  SER144     -0.2714
     99  CB       -28.8320  -44.8140   87.5000 C.3   144  SER144      0.2130
    100  OG       -27.6570  -45.5620   87.7500 O.3   144  SER144     -0.2179
    101  N        -29.0340  -46.6340   90.0790 N.am  145  GLY145     -0.1954
    102  CA       -29.2350  -47.9610   90.6320 C.3   145  GLY145      0.1869
    103  C        -28.8860  -49.0670   89.6530 C.2   145  GLY145      0.2309
    104  O        -28.2840  -48.8140   88.6090 O.2   145  GLY145     -0.2863
@<TRIPOS>BOND
     1    58    57    2
     2    57    56    1
     3    59    56    1
     4    59    60    1
     5    56    55    1
     6    60    61    1
     7    55    50   am
     8    51    50    2
     9    61    62   ar
    10    61    63   ar
    11    50    49    1
    12    69    68    1
    13    69    70    1
    14    49    48    1
    15    49    52    1
    16    68    65    1
    17    70    71    1
    18    64    65    1
    19    71    72    1
    20    47    46    2
    21    48    46   am
    22    52    54    1
    23    52    53    1
    24    65    66    1
    25    46    45    1
    26    42    41    1
    27    45    44    1
    28    24    23    2
    29    66    67    2
    30    66    73   am
    31    99   100    1
    32    99    96    1
    33    44    39   am
    34    23    22    1
    35    41    43    1
    36    41    38    1
    37    73    74    1
    38    39    38    1
    39    39    40    2
    40   104   103    2
    41    26    25    1
    42     9     8    1
    43    96    97    1
    44    96    95    1
    45    22    25    1
    46    22    21    1
    47    38    37    1
    48    98    97    2
    49    97   101   am
    50    25    27    1
    51   103   102    1
    52    21    12   am
    53    95    88   am
    54    74    77    1
    55    74    75    1
    56    19    18    1
    57   101   102    1
    58     8     7    1
    59    76    75    2
    60    37    30   am
    61    14    15    1
    62    14    11    1
    63    75    78   am
    64    12    13    2
    65    12    11    1
    66    31    30    2
    67    88    89    2
    68    88    87    1
    69     7     6    1
    70    30    29    1
    71    81    80    2
    72    15    16    1
    73    18    17    2
    74    18    20    1
    75    16    17    1
    76    11    10    1
    77    90    87    1
    78    90    91    1
    79    78    79    1
    80    86    87    1
    81    86    84   am
    82    80    79    1
    83    80    82   am
    84     6     5    1
    85    92    91    1
    86    92    93    1
    87    29    28    1
    88    29    32    1
    89    32    33    1
    90    83    84    1
    91    83    82    1
    92    84    85    2
    93     5     2    1
    94    94    93    1
    95    36    34   ar
    96    33    34    1
    97    34    35   ar
    98     2     1    1
    99     2     3    1
   100     3     4    2
