@<TRIPOS>MOLECULE
tmp/3jqmE03.pdb
 75 73 0 0 0
SMALL
GASTEIGER

@<TRIPOS>ATOM
      1  N         -9.0260  -49.3560   79.9230 N.3    58  ALA58      -0.1231
      2  CA        -9.8960  -48.9410   81.0090 C.3    58  ALA58       0.1694
      3  C         -9.2660  -47.7810   81.7980 C.2    58  ALA58       0.2592
      4  O         -9.9670  -46.8780   82.2630 O.2    58  ALA58      -0.2718
      5  CB       -10.1560  -50.1160   81.9310 C.3    58  ALA58       0.0304
      6  N         -7.9420  -47.8060   81.9400 N.am   59  LYS59      -0.1966
      7  CA        -7.2320  -46.7660   82.6720 C.3    59  LYS59       0.1728
      8  C         -6.9760  -45.5090   81.8600 C.2    59  LYS59       0.2616
      9  O         -6.6910  -44.4600   82.4230 O.2    59  LYS59      -0.2715
     10  CB        -5.9080  -47.3010   83.1950 C.3    59  LYS59       0.0311
     11  CG        -6.0710  -48.2800   84.3210 C.3    59  LYS59       0.0038
     12  CD        -4.7880  -48.4510   85.1270 C.3    59  LYS59       0.0206
     13  CE        -3.7390  -49.2670   84.3930 C.3    59  LYS59       0.1093
     14  NZ        -2.5610  -49.4780   85.2830 N.3    59  LYS59      -0.1314
     15  N         -7.0880  -45.6060   80.5410 N.am   60  LYS60      -0.1977
     16  CA        -6.8490  -44.4530   79.6770 C.3    60  LYS60       0.1596
     17  C         -8.1430  -43.8230   79.1760 C.2    60  LYS60       0.2287
     18  O         -8.1180  -42.8270   78.4500 O.2    60  LYS60      -0.2864
     19  CB        -5.9780  -44.8680   78.4870 C.3    60  LYS60       0.0298
     20  CG        -4.5530  -45.2670   78.8700 C.3    60  LYS60       0.0038
     21  CD        -3.7670  -45.7320   77.6610 C.3    60  LYS60       0.0206
     22  CE        -2.2580  -45.6780   77.9120 C.3    60  LYS60       0.1093
     23  NZ        -1.7640  -46.7260   78.8560 N.3    60  LYS60      -0.1314
     24  N        -10.5820  -41.8400   80.4210 N.3    62  ALA62      -0.1231
     25  CA       -10.7360  -40.3930   80.5940 C.3    62  ALA62       0.1694
     26  C         -9.8280  -39.6050   79.6530 C.2    62  ALA62       0.2592
     27  O        -10.0300  -38.4120   79.4170 O.2    62  ALA62      -0.2718
     28  CB       -10.4530  -39.9950   82.0440 C.3    62  ALA62       0.0304
     29  N         -8.8260  -40.2740   79.1100 N.am   63  ASP63      -0.1974
     30  CA        -7.9220  -39.6180   78.1880 C.3    63  ASP63       0.1709
     31  C         -8.4430  -39.7000   76.7530 C.2    63  ASP63       0.2293
     32  O         -8.0190  -38.9280   75.8850 O.2    63  ASP63      -0.2864
     33  CB        -6.5370  -40.2540   78.2680 C.3    63  ASP63       0.1436
     34  CG        -5.4540  -39.2280   78.4280 C.2    63  ASP63       0.3671
     35  OD1       -5.5350  -38.4660   79.4110 O.co2  63  ASP63      -0.2456
     36  OD2       -4.5380  -39.1760   77.5790 O.co2  63  ASP63      -0.2456
     37  N        -11.8560  -38.1010   85.4800 N.3    70  PRO70      -0.2102
     38  CA       -10.6510  -38.8600   85.8480 C.3    70  PRO70       0.1504
     39  C        -10.9440  -39.5770   87.1760 C.2    70  PRO70       0.2576
     40  O        -11.2320  -38.9290   88.1780 O.2    70  PRO70      -0.2718
     41  CB        -9.5940  -37.7690   86.0050 C.3    70  PRO70       0.0282
     42  CG       -10.0480  -36.7200   85.0740 C.3    70  PRO70       0.0208
     43  CD       -11.5370  -36.6720   85.3420 C.3    70  PRO70       0.0893
     44  N        -10.8560  -40.8990   87.1980 N.am   71  LEU71      -0.1967
     45  CA       -11.1860  -41.6450   88.4090 C.3    71  LEU71       0.1713
     46  C        -10.1760  -42.6790   88.8540 C.2    71  LEU71       0.2458
     47  O         -9.5070  -43.3110   88.0370 O.2    71  LEU71      -0.2730
     48  CB       -12.4980  -42.4100   88.2120 C.3    71  LEU71       0.0310
     49  CG       -13.7690  -41.7300   87.7250 C.3    71  LEU71       0.0022
     50  CD1      -14.7670  -42.7850   87.3060 C.3    71  LEU71       0.0001
     51  CD2      -14.3320  -40.8590   88.8260 C.3    71  LEU71       0.0001
     52  N        -10.0450  -42.8660   90.1720 N.am   72  PRO72      -0.2716
     53  CA        -9.0910  -43.8900   90.5870 C.3    72  PRO72       0.1536
     54  C         -9.9210  -45.1400   90.3730 C.2    72  PRO72       0.2598
     55  O        -11.1040  -45.1380   90.7030 O.2    72  PRO72      -0.2715
     56  CB        -8.8800  -43.5870   92.0700 C.3    72  PRO72       0.0310
     57  CG       -10.2010  -43.0110   92.4860 C.3    72  PRO72       0.0237
     58  CD       -10.5240  -42.0880   91.3300 C.3    72  PRO72       0.0939
     59  N         -9.3500  -46.1820   89.7880 N.am   73  LEU73      -0.1978
     60  CA       -10.1190  -47.3990   89.5810 C.3    73  LEU73       0.1596
     61  C         -9.7640  -48.3490   90.7060 C.2    73  LEU73       0.2287
     62  O         -8.6210  -48.3760   91.1600 O.2    73  LEU73      -0.2864
     63  CB        -9.7950  -48.0110   88.2190 C.3    73  LEU73       0.0297
     64  CG       -10.2240  -47.1690   87.0070 C.3    73  LEU73       0.0022
     65  CD1       -9.7460  -47.8390   85.7520 C.3    73  LEU73       0.0001
     66  CD2      -11.7410  -47.0030   86.9560 C.3    73  LEU73       0.0001
     67  N        -15.4160  -46.8020   81.2540 N.3   106  GLU106     -0.1245
     68  CA       -14.1890  -47.5460   81.4920 C.3   106  GLU106      0.1567
     69  C        -14.4390  -48.9790   81.0230 C.2   106  GLU106      0.2260
     70  O        -13.5490  -49.6440   80.5010 O.2   106  GLU106     -0.2867
     71  CB       -13.8190  -47.5200   82.9830 C.3   106  GLU106      0.0388
     72  CG       -13.1400  -46.2210   83.5110 C.3   106  GLU106      0.1160
     73  CD       -14.0420  -44.9760   83.5250 C.2   106  GLU106      0.3649
     74  OE1      -15.2820  -45.1010   83.5980 O.co2 106  GLU106     -0.2457
     75  OE2      -13.5050  -43.8530   83.4840 O.co2 106  GLU106     -0.2457
@<TRIPOS>BOND
     1    32    31    2
     2    31    30    1
     3    36    34   ar
     4    21    22    1
     5    21    20    1
     6    22    23    1
     7    30    33    1
     8    30    29    1
     9    33    34    1
    10    34    35   ar
    11    18    17    2
    12    19    20    1
    13    19    16    1
    14    29    26   am
    15    17    16    1
    16    27    26    2
    17    26    25    1
    18    16    15    1
    19     1     2    1
    20    24    25    1
    21    70    69    2
    22    15     8   am
    23    25    28    1
    24     2     3    1
    25     2     5    1
    26    69    68    1
    27    67    68    1
    28    68    71    1
    29     3     6   am
    30     3     4    2
    31     8     9    2
    32     8     7    1
    33     6     7    1
    34     7    10    1
    35    71    72    1
    36    10    11    1
    37    75    73   ar
    38    72    73    1
    39    73    74   ar
    40    11    12    1
    41    13    12    1
    42    13    14    1
    43    42    43    1
    44    42    41    1
    45    43    37    1
    46    37    38    1
    47    65    64    1
    48    38    41    1
    49    38    39    1
    50    66    64    1
    51    64    63    1
    52    39    44   am
    53    39    40    2
    54    44    45    1
    55    50    49    1
    56    49    48    1
    57    49    51    1
    58    47    46    2
    59    48    45    1
    60    63    60    1
    61    45    46    1
    62    46    52   am
    63    60    59    1
    64    60    61    1
    65    59    54   am
    66    52    53    1
    67    52    58    1
    68    54    53    1
    69    54    55    2
    70    53    56    1
    71    61    62    2
    72    58    57    1
    73    56    57    1
