@<TRIPOS>MOLECULE
tmp/3jqmE00.pdb
 94 87 0 0 0
SMALL
GASTEIGER

@<TRIPOS>ATOM
      1  N        -19.0830  -29.6310   78.3590 N.3     6  ARG6       -0.1245
      2  CA       -18.7290  -29.3850   79.7580 C.3     6  ARG6        0.1563
      3  C        -18.6700  -30.6950   80.5430 C.2     6  ARG6        0.2260
      4  O        -19.3870  -31.6500   80.2330 O.2     6  ARG6       -0.2867
      5  CB       -19.7600  -28.4620   80.4240 C.3     6  ARG6        0.0307
      6  CG       -21.0980  -29.1410   80.7440 C.3     6  ARG6        0.0489
      7  CD       -22.1800  -28.1410   81.1550 C.3     6  ARG6        0.2205
      8  NE       -21.8690  -27.4430   82.3990 N.pl3   6  ARG6       -0.0865
      9  CZ       -21.8940  -28.0110   83.6000 C.cat   6  ARG6        0.5346
     10  NH1      -22.2250  -29.2910   83.7210 N.pl3   6  ARG6        0.1354
     11  NH2      -21.5730  -27.3060   84.6800 N.pl3   6  ARG6        0.1354
     12  N        -19.7640  -32.3080   83.5940 N.3     8  VAL8       -0.1245
     13  CA       -20.7690  -32.1490   84.6460 C.3     8  VAL8        0.1561
     14  C        -20.1500  -32.0980   86.0490 C.2     8  VAL8        0.2260
     15  O        -19.3180  -32.9360   86.4080 O.2     8  VAL8       -0.2867
     16  CB       -21.7840  -33.3200   84.5920 C.3     8  VAL8        0.0252
     17  CG1      -22.8160  -33.1800   85.7030 C.3     8  VAL8        0.0019
     18  CG2      -22.4570  -33.3560   83.2310 C.3     8  VAL8        0.0019
     19  N        -19.9000  -32.8360   89.6880 N.3    10  VAL10      -0.1245
     20  CA       -20.3750  -33.8440   90.6320 C.3    10  VAL10       0.1561
     21  C        -19.6670  -33.7140   91.9870 C.2    10  VAL10       0.2260
     22  O        -19.5190  -34.6920   92.7200 O.2    10  VAL10      -0.2867
     23  CB       -20.1260  -35.2520   90.0660 C.3    10  VAL10       0.0252
     24  CG1      -20.7630  -35.3750   88.6910 C.3    10  VAL10       0.0019
     25  CG2      -18.6300  -35.5130   89.9730 C.3    10  VAL10       0.0019
     26  N        -21.9530  -34.6460   94.9400 N.3    13  LYS13      -0.1245
     27  CA       -22.5360  -35.9840   94.8860 C.3    13  LYS13       0.1561
     28  C        -21.6440  -36.8450   95.7860 C.2    13  LYS13       0.2260
     29  O        -20.4200  -36.6850   95.7910 O.2    13  LYS13      -0.2867
     30  CB       -22.5140  -36.5390   93.4590 C.3    13  LYS13       0.0271
     31  CG       -23.3730  -35.7800   92.4570 C.3    13  LYS13       0.0035
     32  CD       -23.3620  -36.4830   91.0970 C.3    13  LYS13       0.0206
     33  CE       -24.2740  -35.7860   90.0810 C.3    13  LYS13       0.1093
     34  NZ       -24.3830  -36.5180   88.7730 N.3    13  LYS13      -0.1314
     35  N        -12.0720  -40.2530   76.1400 N.3    65  ILE65      -0.1245
     36  CA       -13.4310  -39.7350   76.1470 C.3    65  ILE65       0.1561
     37  C        -13.3580  -38.3710   76.7820 C.2    65  ILE65       0.2260
     38  O        -13.1730  -38.2440   77.9870 O.2    65  ILE65      -0.2867
     39  CB       -14.3730  -40.6610   76.9580 C.3    65  ILE65       0.0252
     40  CG1      -14.1520  -42.1200   76.5190 C.3    65  ILE65       0.0019
     41  CG2      -15.8440  -40.2140   76.7760 C.3    65  ILE65       0.0019
     42  CD1      -14.3140  -42.3370   75.0380 C.3    65  ILE65       0.0001
     43  N        -15.3670  -35.6040   77.7820 N.3    67  LEU67      -0.1231
     44  CA       -16.0400  -35.1150   78.9820 C.3    67  LEU67       0.1693
     45  C        -16.1180  -36.1160   80.1310 C.2    67  LEU67       0.2592
     46  O        -16.8450  -35.9170   81.1050 O.2    67  LEU67      -0.2718
     47  CB       -17.4260  -34.6000   78.5960 C.3    67  LEU67       0.0284
     48  CG       -17.3600  -33.7340   77.3240 C.3    67  LEU67       0.0019
     49  CD1      -18.7640  -33.3730   76.8660 C.3    67  LEU67       0.0001
     50  CD2      -16.5200  -32.4820   77.5750 C.3    67  LEU67       0.0001
     51  N        -15.3320  -37.1780   80.0260 N.am   68  CYS68      -0.1956
     52  CA       -15.2780  -38.2220   81.0490 C.3    68  CYS68       0.1843
     53  C        -14.4440  -37.7930   82.2780 C.2    68  CYS68       0.2625
     54  O        -13.4300  -37.1070   82.1490 O.2    68  CYS68      -0.2714
     55  CB       -14.6880  -39.4880   80.4250 C.3    68  CYS68       0.0997
     56  SG       -14.8740  -40.9640   81.3950 S.3    68  CYS68      -0.0797
     57  N        -14.8700  -38.2210   83.4630 N.am   69  HIS69      -0.1973
     58  CA       -14.2020  -37.8800   84.7230 C.3    69  HIS69       0.1656
     59  C        -12.9710  -38.7390   85.0770 C.2    69  HIS69       0.2291
     60  O        -13.0120  -39.9690   84.9990 O.2    69  HIS69      -0.2864
     61  CB       -15.2020  -37.9920   85.8980 C.3    69  HIS69       0.0771
     62  CG       -16.3210  -36.9940   85.8680 C.ar   69  HIS69       0.0820
     63  ND1      -17.3700  -37.0680   84.9750 N.ar   69  HIS69      -0.2267
     64  CD2      -16.5760  -35.9210   86.6570 C.ar   69  HIS69       0.1154
     65  CE1      -18.2230  -36.0880   85.2160 C.ar   69  HIS69       0.1986
     66  NE2      -17.7650  -35.3780   86.2320 N.ar   69  HIS69      -0.2212
     67  N        -18.7880  -40.7430   90.2730 N.3   101  THR101     -0.1203
     68  CA       -19.2010  -41.0100   88.9050 C.3   101  THR101      0.1994
     69  C        -19.1400  -42.4810   88.5040 C.2   101  THR101      0.2618
     70  O        -18.3900  -43.2530   89.0780 O.2   101  THR101     -0.2717
     71  CB       -18.3450  -40.1590   87.9240 C.3   101  THR101      0.1784
     72  OG1      -17.6660  -41.0250   87.0060 O.3   101  THR101     -0.2211
     73  CG2      -17.3060  -39.3770   88.6740 C.3   101  THR101      0.0376
     74  N        -19.9480  -42.8580   87.5210 N.am  102  GLY102     -0.1956
     75  CA       -19.9900  -44.2400   87.0910 C.3   102  GLY102      0.1869
     76  C        -18.7910  -44.6740   86.2740 C.2   102  GLY102      0.2309
     77  O        -17.9310  -43.8620   85.9250 O.2   102  GLY102     -0.2863
     78  N        -19.2030  -46.8730   83.3430 N.3   104  GLU104     -0.1231
     79  CA       -19.7280  -47.5230   82.1410 C.3   104  GLU104      0.1699
     80  C        -18.7910  -47.3280   80.9570 C.2   104  GLU104      0.2592
     81  O        -18.6950  -48.1870   80.0870 O.2   104  GLU104     -0.2718
     82  CB       -21.1150  -46.9650   81.7770 C.3   104  GLU104      0.0402
     83  CG       -22.1050  -46.9350   82.9330 C.3   104  GLU104      0.1161
     84  CD       -22.1100  -45.6090   83.6820 C.2   104  GLU104      0.3649
     85  OE1      -21.0140  -45.0720   83.9630 O.co2 104  GLU104     -0.2457
     86  OE2      -23.2150  -45.1080   83.9990 O.co2 104  GLU104     -0.2457
     87  N        -18.1120  -46.1860   80.9290 N.am  105  MET105     -0.1979
     88  CA       -17.1730  -45.8640   79.8640 C.3   105  MET105      0.1605
     89  C        -15.8700  -46.6410   80.0180 C.2   105  MET105      0.2287
     90  O        -15.2860  -47.0900   79.0340 O.2   105  MET105     -0.2864
     91  CB       -16.8850  -44.3640   79.8540 C.3   105  MET105      0.0413
     92  CG       -18.0520  -43.5120   79.3880 C.3   105  MET105      0.0598
     93  SD       -18.6770  -44.1330   77.8250 S.3   105  MET105     -0.1393
     94  CE       -17.2130  -44.1350   76.8040 C.3   105  MET105      0.0692
@<TRIPOS>BOND
     1    42    40    1
     2    35    36    1
     3    36    37    1
     4    36    39    1
     5    40    39    1
     6    41    39    1
     7    37    38    2
     8    94    93    1
     9    49    48    1
    10    48    50    1
    11    48    47    1
    12    43    44    1
    13    93    92    1
    14     1     2    1
    15    47    44    1
    16    44    45    1
    17    90    89    2
    18    92    91    1
    19     2     5    1
    20     2     3    1
    21    91    88    1
    22    88    89    1
    23    88    87    1
    24    51    45   am
    25    51    52    1
    26    81    80    2
    27    45    46    2
    28     4     3    2
    29     5     6    1
    30    55    52    1
    31    55    56    1
    32     6     7    1
    33    87    80   am
    34    80    79    1
    35    52    53    1
    36     7     8    1
    37    82    79    1
    38    82    83    1
    39    79    78    1
    40    54    53    2
    41    53    57   am
    42     8     9    2
    43    83    84    1
    44    18    16    1
    45    57    58    1
    46    12    13    1
    47     9    10    1
    48     9    11    1
    49    84    85   ar
    50    84    86   ar
    51    16    13    1
    52    16    17    1
    53    13    14    1
    54    58    59    1
    55    58    61    1
    56    63    65   ar
    57    63    62   ar
    58    60    59    2
    59    65    66   ar
    60    62    61    1
    61    62    64   ar
    62    77    76    2
    63    14    15    2
    64    66    64   ar
    65    76    75    1
    66    72    71    1
    67    75    74    1
    68    74    69   am
    69    71    73    1
    70    71    68    1
    71    69    68    1
    72    69    70    2
    73    24    23    1
    74    34    33    1
    75    68    67    1
    76    19    20    1
    77    25    23    1
    78    23    20    1
    79    33    32    1
    80    20    21    1
    81    32    31    1
    82    21    22    2
    83    31    30    1
    84    30    27    1
    85    27    26    1
    86    27    28    1
    87    28    29    2
