@<TRIPOS>MOLECULE
tmp/3jqpD03.pdb
 114 108 0 0 0
SMALL
GASTEIGER

@<TRIPOS>ATOM
      1  N          1.4260    0.8410  -15.2610 N.3    30  ASN30      -0.1240
      2  CA         1.4020    2.2210  -14.8080 C.3    30  ASN30       0.1653
      3  C          1.4140    3.2580  -15.9330 C.2    30  ASN30       0.2266
      4  O          1.4450    2.9280  -17.1180 O.2    30  ASN30      -0.2867
      5  CB         2.5970    2.4720  -13.8870 C.3    30  ASN30       0.1155
      6  CG         2.5420    1.6380  -12.6260 C.2    30  ASN30       0.2627
      7  OD1        1.4650    1.3040  -12.1400 O.2    30  ASN30      -0.2716
      8  ND2        3.7060    1.3050  -12.0850 N.am   30  ASN30      -0.0877
      9  N          3.1810    9.8570  -11.1800 N.3    82  LYS82      -0.1245
     10  CA         2.3260    8.7410  -11.5630 C.3    82  LYS82       0.1561
     11  C          0.9020    9.2600  -11.7220 C.2    82  LYS82       0.2260
     12  O          0.4740   10.1230  -10.9610 O.2    82  LYS82      -0.2867
     13  CB         2.3780    7.6540  -10.4870 C.3    82  LYS82       0.0271
     14  CG         1.5030    6.4370  -10.7550 C.3    82  LYS82       0.0035
     15  CD         1.6940    5.3790   -9.6720 C.3    82  LYS82       0.0206
     16  CE         0.6530    4.2710   -9.7800 C.3    82  LYS82       0.1093
     17  NZ         0.8410    3.2030   -8.7540 N.3    82  LYS82      -0.1314
     18  N         10.7250    2.3310   -3.9680 N.3   136  THR136     -0.1203
     19  CA         9.7080    1.7170   -4.8110 C.3   136  THR136      0.1994
     20  C          9.0670    2.7820   -5.6880 C.2   136  THR136      0.2618
     21  O          9.1090    3.9680   -5.3700 O.2   136  THR136     -0.2717
     22  CB         8.6050    0.9940   -3.9980 C.3   136  THR136      0.1784
     23  OG1        7.8260    1.9530   -3.2690 O.3   136  THR136     -0.2211
     24  CG2        9.2170   -0.0190   -3.0320 C.3   136  THR136      0.0376
     25  N          8.4760    2.3510   -6.7960 N.am  137  GLY137     -0.1942
     26  CA         7.7760    3.2580   -7.6940 C.3   137  GLY137      0.2014
     27  C          8.5000    4.5740   -7.8770 C.2   137  GLY137      0.2639
     28  O          9.6620    4.6070   -8.2860 O.2   137  GLY137     -0.2714
     29  N          7.8040    5.6620   -7.5630 N.am  138  THR138     -0.1950
     30  CA         8.3250    7.0140   -7.7480 C.3   138  THR138      0.1897
     31  C          9.4000    7.3850   -6.7290 C.2   138  THR138      0.2313
     32  O          9.8360    8.5350   -6.6590 O.2   138  THR138     -0.2863
     33  CB         7.1930    8.0430   -7.6700 C.3   138  THR138      0.1794
     34  OG1        6.2650    7.6490   -6.6520 O.3   138  THR138     -0.2208
     35  CG2        6.4630    8.1220   -8.9950 C.3   138  THR138      0.0378
     36  N         12.3470   -1.3820   -6.0610 N.3   174  GLY174     -0.1210
     37  CA        11.2080   -2.2570   -6.3080 C.3   174  GLY174      0.1956
     38  C         10.1520   -1.6700   -7.2250 C.2   174  GLY174      0.2612
     39  O          9.3680   -0.8100   -6.8250 O.2   174  GLY174     -0.2717
     40  N         10.1330   -2.1420   -8.4630 N.am  175  VAL175     -0.1965
     41  CA         9.1060   -1.7540   -9.4150 C.3   175  VAL175      0.1727
     42  C          8.3340   -2.9990   -9.8310 C.2   175  VAL175      0.2616
     43  O          8.6980   -4.1110   -9.4480 O.2   175  VAL175     -0.2715
     44  CB         9.7100   -1.0560  -10.6470 C.3   175  VAL175      0.0290
     45  CG1        9.6990    0.4520  -10.4600 C.3   175  VAL175      0.0023
     46  CG2       11.1170   -1.5620  -10.9120 C.3   175  VAL175      0.0023
     47  N          7.2670   -2.8200  -10.6020 N.am  176  TYR176     -0.1974
     48  CA         6.4440   -3.9490  -11.0250 C.3   176  TYR176      0.1639
     49  C          7.1910   -4.8180  -12.0380 C.2   176  TYR176      0.2290
     50  O          7.3480   -6.0230  -11.8380 O.2   176  TYR176     -0.2864
     51  CB         5.1050   -3.4530  -11.5860 C.3   176  TYR176      0.0560
     52  CG         4.2590   -4.5160  -12.2480 C.ar  176  TYR176     -0.0198
     53  CD1        3.2160   -5.1340  -11.5690 C.ar  176  TYR176     -0.0009
     54  CD2        4.4980   -4.8910  -13.5600 C.ar  176  TYR176     -0.0009
     55  CE1        2.4370   -6.1040  -12.1840 C.ar  176  TYR176      0.0417
     56  CE2        3.7280   -5.8560  -14.1790 C.ar  176  TYR176      0.0417
     57  CZ         2.7020   -6.4600  -13.4910 C.ar  176  TYR176      0.1957
     58  OH         1.9430   -7.4200  -14.1210 O.3   176  TYR176     -0.2866
     59  N          8.0610   -7.0350   -8.9320 N.3   205  SER205     -0.1217
     60  CA         6.8020   -7.4680   -8.3830 C.3   205  SER205      0.1889
     61  C          6.1260   -8.2900   -9.4580 C.2   205  SER205      0.2288
     62  O          5.0480   -7.9550   -9.9430 O.2   205  SER205     -0.2866
     63  CB         5.9870   -6.2200   -8.0300 C.3   205  SER205      0.2089
     64  OG         4.5970   -6.4180   -8.2030 O.3   205  SER205     -0.2183
     65  N          8.7490   -8.5630   -2.2210 N.3   214  TYR214     -0.1227
     66  CA         9.1320   -7.1760   -2.5220 C.3   214  TYR214      0.1736
     67  C         10.5620   -6.8170   -2.1100 C.2   214  TYR214      0.2595
     68  O         11.3860   -7.6910   -1.8460 O.2   214  TYR214     -0.2718
     69  CB         8.1550   -6.1740   -1.8940 C.3   214  TYR214      0.0548
     70  CG         6.7060   -6.3690   -2.2820 C.ar  214  TYR214     -0.0200
     71  CD1        6.2950   -6.2750   -3.6040 C.ar  214  TYR214     -0.0009
     72  CD2        5.7460   -6.6300   -1.3160 C.ar  214  TYR214     -0.0009
     73  CE1        4.9690   -6.4500   -3.9490 C.ar  214  TYR214      0.0417
     74  CE2        4.4230   -6.8060   -1.6510 C.ar  214  TYR214      0.0417
     75  CZ         4.0390   -6.7150   -2.9670 C.ar  214  TYR214      0.1957
     76  OH         2.7170   -6.8890   -3.2970 O.3   214  TYR214     -0.2866
     77  N         10.8370   -5.5170   -2.0460 N.am  215  VAL215     -0.1966
     78  CA        12.2060   -5.0190   -1.8980 C.3   215  VAL215      0.1727
     79  C         12.8800   -5.4380   -0.5860 C.2   215  VAL215      0.2616
     80  O         14.0420   -5.8490   -0.5840 O.2   215  VAL215     -0.2715
     81  CB        12.2800   -3.4780   -2.0900 C.3   215  VAL215      0.0290
     82  CG1       11.7650   -2.7530   -0.8530 C.3   215  VAL215      0.0023
     83  CG2       13.7030   -3.0440   -2.4130 C.3   215  VAL215      0.0023
     84  N         12.1510   -5.3400    0.5230 N.am  216  GLN216     -0.1977
     85  CA        12.6840   -5.7600    1.8140 C.3   216  GLN216      0.1601
     86  C         12.9420   -7.2570    1.7700 C.2   216  GLN216      0.2287
     87  O         13.9290   -7.7470    2.3210 O.2   216  GLN216     -0.2864
     88  CB        11.7040   -5.4490    2.9460 C.3   216  GLN216      0.0394
     89  CG        10.6440   -4.4180    2.6030 C.3   216  GLN216      0.0908
     90  CD         9.3700   -5.0470    2.0720 C.2   216  GLN216      0.2608
     91  OE1        8.7760   -5.9110    2.7160 O.2   216  GLN216     -0.2717
     92  NE2        8.9400   -4.6090    0.8940 N.am  216  GLN216     -0.0878
     93  N          6.7340    3.1270   -0.4250 N.3   242  LEU242     -0.1245
     94  CA         5.6310    2.7010    0.4320 C.3   242  LEU242      0.1561
     95  C          6.0910    2.5200    1.8810 C.2   242  LEU242      0.2260
     96  O          7.2820    2.3470    2.1440 O.2   242  LEU242     -0.2867
     97  CB         5.0070    1.4140   -0.1080 C.3   242  LEU242      0.0270
     98  CG         4.3000    1.5550   -1.4600 C.3   242  LEU242      0.0019
     99  CD1        4.1740    0.2120   -2.1680 C.3   242  LEU242      0.0001
    100  CD2        2.9390    2.2180   -1.3040 C.3   242  LEU242      0.0001
    101  N          5.3950    0.0340    4.1530 N.3   244  SER244     -0.1202
    102  CA         5.7560   -1.3480    4.5110 C.3   244  SER244      0.2020
    103  C          7.2610   -1.6310    4.6030 C.2   244  SER244      0.2618
    104  O          7.7270   -2.2630    5.5550 O.2   244  SER244     -0.2717
    105  CB         5.1190   -2.3340    3.5310 C.3   244  SER244      0.2103
    106  OG         3.7220   -2.1310    3.4480 O.3   244  SER244     -0.2182
    107  N          8.0140   -1.1790    3.6050 N.am  245  ILE245     -0.1979
    108  CA         9.4620   -1.3840    3.5770 C.3   245  ILE245      0.1595
    109  C         10.0650   -1.2040    4.9650 C.2   245  ILE245      0.2287
    110  O         10.7610   -2.0840    5.4750 O.2   245  ILE245     -0.2864
    111  CB        10.1520   -0.3910    2.6220 C.3   245  ILE245      0.0276
    112  CG1        9.3730   -0.2710    1.3070 C.3   245  ILE245      0.0022
    113  CG2       11.5900   -0.8060    2.3700 C.3   245  ILE245      0.0022
    114  CD1        9.8950    0.8180    0.3890 C.3   245  ILE245      0.0001
@<TRIPOS>BOND
     1     4     3    2
     2     3     2    1
     3     1     2    1
     4     2     5    1
     5    56    54   ar
     6    56    57   ar
     7    58    57    1
     8     5     6    1
     9    54    52   ar
    10    57    55   ar
    11     6     7    2
    12     6     8   am
    13    52    51    1
    14    52    53   ar
    15    55    53   ar
    16    49    50    2
    17    49    48    1
    18    11    10    1
    19    11    12    2
    20    51    48    1
    21    10     9    1
    22    10    13    1
    23    48    47    1
    24    46    44    1
    25    14    13    1
    26    14    15    1
    27    44    45    1
    28    44    41    1
    29    47    42   am
    30    62    61    2
    31    42    43    2
    32    42    41    1
    33    16    15    1
    34    16    17    1
    35    61    60    1
    36    41    40    1
    37    35    33    1
    38    59    60    1
    39    40    38   am
    40    60    63    1
    41    28    27    2
    42    64    63    1
    43    27    26    1
    44    27    29   am
    45    30    33    1
    46    30    29    1
    47    30    31    1
    48    26    25    1
    49    33    34    1
    50    38    39    2
    51    38    37    1
    52    25    20   am
    53    31    32    2
    54    37    36    1
    55    20    21    2
    56    20    19    1
    57    19    22    1
    58    19    18    1
    59    22    23    1
    60    22    24    1
    61    73    71   ar
    62    73    75   ar
    63    71    70   ar
    64    76    75    1
    65    75    74   ar
    66    66    65    1
    67    66    67    1
    68    66    69    1
    69    83    81    1
    70    70    69    1
    71    70    72   ar
    72    99    98    1
    73    67    77   am
    74    67    68    2
    75    81    78    1
    76    81    82    1
    77    77    78    1
    78    78    79    1
    79    74    72   ar
    80    98   100    1
    81    98    97    1
    82    79    80    2
    83    79    84   am
    84    93    94    1
    85    97    94    1
    86   114   112    1
    87    94    95    1
    88    84    85    1
    89    92    90   am
    90   112   111    1
    91    86    85    1
    92    86    87    2
    93    85    88    1
    94    95    96    2
    95    90    89    1
    96    90    91    2
    97   113   111    1
    98    89    88    1
    99   111   108    1
   100   106   105    1
   101   105   102    1
   102   108   107    1
   103   108   109    1
   104   107   103   am
   105   101   102    1
   106   102   103    1
   107   103   104    2
   108   109   110    2
