@<TRIPOS>MOLECULE
tmp/3jqpD02.pdb
 178 176 0 0 0
SMALL
GASTEIGER

@<TRIPOS>ATOM
      1  N         11.4910   18.2300   -1.6940 N.3    50  THR50      -0.1218
      2  CA        10.2340   17.8440   -2.3000 C.3    50  THR50       0.1862
      3  C          9.4380   19.1230   -2.5640 C.2    50  THR50       0.2287
      4  O          9.4410   20.0330   -1.7380 O.2    50  THR50      -0.2866
      5  CB         9.4620   16.8900   -1.3520 C.3    50  THR50       0.1770
      6  OG1        8.4850   16.1410   -2.0850 O.3    50  THR50      -0.2211
      7  CG2        8.7810   17.6680   -0.2350 C.3    50  THR50       0.0375
      8  N         -0.2840   18.7570   -3.7710 N.3    64  ARG64      -0.1231
      9  CA         0.3100   17.4520   -3.5520 C.3    64  ARG64       0.1694
     10  C          1.8210   17.6340   -3.5750 C.2    64  ARG64       0.2592
     11  O          2.3250   18.5810   -4.1750 O.2    64  ARG64      -0.2718
     12  CB        -0.1100   16.4800   -4.6550 C.3    64  ARG64       0.0321
     13  CG        -1.5060   15.8910   -4.5060 C.3    64  ARG64       0.0489
     14  CD        -2.5230   16.9150   -4.0180 C.3    64  ARG64       0.2205
     15  NE        -3.8940   16.4660   -4.2540 N.pl3  64  ARG64      -0.0865
     16  CZ        -4.9480   16.8730   -3.5540 C.cat  64  ARG64       0.5346
     17  NH1       -4.7910   17.7320   -2.5560 N.pl3  64  ARG64       0.1354
     18  NH2       -6.1570   16.4140   -3.8470 N.pl3  64  ARG64       0.1354
     19  N          2.5380   16.7340   -2.9130 N.am   65  LEU65      -0.1966
     20  CA         3.9920   16.7980   -2.8710 C.3    65  LEU65       0.1728
     21  C          4.5900   15.8530   -3.8850 C.2    65  LEU65       0.2616
     22  O          4.0550   14.7710   -4.1290 O.2    65  LEU65      -0.2715
     23  CB         4.5120   16.4120   -1.4910 C.3    65  LEU65       0.0311
     24  CG         4.5840   17.4960   -0.4260 C.3    65  LEU65       0.0022
     25  CD1        5.2540   16.9380    0.8190 C.3    65  LEU65       0.0001
     26  CD2        5.3480   18.6920   -0.9630 C.3    65  LEU65       0.0001
     27  N          5.7100   16.2670   -4.4640 N.am   66  TYR66      -0.1960
     28  CA         6.4510   15.4340   -5.3970 C.3    66  TYR66       0.1771
     29  C          7.9380   15.6250   -5.1920 C.2    66  TYR66       0.2620
     30  O          8.4110   16.7390   -4.9620 O.2    66  TYR66      -0.2715
     31  CB         6.0540   15.7480   -6.8390 C.3    66  TYR66       0.0574
     32  CG         4.5810   15.5590   -7.0560 C.ar   66  TYR66      -0.0198
     33  CD1        3.7160   16.6430   -7.0530 C.ar   66  TYR66      -0.0009
     34  CD2        4.0430   14.2880   -7.2100 C.ar   66  TYR66      -0.0009
     35  CE1        2.3580   16.4700   -7.2260 C.ar   66  TYR66       0.0417
     36  CE2        2.6850   14.1040   -7.3820 C.ar   66  TYR66       0.0417
     37  CZ         1.8460   15.1990   -7.3900 C.ar   66  TYR66       0.1957
     38  OH         0.4920   15.0240   -7.5630 O.3    66  TYR66      -0.2866
     39  N          8.6750   14.5250   -5.2630 N.am   67  SER67      -0.1950
     40  CA        10.1160   14.5760   -5.1300 C.3    67  SER67       0.1924
     41  C         10.7550   15.1600   -6.3890 C.2    67  SER67       0.2314
     42  O         10.4780   14.7120   -7.5060 O.2    67  SER67      -0.2863
     43  CB        10.6690   13.1770   -4.8640 C.3    67  SER67       0.2116
     44  OG         9.8480   12.4830   -3.9430 O.3    67  SER67      -0.2180
     45  N          8.7870   13.4890  -11.3430 N.3    80  ALA80      -0.1231
     46  CA         8.1020   12.3500  -11.9510 C.3    80  ALA80       0.1694
     47  C          6.7800   12.0650  -11.2510 C.2    80  ALA80       0.2592
     48  O          6.7470   11.8130  -10.0480 O.2    80  ALA80      -0.2718
     49  CB         8.9930   11.1160  -11.9350 C.3    80  ALA80       0.0304
     50  N          5.6940   12.0960  -12.0170 N.am   81  ILE81      -0.1966
     51  CA         4.3460   11.9680  -11.4660 C.3    81  ILE81       0.1727
     52  C          3.5650   10.7890  -12.0480 C.2    81  ILE81       0.2616
     53  O          3.3140   10.7280  -13.2520 O.2    81  ILE81      -0.2715
     54  CB         3.5430   13.2580  -11.6990 C.3    81  ILE81       0.0290
     55  CG1        4.2070   14.4310  -10.9730 C.3    81  ILE81       0.0022
     56  CG2        2.1010   13.0780  -11.2500 C.3    81  ILE81       0.0023
     57  CD1        3.7080   15.7950  -11.4270 C.3    81  ILE81       0.0001
     58  N          3.1810    9.8570  -11.1800 N.am   82  LYS82      -0.1977
     59  CA         2.3260    8.7410  -11.5630 C.3    82  LYS82       0.1596
     60  C          0.9020    9.2600  -11.7220 C.2    82  LYS82       0.2287
     61  O          0.4740   10.1230  -10.9610 O.2    82  LYS82      -0.2864
     62  CB         2.3780    7.6540  -10.4870 C.3    82  LYS82       0.0298
     63  CG         1.5030    6.4370  -10.7550 C.3    82  LYS82       0.0038
     64  CD         1.6940    5.3790   -9.6720 C.3    82  LYS82       0.0206
     65  CE         0.6530    4.2710   -9.7800 C.3    82  LYS82       0.1093
     66  NZ         0.8410    3.2030   -8.7540 N.3    82  LYS82      -0.1314
     67  N         -2.8870    8.4650  -11.3740 N.3    84  HIS84      -0.1226
     68  CA        -3.8620    7.5680  -10.7580 C.3    84  HIS84       0.1752
     69  C         -5.2170    7.6110  -11.4640 C.2    84  HIS84       0.2596
     70  O         -5.7240    8.6830  -11.7900 O.2    84  HIS84      -0.2718
     71  CB        -4.0540    7.9380   -9.2850 C.3    84  HIS84       0.0759
     72  CG        -2.8010    7.8720   -8.4650 C.ar   84  HIS84       0.0818
     73  ND1       -2.5230    6.8220   -7.6160 N.ar   84  HIS84      -0.2268
     74  CD2       -1.7660    8.7370   -8.3430 C.ar   84  HIS84       0.1154
     75  CE1       -1.3620    7.0370   -7.0180 C.ar   84  HIS84       0.1986
     76  NE2       -0.8860    8.1920   -7.4400 N.ar   84  HIS84      -0.2212
     77  N         -5.8060    6.4420  -11.6890 N.am   85  LYS85      -0.1966
     78  CA        -7.1060    6.3640  -12.3380 C.3    85  LYS85       0.1728
     79  C         -7.9890    5.3700  -11.6130 C.2    85  LYS85       0.2616
     80  O         -7.5040    4.5100  -10.8810 O.2    85  LYS85      -0.2715
     81  CB        -6.9580    5.9220  -13.7920 C.3    85  LYS85       0.0311
     82  CG        -5.5930    6.1980  -14.3920 C.3    85  LYS85       0.0038
     83  CD        -5.4290    5.4830  -15.7220 C.3    85  LYS85       0.0206
     84  CE        -3.9850    5.0750  -15.9390 C.3    85  LYS85       0.1093
     85  NZ        -3.0510    6.2050  -15.6770 N.3    85  LYS85      -0.1314
     86  N         -9.2760    5.4900  -11.8440 N.am   86  TYR86      -0.1974
     87  CA       -10.2110    4.5740  -11.2700 C.3    86  TYR86       0.1639
     88  C        -11.3620    4.2400  -12.1990 C.2    86  TYR86       0.2290
     89  O        -11.6530    4.9780  -13.1130 O.2    86  TYR86      -0.2864
     90  CB       -10.7000    5.0540   -9.9210 C.3    86  TYR86       0.0560
     91  CG       -11.2250    6.4550   -9.8430 C.ar   86  TYR86      -0.0198
     92  CD1      -12.5350    6.7380  -10.0990 C.ar   86  TYR86      -0.0009
     93  CD2      -10.4270    7.4790   -9.4340 C.ar   86  TYR86      -0.0009
     94  CE1      -13.0050    7.9990   -9.9980 C.ar   86  TYR86       0.0417
     95  CE2      -10.9030    8.7370   -9.3270 C.ar   86  TYR86       0.0417
     96  CZ       -12.1860    8.9900   -9.6090 C.ar   86  TYR86       0.1957
     97  OH       -12.6550   10.2530   -9.4990 O.3    86  TYR86      -0.2866
     98  N         -9.8210   10.7000  -12.8490 N.3    93  TYR93      -0.1227
     99  CA        -8.4420   10.9110  -12.4300 C.3    93  TYR93       0.1736
    100  C         -8.2790   11.5390  -11.0500 C.2    93  TYR93       0.2596
    101  O         -9.0720   12.3860  -10.6310 O.2    93  TYR93      -0.2718
    102  CB        -7.6860   11.7480  -13.4620 C.3    93  TYR93       0.0548
    103  CG        -7.3160   10.9890  -14.7070 C.ar   93  TYR93      -0.0200
    104  CD1       -7.7800   11.3910  -15.9460 C.ar   93  TYR93      -0.0009
    105  CD2       -6.5030    9.8690  -14.6420 C.ar   93  TYR93      -0.0009
    106  CE1       -7.4450   10.7060  -17.0850 C.ar   93  TYR93       0.0417
    107  CE2       -6.1630    9.1740  -15.7750 C.ar   93  TYR93       0.0417
    108  CZ        -6.6380    9.5960  -16.9950 C.ar   93  TYR93       0.1957
    109  OH        -6.3000    8.9030  -18.1340 O.3    93  TYR93      -0.2866
    110  N         -7.2330   11.1170  -10.3490 N.am   94  GLY94      -0.1942
    111  CA        -6.8370   11.7910   -9.1260 C.3    94  GLY94       0.2014
    112  C         -6.8680   13.2860   -9.3710 C.2    94  GLY94       0.2639
    113  O         -6.6160   13.7430  -10.4860 O.2    94  GLY94      -0.2714
    114  N         -7.1830   14.0540   -8.3330 N.am   95  TYR95      -0.1959
    115  CA        -7.3150   15.5040   -8.4710 C.3    95  TYR95       0.1771
    116  C         -6.1140   16.1130   -9.1980 C.2    95  TYR95       0.2620
    117  O         -6.2490   16.6270  -10.3110 O.2    95  TYR95      -0.2715
    118  CB        -7.5450   16.1540   -7.0990 C.3    95  TYR95       0.0574
    119  CG        -7.5110   17.6710   -7.0780 C.ar   95  TYR95      -0.0198
    120  CD1       -8.4200   18.4280   -7.8170 C.ar   95  TYR95      -0.0009
    121  CD2       -6.5860   18.3460   -6.2910 C.ar   95  TYR95      -0.0009
    122  CE1       -8.3860   19.8210   -7.7820 C.ar   95  TYR95       0.0417
    123  CE2       -6.5470   19.7290   -6.2500 C.ar   95  TYR95       0.0417
    124  CZ        -7.4450   20.4620   -6.9930 C.ar   95  TYR95       0.1957
    125  OH        -7.3950   21.8380   -6.9430 O.3    95  TYR95      -0.2866
    126  N         -4.9420   16.0360   -8.5740 N.am   96  CYS96      -0.1954
    127  CA        -3.7130   16.5290   -9.1870 C.3    96  CYS96       0.1843
    128  C         -3.2980   15.6650  -10.3800 C.2    96  CYS96       0.2626
    129  O         -2.6240   16.1360  -11.2940 O.2    96  CYS96      -0.2714
    130  CB        -2.5930   16.5850   -8.1480 C.3    96  CYS96       0.0997
    131  SG        -1.0340   17.2420   -8.7680 S.3    96  CYS96      -0.0797
    132  N         -3.7090   14.4000  -10.3650 N.am   97  SER97      -0.1950
    133  CA        -3.4020   13.4780  -11.4550 C.3    97  SER97       0.1924
    134  C         -4.0750   13.9000  -12.7560 C.2    97  SER97       0.2314
    135  O         -3.4930   13.7820  -13.8350 O.2    97  SER97      -0.2863
    136  CB        -3.8120   12.0480  -11.0940 C.3    97  SER97       0.2116
    137  OG        -2.8040   11.3990  -10.3380 O.3    97  SER97      -0.2180
    138  N          7.8040    5.6620   -7.5630 N.3   138  THR138     -0.1218
    139  CA         8.3250    7.0140   -7.7480 C.3   138  THR138      0.1862
    140  C          9.4000    7.3850   -6.7290 C.2   138  THR138      0.2287
    141  O          9.8360    8.5350   -6.6590 O.2   138  THR138     -0.2866
    142  CB         7.1930    8.0430   -7.6700 C.3   138  THR138      0.1770
    143  OG1        6.2650    7.6490   -6.6520 O.3   138  THR138     -0.2211
    144  CG2        6.4630    8.1220   -8.9950 C.3   138  THR138      0.0375
    145  N         13.0670    9.1460   -7.4270 N.3   141  SER141     -0.1217
    146  CA        13.1490   10.5960   -7.5890 C.3   141  SER141      0.1889
    147  C         14.2120   11.2360   -6.6910 C.2   141  SER141      0.2288
    148  O         15.0300   12.0200   -7.1710 O.2   141  SER141     -0.2866
    149  CB        11.7840   11.2490   -7.3630 C.3   141  SER141      0.2089
    150  OG        10.9470   11.0710   -8.4930 O.3   141  SER141     -0.2183
    151  N         11.3200    8.4630    4.1600 N.3   267  GLU267     -0.1231
    152  CA        10.2370    9.2670    3.6230 C.3   267  GLU267      0.1699
    153  C          9.3110    8.2880    2.9150 C.2   267  GLU267      0.2592
    154  O          9.6370    7.7890    1.8390 O.2   267  GLU267     -0.2718
    155  CB        10.7600   10.3290    2.6520 C.3   267  GLU267      0.0402
    156  CG         9.7890   11.4830    2.4140 C.3   267  GLU267      0.1161
    157  CD        10.4280   12.6600    1.6900 C.2   267  GLU267      0.3649
    158  OE1       11.3400   12.4330    0.8670 O.co2 267  GLU267     -0.2457
    159  OE2       10.0130   13.8120    1.9410 O.co2 267  GLU267     -0.2457
    160  N          8.1760    7.9790    3.5320 N.am  268  VAL268     -0.1966
    161  CA         7.2560    7.0100    2.9480 C.3   268  VAL268      0.1727
    162  C          5.9230    7.6400    2.5860 C.2   268  VAL268      0.2616
    163  O          5.4510    8.5550    3.2590 O.2   268  VAL268     -0.2715
    164  CB         7.0110    5.7940    3.8710 C.3   268  VAL268      0.0290
    165  CG1        8.3040    5.0140    4.0740 C.3   268  VAL268      0.0023
    166  CG2        6.4290    6.2360    5.2060 C.3   268  VAL268      0.0023
    167  N          5.3290    7.1400    1.5070 N.am  269  TYR269     -0.1974
    168  CA         4.0230    7.5990    1.0500 C.3   269  TYR269      0.1639
    169  C          3.3750    6.5640    0.1390 C.2   269  TYR269      0.2290
    170  O          2.1900    6.6620   -0.1740 O.2   269  TYR269     -0.2864
    171  CB         4.1240    8.9580    0.3410 C.3   269  TYR269      0.0560
    172  CG         5.0950    9.0230   -0.8270 C.ar  269  TYR269     -0.0198
    173  CD1        4.6840    8.7280   -2.1240 C.ar  269  TYR269     -0.0009
    174  CD2        6.4160    9.4090   -0.6350 C.ar  269  TYR269     -0.0009
    175  CE1        5.5710    8.7990   -3.1980 C.ar  269  TYR269      0.0417
    176  CE2        7.3090    9.4830   -1.6980 C.ar  269  TYR269      0.0417
    177  CZ         6.8830    9.1780   -2.9780 C.ar  269  TYR269      0.1957
    178  OH         7.7710    9.2550   -4.0330 O.3   269  TYR269     -0.2866
@<TRIPOS>BOND
     1   109   108    1
     2   106   108   ar
     3   106   104   ar
     4   108   107   ar
     5   104   103   ar
     6    84    83    1
     7    84    85    1
     8   107   105   ar
     9    83    82    1
    10   103   105   ar
    11   103   102    1
    12    82    81    1
    13   135   134    2
    14    81    78    1
    15   102    99    1
    16    53    52    2
    17    89    88    2
    18    98    99    1
    19   134   133    1
    20    99   100    1
    21    78    77    1
    22    78    79    1
    23    88    87    1
    24    52    51    1
    25    52    58   am
    26    50    51    1
    27    50    47   am
    28    46    49    1
    29    46    45    1
    30    46    47    1
    31    86    79   am
    32    86    87    1
    33    70    69    2
    34    60    59    1
    35    60    61    2
    36    54    51    1
    37    54    56    1
    38    54    55    1
    39    77    69   am
    40    79    80    2
    41    59    58    1
    42    59    62    1
    43    69    68    1
    44   133   136    1
    45   133   132    1
    46    57    55    1
    47    67    68    1
    48   129   128    2
    49    87    90    1
    50    47    48    2
    51   136   137    1
    52   100   101    2
    53   100   110   am
    54    68    71    1
    55    63    62    1
    56    63    64    1
    57   113   112    2
    58   128   132   am
    59   128   127    1
    60   110   111    1
    61   117   116    2
    62    92    94   ar
    63    92    91   ar
    64    94    96   ar
    65    90    91    1
    66    91    93   ar
    67    65    64    1
    68    65    66    1
    69    96    97    1
    70    96    95   ar
    71    93    95   ar
    72   112   111    1
    73   112   114   am
    74    71    72    1
    75   116   126   am
    76   116   115    1
    77   127   126    1
    78   127   130    1
    79   144   142    1
    80   131   130    1
    81   150   149    1
    82   115   114    1
    83   115   118    1
    84    72    74   ar
    85    72    73   ar
    86    74    76   ar
    87   120   122   ar
    88   120   119   ar
    89   122   124   ar
    90   139   142    1
    91   139   138    1
    92   139   140    1
    93   142   143    1
    94    73    75   ar
    95   146   145    1
    96   146   149    1
    97   146   147    1
    98    38    37    1
    99    42    41    2
   100    76    75   ar
   101    37    36   ar
   102    37    35   ar
   103    36    34   ar
   104    35    33   ar
   105    34    32   ar
   106   148   147    2
   107   118   119    1
   108   119   121   ar
   109    32    33   ar
   110    32    31    1
   111   124   125    1
   112   124   123   ar
   113    31    28    1
   114   140   141    2
   115    41    40    1
   116   121   123   ar
   117    28    29    1
   118    28    27    1
   119    39    29   am
   120    39    40    1
   121    29    30    2
   122    40    43    1
   123    43    44    1
   124    12    13    1
   125    12     9    1
   126    13    14    1
   127    27    21   am
   128    15    14    1
   129    15    16    2
   130    11    10    2
   131    22    21    2
   132   178   177    1
   133    21    20    1
   134    18    16    1
   135     8     9    1
   136    10     9    1
   137    10    19   am
   138    16    17    1
   139   175   177   ar
   140   175   173   ar
   141   177   176   ar
   142    19    20    1
   143    20    23    1
   144     3     2    1
   145     3     4    2
   146     2     1    1
   147     2     5    1
   148   173   172   ar
   149     6     5    1
   150   176   174   ar
   151    23    24    1
   152     5     7    1
   153    26    24    1
   154   172   174   ar
   155   172   171    1
   156    24    25    1
   157   170   169    2
   158   169   168    1
   159   171   168    1
   160   158   157   ar
   161   168   167    1
   162   167   162   am
   163   157   159   ar
   164   157   156    1
   165   154   153    2
   166   156   155    1
   167   162   161    1
   168   162   163    2
   169   155   152    1
   170   153   160   am
   171   153   152    1
   172   161   160    1
   173   161   164    1
   174   152   151    1
   175   164   165    1
   176   164   166    1
