@<TRIPOS>MOLECULE
tmp/3jqzA00.pdb
 110 100 0 0 0
SMALL
GASTEIGER

@<TRIPOS>ATOM
      1  N         35.5490    9.0110  -42.5740 N.3   114  ARG114     -0.1245
      2  CA        36.3100    9.9590  -41.7880 C.3   114  ARG114      0.1563
      3  C         35.7740   11.3070  -42.2330 C.2   114  ARG114      0.2260
      4  O         35.3070   11.4590  -43.3680 O.2   114  ARG114     -0.2867
      5  CB        37.8150    9.8610  -42.0640 C.3   114  ARG114      0.0307
      6  CG        38.6090   11.0820  -41.5910 C.3   114  ARG114      0.0489
      7  CD        38.9830   10.9830  -40.1260 C.3   114  ARG114      0.2205
      8  NE        40.4120   10.7390  -39.9640 N.pl3 114  ARG114     -0.0865
      9  CZ        40.9890    9.5460  -40.0650 C.cat 114  ARG114      0.5346
     10  NH1       42.3020    9.4350  -39.9070 N.pl3 114  ARG114      0.1354
     11  NH2       40.2580    8.4670  -40.3290 N.pl3 114  ARG114      0.1354
     12  N         44.4810   19.0640  -35.1210 N.3   183  ASP183     -0.1239
     13  CA        44.9390   17.6780  -35.0890 C.3   183  ASP183      0.1674
     14  C         45.2260   17.2590  -33.6710 C.2   183  ASP183      0.2266
     15  O         45.1210   16.0900  -33.3190 O.2   183  ASP183     -0.2867
     16  CB        46.2350   17.5410  -35.8730 C.3   183  ASP183      0.1410
     17  CG        46.0120   17.5030  -37.3530 C.2   183  ASP183      0.3668
     18  OD1       44.9820   16.8990  -37.7330 O.co2 183  ASP183     -0.2456
     19  OD2       46.8520   18.0600  -38.1170 O.co2 183  ASP183     -0.2456
     20  N         41.6570   16.6350  -32.7710 N.3   186  ARG186     -0.1231
     21  CA        41.2220   15.3560  -33.3270 C.3   186  ARG186      0.1694
     22  C         41.6770   14.1870  -32.4830 C.2   186  ARG186      0.2592
     23  O         40.8730   13.3860  -32.0380 O.2   186  ARG186     -0.2718
     24  CB        41.7270   15.1510  -34.7510 C.3   186  ARG186      0.0321
     25  CG        42.2130   13.7340  -34.9960 C.3   186  ARG186      0.0489
     26  CD        42.0340   13.2810  -36.4280 C.3   186  ARG186      0.2205
     27  NE        40.7090   12.7100  -36.6610 N.pl3 186  ARG186     -0.0865
     28  CZ        39.7490   13.3070  -37.3610 C.cat 186  ARG186      0.5346
     29  NH1       39.9500   14.5030  -37.9110 N.pl3 186  ARG186      0.1354
     30  NH2       38.5830   12.7020  -37.5180 N.pl3 186  ARG186      0.1354
     31  N         42.9760   14.0850  -32.2620 N.am  187  ASP187     -0.1974
     32  CA        43.5160   12.9620  -31.5120 C.3   187  ASP187      0.1709
     33  C         43.0930   13.0310  -30.0520 C.2   187  ASP187      0.2293
     34  O         42.4350   12.1260  -29.5630 O.2   187  ASP187     -0.2864
     35  CB        45.0400   12.9000  -31.6490 C.3   187  ASP187      0.1436
     36  CG        45.4940   12.8460  -33.1050 C.2   187  ASP187      0.3671
     37  OD1       46.1880   13.7920  -33.5410 O.co2 187  ASP187     -0.2456
     38  OD2       45.1430   11.8730  -33.8210 O.co2 187  ASP187     -0.2456
     39  N         39.8430   11.8420  -29.6350 N.3   190  LYS190     -0.1245
     40  CA        39.7240   10.4170  -29.8990 C.3   190  LYS190      0.1561
     41  C         40.2420    9.6120  -28.7140 C.2   190  LYS190      0.2260
     42  O         39.8220    8.4790  -28.4880 O.2   190  LYS190     -0.2867
     43  CB        40.4800   10.0460  -31.1750 C.3   190  LYS190      0.0271
     44  CG        39.9310    8.8150  -31.8750 C.3   190  LYS190      0.0035
     45  CD        40.0590    8.9270  -33.3870 C.3   190  LYS190      0.0206
     46  CE        41.4880    8.6730  -33.8550 C.3   190  LYS190      0.1093
     47  NZ        42.4230    9.7980  -33.5550 N.3   190  LYS190     -0.1314
     48  N         56.7710    1.3870  -35.7270 N.3   400  GLU400     -0.1245
     49  CA        55.3420    1.2140  -35.4910 C.3   400  GLU400      0.1567
     50  C         54.6800    0.2020  -36.4280 C.2   400  GLU400      0.2260
     51  O         53.8930   -0.6310  -35.9900 O.2   400  GLU400     -0.2867
     52  CB        54.6220    2.5580  -35.5780 C.3   400  GLU400      0.0388
     53  CG        53.2130    2.5310  -35.0260 C.3   400  GLU400      0.1160
     54  CD        52.5590    3.8920  -35.0550 C.2   400  GLU400      0.3649
     55  OE1       51.6190    4.1190  -34.2670 O.co2 400  GLU400     -0.2457
     56  OE2       52.9880    4.7410  -35.8640 O.co2 400  GLU400     -0.2457
     57  N         42.0430   -3.0430  -36.6970 N.3   425  GLU425     -0.1245
     58  CA        41.7300   -1.8810  -35.8690 C.3   425  GLU425      0.1567
     59  C         42.3710   -1.9850  -34.4870 C.2   425  GLU425      0.2260
     60  O         42.8890   -1.0020  -33.9540 O.2   425  GLU425     -0.2867
     61  CB        40.2100   -1.7160  -35.7400 C.3   425  GLU425      0.0388
     62  CG        39.7220   -1.4040  -34.3260 C.3   425  GLU425      0.1160
     63  CD        39.7770    0.0720  -33.9810 C.2   425  GLU425      0.3649
     64  OE1       39.7880    0.9010  -34.9140 O.co2 425  GLU425     -0.2457
     65  OE2       39.7970    0.4040  -32.7740 O.co2 425  GLU425     -0.2457
     66  N         46.5630   -2.7000  -34.7690 N.3   428  ARG428     -0.1231
     67  CA        47.1410   -1.4230  -35.1690 C.3   428  ARG428      0.1694
     68  C         47.2520   -0.5020  -33.9610 C.2   428  ARG428      0.2592
     69  O         48.2780    0.1380  -33.7480 O.2   428  ARG428     -0.2718
     70  CB        46.3030   -0.7530  -36.2610 C.3   428  ARG428      0.0321
     71  CG        46.2570   -1.5210  -37.5700 C.3   428  ARG428      0.0489
     72  CD        45.7720   -0.6490  -38.7180 C.3   428  ARG428      0.2205
     73  NE        46.8410    0.1850  -39.2590 N.pl3 428  ARG428     -0.0865
     74  CZ        46.9830    1.4810  -39.0020 C.cat 428  ARG428      0.5346
     75  NH1       46.1170    2.1010  -38.2100 N.pl3 428  ARG428      0.1354
     76  NH2       47.9910    2.1570  -39.5400 N.pl3 428  ARG428      0.1354
     77  N         46.1900   -0.4470  -33.1650 N.am  429  ASN429     -0.1974
     78  CA        46.1660    0.4070  -31.9820 C.3   429  ASN429      0.1688
     79  C         47.1140   -0.0350  -30.8760 C.2   429  ASN429      0.2292
     80  O         47.7170    0.7990  -30.2030 O.2   429  ASN429     -0.2864
     81  CB        44.7450    0.5420  -31.4410 C.3   429  ASN429      0.1181
     82  CG        43.9260    1.5300  -32.2300 C.2   429  ASN429      0.2629
     83  OD1       44.4030    2.0980  -33.2130 O.2   429  ASN429     -0.2716
     84  ND2       42.6870    1.7490  -31.8030 N.am  429  ASN429     -0.0877
     85  N         50.1060    1.3440  -31.5980 N.3   432  LYS432     -0.1245
     86  CA        50.1060    2.7880  -31.3910 C.3   432  LYS432      0.1561
     87  C         50.5090    3.1790  -29.9720 C.2   432  LYS432      0.2260
     88  O         50.8270    4.3380  -29.7100 O.2   432  LYS432     -0.2867
     89  CB        48.7430    3.3910  -31.7400 C.3   432  LYS432      0.0271
     90  CG        48.5100    3.5740  -33.2320 C.3   432  LYS432      0.0035
     91  CD        47.3340    4.5010  -33.4880 C.3   432  LYS432      0.0206
     92  CE        47.2840    4.9570  -34.9360 C.3   432  LYS432      0.1093
     93  NZ        46.3290    6.0890  -35.1130 N.3   432  LYS432     -0.1314
     94  N         48.3400    5.4110  -45.2170 N.3   519  LYS519     -0.1245
     95  CA        47.8180    4.5940  -44.1270 C.3   519  LYS519      0.1561
     96  C         46.6880    3.6660  -44.5630 C.2   519  LYS519      0.2260
     97  O         46.7450    2.4630  -44.3160 O.2   519  LYS519     -0.2867
     98  CB        47.3810    5.4710  -42.9520 C.3   519  LYS519      0.0271
     99  CG        48.5490    6.0920  -42.2020 C.3   519  LYS519      0.0035
    100  CD        48.0850    7.0250  -41.0940 C.3   519  LYS519      0.0206
    101  CE        49.2710    7.6940  -40.4100 C.3   519  LYS519      0.1093
    102  NZ        50.1160    8.4510  -41.3780 N.3   519  LYS519     -0.1314
    103  N         46.8100   -0.1690  -44.0750 N.3   523  ILE523     -0.1245
    104  CA        45.6920   -0.9160  -43.5150 C.3   523  ILE523      0.1561
    105  C         45.2360   -2.0320  -44.4530 C.2   523  ILE523      0.2260
    106  O         44.6600   -3.0240  -44.0150 O.2   523  ILE523     -0.2867
    107  CB        44.5060    0.0130  -43.1870 C.3   523  ILE523      0.0252
    108  CG1       44.9690    1.1590  -42.2840 C.3   523  ILE523      0.0019
    109  CG2       43.3870   -0.7670  -42.5210 C.3   523  ILE523      0.0019
    110  CD1       43.8820    2.1560  -41.9490 C.3   523  ILE523      0.0001
@<TRIPOS>BOND
     1    94    95    1
     2    96    97    2
     3    96    95    1
     4   105   106    2
     5   105   104    1
     6    95    98    1
     7   103   104    1
     8   104   107    1
     9     4     3    2
    10   107   109    1
    11   107   108    1
    12    98    99    1
    13     1     2    1
    14   108   110    1
    15     3     2    1
    16    99   100    1
    17     5     2    1
    18     5     6    1
    19     6     7    1
    20   102   101    1
    21   100   101    1
    22    11     9    1
    23     7     8    1
    24     9     8    2
    25     9    10    1
    26    76    74    1
    27    73    74    2
    28    73    72    1
    29    74    75    1
    30    72    71    1
    31    19    17   ar
    32    29    28    1
    33    18    17   ar
    34    71    70    1
    35    30    28    1
    36    28    27    2
    37    17    16    1
    38    57    58    1
    39    27    26    1
    40    26    25    1
    41    50    51    2
    42    50    49    1
    43    70    67    1
    44    16    13    1
    45    58    61    1
    46    58    59    1
    47    56    54   ar
    48    61    62    1
    49    48    49    1
    50    52    49    1
    51    52    53    1
    52    67    66    1
    53    67    68    1
    54    12    13    1
    55    93    92    1
    56    13    14    1
    57    54    53    1
    58    54    55   ar
    59    25    24    1
    60    92    91    1
    61    64    63   ar
    62    24    21    1
    63    59    60    2
    64    62    63    1
    65    63    65   ar
    66    68    69    2
    67    68    77   am
    68    46    47    1
    69    46    45    1
    70    38    36   ar
    71    14    15    2
    72    37    36   ar
    73    91    90    1
    74    45    44    1
    75    21    20    1
    76    21    22    1
    77    90    89    1
    78    83    82    2
    79    77    78    1
    80    36    35    1
    81    22    31   am
    82    22    23    2
    83    31    32    1
    84    82    84   am
    85    82    81    1
    86    78    81    1
    87    78    79    1
    88    44    43    1
    89    89    86    1
    90    35    32    1
    91    85    86    1
    92    32    33    1
    93    86    87    1
    94    43    40    1
    95    79    80    2
    96    33    34    2
    97    87    88    2
    98    40    39    1
    99    40    41    1
   100    41    42    2
