@<TRIPOS>MOLECULE
tmp/3jr7A00.pdb
 188 175 0 0 0
SMALL
GASTEIGER

@<TRIPOS>ATOM
      1  N         30.0180   37.9170   19.0310 N.3    11  CYS11      -0.1235
      2  CA        28.6130   38.3370   18.9830 C.3    11  CYS11       0.1677
      3  C         28.4880   39.8330   19.2310 C.2    11  CYS11       0.2270
      4  O         27.6740   40.5190   18.5920 O.2    11  CYS11      -0.2867
      5  CB        27.7600   37.5260   19.9630 C.3    11  CYS11       0.0956
      6  SG        26.0110   37.8840   19.7670 S.3    11  CYS11      -0.0801
      7  N         33.5770   33.2860   17.5980 N.3    28  LEU28      -0.1245
      8  CA        32.7990   32.0640   17.6080 C.3    28  LEU28       0.1561
      9  C         32.8430   31.3930   16.2440 C.2    28  LEU28       0.2260
     10  O         33.3040   31.9880   15.2680 O.2    28  LEU28      -0.2867
     11  CB        31.3330   32.3570   17.9720 C.3    28  LEU28       0.0270
     12  CG        31.0340   32.5250   19.4500 C.3    28  LEU28       0.0019
     13  CD1       31.3000   33.9730   19.9400 C.3    28  LEU28       0.0001
     14  CD2       29.6070   32.0500   19.7590 C.3    28  LEU28       0.0001
     15  N         26.0590   26.9570   15.6690 N.3    61  THR61      -0.1203
     16  CA        27.1460   27.8470   16.0820 C.3    61  THR61       0.1994
     17  C         27.9600   27.1820   17.2010 C.2    61  THR61       0.2619
     18  O         27.5000   26.2090   17.8260 O.2    61  THR61      -0.2717
     19  CB        26.6010   29.2320   16.4940 C.3    61  THR61       0.1784
     20  OG1       25.6130   29.1180   17.5290 O.3    61  THR61      -0.2211
     21  CG2       25.9760   29.9560   15.2600 C.3    61  THR61       0.0376
     22  N         29.1660   27.6790   17.4490 N.am   62  SER62      -0.1937
     23  CA        29.9560   27.1400   18.5600 C.3    62  SER62       0.2055
     24  C         30.6510   28.2670   19.2920 C.2    62  SER62       0.2643
     25  O         31.1310   29.1950   18.6640 O.2    62  SER62      -0.2714
     26  CB        31.0130   26.1130   18.0690 C.3    62  SER62       0.2130
     27  OG        31.7590   26.6210   16.9830 O.3    62  SER62      -0.2179
     28  N         30.7520   28.1510   20.6120 N.am   63  CYS63      -0.1967
     29  CA        31.4220   29.1920   21.4030 C.3    63  CYS63       0.1712
     30  C         32.9550   29.0830   21.2290 C.2    63  CYS63       0.2296
     31  O         33.4570   28.0950   20.7150 O.2    63  CYS63      -0.2864
     32  CB        30.9950   29.0670   22.8620 C.3    63  CYS63       0.0983
     33  SG        31.5940   27.5120   23.6440 S.3    63  CYS63      -0.0798
     34  N         28.4850   36.7380   25.6500 N.3    84  LEU84      -0.1245
     35  CA        27.0900   36.3190   25.5750 C.3    84  LEU84       0.1561
     36  C         26.5640   35.8260   26.9240 C.2    84  LEU84       0.2260
     37  O         27.2990   35.2280   27.7040 O.2    84  LEU84      -0.2867
     38  CB        26.9740   35.1550   24.5740 C.3    84  LEU84       0.0270
     39  CG        26.8790   35.4640   23.0860 C.3    84  LEU84       0.0019
     40  CD1       27.4320   34.2580   22.2860 C.3    84  LEU84       0.0001
     41  CD2       25.4560   35.8160   22.7090 C.3    84  LEU84       0.0001
     42  N         22.5250   31.4150   27.1940 N.3    88  LEU88      -0.1231
     43  CA        22.3290   31.2170   25.7510 C.3    88  LEU88       0.1693
     44  C         23.5130   30.5530   25.0460 C.2    88  LEU88       0.2593
     45  O         23.4100   30.1820   23.8910 O.2    88  LEU88      -0.2718
     46  CB        22.0300   32.5670   25.1020 C.3    88  LEU88       0.0284
     47  CG        20.8180   33.3430   25.6470 C.3    88  LEU88       0.0019
     48  CD1       20.7580   34.7670   25.0610 C.3    88  LEU88       0.0001
     49  CD2       19.5150   32.5640   25.3930 C.3    88  LEU88       0.0001
     50  N         24.6500   30.4120   25.7260 N.am   89  SER89      -0.1938
     51  CA        25.9030   30.0530   25.0510 C.3    89  SER89       0.2055
     52  C         26.9060   29.5470   26.0930 C.2    89  SER89       0.2643
     53  O         26.9020   30.0120   27.2070 O.2    89  SER89      -0.2714
     54  CB        26.5060   31.2940   24.3860 C.3    89  SER89       0.2130
     55  OG        27.8000   31.0510   23.8480 O.3    89  SER89      -0.2179
     56  N         27.7960   28.6610   25.6890 N.am   90  GLY90      -0.1954
     57  CA        28.9180   28.2530   26.5360 C.3    90  GLY90       0.1869
     58  C         30.1010   29.2330   26.5310 C.2    90  GLY90       0.2309
     59  O         31.1600   28.9490   27.1460 O.2    90  GLY90      -0.2863
     60  N         24.4840   38.6690   30.3430 N.3   117  ARG117     -0.1231
     61  CA        23.0560   38.3580   30.4030 C.3   117  ARG117      0.1694
     62  C         22.2860   38.9140   29.1890 C.2   117  ARG117      0.2593
     63  O         21.1130   39.2830   29.2920 O.2   117  ARG117     -0.2718
     64  CB        22.4760   38.8190   31.7400 C.3   117  ARG117      0.0321
     65  CG        23.1120   38.0090   32.9630 C.3   117  ARG117      0.0489
     66  CD        23.1550   38.8010   34.2820 C.3   117  ARG117      0.2205
     67  NE        23.9110   38.0540   35.2920 N.pl3 117  ARG117     -0.0865
     68  CZ        25.2380   38.1640   35.5790 C.cat 117  ARG117      0.5346
     69  NH1       26.0730   39.0620   35.0050 N.pl3 117  ARG117      0.1354
     70  NH2       25.7580   37.3530   36.5320 N.pl3 117  ARG117      0.1354
     71  N         22.9740   38.9790   28.0500 N.am  118  SER118     -0.1938
     72  CA        22.5120   39.6530   26.8750 C.3   118  SER118      0.2055
     73  C         23.2370   39.0780   25.6500 C.2   118  SER118      0.2643
     74  O         23.7340   37.9540   25.7000 O.2   118  SER118     -0.2714
     75  CB        22.7000   41.1910   27.0300 C.3   118  SER118      0.2130
     76  OG        22.1660   41.9660   25.9080 O.3   118  SER118     -0.2179
     77  N         23.2810   39.8540   24.5610 N.am  119  ALA119     -0.1963
     78  CA        23.8740   39.4490   23.2980 C.3   119  ALA119      0.1728
     79  C         24.1030   40.7280   22.5200 C.2   119  ALA119      0.2616
     80  O         23.5740   41.7940   22.8670 O.2   119  ALA119     -0.2715
     81  CB        22.9150   38.5420   22.5120 C.3   119  ALA119      0.0334
     82  N         24.8800   40.6280   21.4550 N.am  120  SER120     -0.1950
     83  CA        24.9560   41.6590   20.4210 C.3   120  SER120      0.1924
     84  C         25.3760   42.9650   21.0810 C.2   120  SER120      0.2314
     85  O         26.3490   42.9800   21.8460 O.2   120  SER120     -0.2863
     86  CB        23.6070   41.7460   19.6670 C.3   120  SER120      0.2116
     87  OG        23.5510   42.8310   18.7150 O.3   120  SER120     -0.2180
     88  N         17.4760   44.2420   27.3910 N.3   155  THR155     -0.1218
     89  CA        17.5680   43.9630   25.9650 C.3   155  THR155      0.1862
     90  C         16.1830   43.6130   25.4280 C.2   155  THR155      0.2287
     91  O         15.3680   42.9320   26.0940 O.2   155  THR155     -0.2866
     92  CB        18.4870   42.7330   25.7170 C.3   155  THR155      0.1770
     93  OG1       19.7400   42.9900   26.3330 O.3   155  THR155     -0.2211
     94  CG2       18.7100   42.4180   24.1900 C.3   155  THR155      0.0375
     95  N         14.0840   42.7470   21.4410 N.3   157  PHE157     -0.1241
     96  CA        14.2210   42.5200   20.0210 C.3   157  PHE157      0.1605
     97  C         12.9300   42.1230   19.3560 C.2   157  PHE157      0.2264
     98  O         12.0180   41.5830   19.9950 O.2   157  PHE157     -0.2867
     99  CB        15.3240   41.5210   19.6990 C.3   157  PHE157      0.0534
    100  CG        15.1400   40.1340   20.2450 C.ar  157  PHE157     -0.0203
    101  CD1       14.7340   39.0930   19.4290 C.ar  157  PHE157     -0.0042
    102  CD2       15.5200   39.8330   21.5320 C.ar  157  PHE157     -0.0042
    103  CE1       14.6830   37.7900   19.9020 C.ar  157  PHE157     -0.0003
    104  CE2       15.4510   38.5190   22.0350 C.ar  157  PHE157     -0.0003
    105  CZ        15.0250   37.5170   21.2460 C.ar  157  PHE157     -0.0000
    106  N         16.6900   30.7350   16.5380 N.3   165  LEU165     -0.1245
    107  CA        16.6360   30.7190   18.0100 C.3   165  LEU165      0.1561
    108  C         15.8110   29.5380   18.5320 C.2   165  LEU165      0.2260
    109  O         16.2080   28.8430   19.4930 O.2   165  LEU165     -0.2867
    110  CB        16.0980   32.0480   18.5690 C.3   165  LEU165      0.0270
    111  CG        17.0840   33.2540   18.5900 C.3   165  LEU165      0.0019
    112  CD1       16.3240   34.6030   18.7260 C.3   165  LEU165      0.0001
    113  CD2       18.2500   33.1000   19.6590 C.3   165  LEU165      0.0001
    114  N         17.1740   28.0280   22.1280 N.3   170  ARG170     -0.1245
    115  CA        17.3220   29.3020   22.8610 C.3   170  ARG170      0.1563
    116  C         16.0090   29.9710   23.2800 C.2   170  ARG170      0.2260
    117  O         16.0220   31.0380   23.8550 O.2   170  ARG170     -0.2867
    118  CB        18.1460   30.2790   22.0150 C.3   170  ARG170      0.0307
    119  CG        19.6410   30.1380   22.2140 C.3   170  ARG170      0.0489
    120  CD        20.2310   28.8180   21.8050 C.3   170  ARG170      0.2205
    121  NE        21.6460   28.7710   22.1190 N.pl3 170  ARG170     -0.0865
    122  CZ        22.4940   27.8520   21.6780 C.cat 170  ARG170      0.5346
    123  NH1       22.1070   26.8970   20.8220 N.pl3 170  ARG170      0.1354
    124  NH2       23.7540   27.9010   22.0710 N.pl3 170  ARG170      0.1354
    125  N         15.1970   40.1790   27.1040 N.3   187  SER187     -0.1217
    126  CA        15.9180   39.5090   28.1740 C.3   187  SER187      0.1889
    127  C         15.0900   39.4310   29.4420 C.2   187  SER187      0.2288
    128  O         14.2470   40.2820   29.6770 O.2   187  SER187     -0.2866
    129  CB        17.1850   40.2830   28.5550 C.3   187  SER187      0.2089
    130  OG        16.8910   41.6230   28.9200 O.3   187  SER187     -0.2183
    131  N         19.1930   36.5130   32.0560 N.3   191  GLY191     -0.1210
    132  CA        19.8320   36.3270   30.7190 C.3   191  GLY191      0.1956
    133  C         19.1600   35.2900   29.8300 C.2   191  GLY191      0.2613
    134  O         19.7990   34.7660   28.9130 O.2   191  GLY191     -0.2717
    135  N         17.9040   34.9420   30.1220 N.am  192  THR192     -0.1938
    136  CA        17.1300   34.1080   29.2270 C.3   192  THR192      0.2028
    137  C         16.2570   35.0400   28.3490 C.2   192  THR192      0.2642
    138  O         16.1860   36.2520   28.5800 O.2   192  THR192     -0.2714
    139  CB        16.2300   33.0600   29.9590 C.3   192  THR192      0.1808
    140  OG1       15.3350   33.7390   30.8300 O.3   192  THR192     -0.2208
    141  CG2       17.0710   32.0040   30.7530 C.3   192  THR192      0.0379
    142  N         15.5810   34.4590   27.3570 N.am  193  ILE193     -0.1977
    143  CA        14.6990   35.2080   26.4890 C.3   193  ILE193      0.1596
    144  C         13.2510   35.0050   26.9180 C.2   193  ILE193      0.2287
    145  O         12.8470   33.8870   27.2320 O.2   193  ILE193     -0.2864
    146  CB        14.8870   34.7600   25.0200 C.3   193  ILE193      0.0276
    147  CG1       16.3500   35.0350   24.5930 C.3   193  ILE193      0.0022
    148  CG2       13.8610   35.4860   24.0850 C.3   193  ILE193      0.0022
    149  CD1       16.7790   34.4450   23.2660 C.3   193  ILE193      0.0001
    150  N         27.4360   36.1720   14.4940 N.3   258  ILE258     -0.1231
    151  CA        26.5260   35.4120   15.3770 C.3   258  ILE258      0.1692
    152  C         25.1600   36.1150   15.5020 C.2   258  ILE258      0.2592
    153  O         24.1190   35.4670   15.4490 O.2   258  ILE258     -0.2718
    154  CB        27.1630   35.2030   16.7480 C.3   258  ILE258      0.0266
    155  CG1       28.4060   34.3060   16.5950 C.3   258  ILE258      0.0019
    156  CG2       26.1580   34.5880   17.7390 C.3   258  ILE258      0.0020
    157  CD1       28.1100   32.8620   16.1570 C.3   258  ILE258      0.0001
    158  N         25.1730   37.4330   15.6180 N.am  259  SER259     -0.1952
    159  CA        23.9430   38.1970   15.6990 C.3   259  SER259      0.1924
    160  C         23.0800   38.0070   14.4390 C.2   259  SER259      0.2314
    161  O         21.8640   37.8310   14.5230 O.2   259  SER259     -0.2863
    162  CB        24.2550   39.6760   15.9580 C.3   259  SER259      0.2116
    163  OG        24.7920   39.9000   17.2910 O.3   259  SER259     -0.2180
    164  N         21.3330   34.4480   14.3930 N.3   262  TYR262     -0.1227
    165  CA        20.1650   34.3170   15.2720 C.3   262  TYR262      0.1736
    166  C         19.0940   35.3910   15.0490 C.2   262  TYR262      0.2595
    167  O         17.9060   35.1260   15.2610 O.2   262  TYR262     -0.2718
    168  CB        20.6170   34.2170   16.7410 C.3   262  TYR262      0.0548
    169  CG        21.2850   32.8740   16.9980 C.ar  262  TYR262     -0.0200
    170  CD1       20.5170   31.7180   17.1580 C.ar  262  TYR262     -0.0009
    171  CD2       22.6430   32.7250   16.9610 C.ar  262  TYR262     -0.0009
    172  CE1       21.0800   30.5050   17.3810 C.ar  262  TYR262      0.0417
    173  CE2       23.2560   31.4500   17.1670 C.ar  262  TYR262      0.0417
    174  CZ        22.4590   30.3580   17.3670 C.ar  262  TYR262      0.1957
    175  OH        22.9810   29.0840   17.5420 O.3   262  TYR262     -0.2866
    176  N         19.4750   36.5840   14.6120 N.am  263  ALA263     -0.1980
    177  CA        18.4720   37.6420   14.3840 C.3   263  ALA263      0.1597
    178  C         17.7570   37.4700   13.0460 C.2   263  ALA263      0.2287
    179  O         16.5630   37.7950   12.8900 O.2   263  ALA263     -0.2864
    180  CB        19.1220   39.0230   14.4700 C.3   263  ALA263      0.0319
    181  N         17.5000   44.6880   17.2600 N.3   269  ILE269     -0.1245
    182  CA        17.8140   44.4970   18.6590 C.3   269  ILE269      0.1561
    183  C         18.0370   45.8690   19.2820 C.2   269  ILE269      0.2260
    184  O         18.7830   46.6940   18.7300 O.2   269  ILE269     -0.2867
    185  CB        19.1080   43.6480   18.7950 C.3   269  ILE269      0.0252
    186  CG1       18.9150   42.2670   18.1410 C.3   269  ILE269      0.0019
    187  CG2       19.5390   43.5310   20.2960 C.3   269  ILE269      0.0019
    188  CD1       20.2080   41.6480   17.7120 C.3   269  ILE269      0.0001
@<TRIPOS>BOND
     1   179   178    2
     2   178   177    1
     3   177   180    1
     4   177   176    1
     5   164   165    1
     6   160   161    2
     7   160   159    1
     8   150   151    1
     9   176   166   am
    10   166   167    2
    11   166   165    1
    12    21    19    1
    13    10     9    2
    14   165   168    1
    15   151   152    1
    16   151   154    1
    17   153   152    2
    18   152   158   am
    19   158   159    1
    20    15    16    1
    21   159   162    1
    22   162   163    1
    23    16    19    1
    24    16    17    1
    25   157   155    1
    26     9     8    1
    27    19    20    1
    28   106   107    1
    29   155   154    1
    30   168   169    1
    31   154   156    1
    32   171   169   ar
    33   171   173   ar
    34    27    26    1
    35   169   170   ar
    36   170   172   ar
    37   173   174   ar
    38    17    22   am
    39    17    18    2
    40   181   182    1
    41   174   172   ar
    42   174   175    1
    43    22    23    1
    44     7     8    1
    45     8    11    1
    46   188   186    1
    47    11    12    1
    48   107   108    1
    49   107   110    1
    50    26    23    1
    51   186   185    1
    52   108   109    2
    53    23    24    1
    54   110   111    1
    55   111   112    1
    56   111   113    1
    57     4     3    2
    58   182   185    1
    59   182   183    1
    60    25    24    2
    61    87    86    1
    62   184   183    2
    63   185   187    1
    64     2     1    1
    65     2     3    1
    66     2     5    1
    67    24    28   am
    68    97    98    2
    69    97    96    1
    70   101   103   ar
    71   101   100   ar
    72    12    14    1
    73    12    13    1
    74    86    83    1
    75    99    96    1
    76    99   100    1
    77     6     5    1
    78   103   105   ar
    79    96    95    1
    80   100   102   ar
    81    83    84    1
    82    83    82    1
    83    28    29    1
    84    31    30    2
    85   123   122    1
    86    84    85    2
    87    30    29    1
    88   105   104   ar
    89    29    32    1
    90    82    79   am
    91   102   104   ar
    92   122   124    1
    93   122   121    2
    94   120   121    1
    95   120   119    1
    96   118   119    1
    97   118   115    1
    98   114   115    1
    99    40    39    1
   100    81    78    1
   101    79    80    2
   102    79    78    1
   103    41    39    1
   104   115   116    1
   105    32    33    1
   106    39    38    1
   107   149   147    1
   108   116   117    2
   109    78    77    1
   110    55    54    1
   111    45    44    2
   112   148   146    1
   113    94    92    1
   114    54    51    1
   115    77    73   am
   116    38    35    1
   117   147   146    1
   118   146   143    1
   119    44    50   am
   120    44    43    1
   121    51    50    1
   122    51    52    1
   123    48    47    1
   124    46    47    1
   125    46    43    1
   126    49    47    1
   127    90    89    1
   128    90    91    2
   129    35    34    1
   130    35    36    1
   131    73    74    2
   132    73    72    1
   133    56    52   am
   134    56    57    1
   135    92    89    1
   136    92    93    1
   137    43    42    1
   138    76    75    1
   139    89    88    1
   140    52    53    2
   141   143   144    1
   142   143   142    1
   143    58    57    1
   144    58    59    2
   145    72    75    1
   146    72    71    1
   147   144   145    2
   148    36    37    2
   149   125   126    1
   150   142   137   am
   151    71    62   am
   152   126   129    1
   153   126   127    1
   154   137   138    2
   155   137   136    1
   156   129   130    1
   157   134   133    2
   158    62    63    2
   159    62    61    1
   160   136   139    1
   161   136   135    1
   162   127   128    2
   163   133   135   am
   164   133   132    1
   165   139   141    1
   166   139   140    1
   167    60    61    1
   168    61    64    1
   169   132   131    1
   170    64    65    1
   171    65    66    1
   172    66    67    1
   173    69    68    1
   174    67    68    2
   175    68    70    1
