@<TRIPOS>MOLECULE
tmp/3jrsB00.pdb
 192 183 0 0 0
SMALL
GASTEIGER

@<TRIPOS>ATOM
      1  N         63.4660   -0.5990   24.0890 N.3    57  LYS57      -0.1245
      2  CA        63.4250   -2.0200   23.9070 C.3    57  LYS57       0.1561
      3  C         64.2420   -2.4520   22.6720 C.2    57  LYS57       0.2260
      4  O         64.0180   -1.9900   21.5400 O.2    57  LYS57      -0.2867
      5  CB        61.9970   -2.5440   23.9040 C.3    57  LYS57       0.0271
      6  CG        61.3660   -2.4640   25.3670 C.3    57  LYS57       0.0035
      7  CD        59.9420   -3.1270   25.3510 C.3    57  LYS57       0.0206
      8  CE        59.1950   -2.7940   26.6630 C.3    57  LYS57       0.1093
      9  NZ        58.0410   -3.7560   26.7860 N.3    57  LYS57      -0.1314
     10  N         64.7960   -4.9720   20.7280 N.3    59  PHE59      -0.1227
     11  CA        64.2790   -5.5390   19.4580 C.3    59  PHE59       0.1736
     12  C         62.9750   -4.9630   18.9710 C.2    59  PHE59       0.2595
     13  O         62.3730   -5.4820   18.0350 O.2    59  PHE59      -0.2718
     14  CB        64.0020   -7.0460   19.6160 C.3    59  PHE59       0.0547
     15  CG        65.2590   -7.8830   19.7410 C.ar   59  PHE59      -0.0202
     16  CD1       66.2160   -7.8610   18.7340 C.ar   59  PHE59      -0.0042
     17  CD2       65.4830   -8.6570   20.8830 C.ar   59  PHE59      -0.0042
     18  CE1       67.4130   -8.6350   18.7990 C.ar   59  PHE59      -0.0003
     19  CE2       66.6630   -9.4590   20.9620 C.ar   59  PHE59      -0.0003
     20  CZ        67.6190   -9.4120   19.9310 C.ar   59  PHE59      -0.0000
     21  N         62.5250   -3.8860   19.5570 N.am   60  ILE60      -0.1980
     22  CA        61.2360   -3.3000   19.1290 C.3    60  ILE60       0.1595
     23  C         61.5480   -2.1340   18.1770 C.2    60  ILE60       0.2287
     24  O         62.2640   -1.1680   18.5420 O.2    60  ILE60      -0.2864
     25  CB        60.4330   -2.7190   20.3320 C.3    60  ILE60       0.0276
     26  CG1       59.9280   -3.8430   21.2790 C.3    60  ILE60       0.0022
     27  CG2       59.2100   -1.9880   19.7950 C.3    60  ILE60       0.0022
     28  CD1       59.3130   -5.0870   20.5130 C.3    60  ILE60       0.0001
     29  N         53.1150   -3.4250   19.2860 N.3    79  VAL79      -0.1245
     30  CA        54.5310   -3.1140   19.0120 C.3    79  VAL79       0.1561
     31  C         54.9910   -4.0170   17.8720 C.2    79  VAL79       0.2260
     32  O         54.5050   -5.1600   17.7950 O.2    79  VAL79      -0.2867
     33  CB        55.4350   -3.2530   20.2830 C.3    79  VAL79       0.0252
     34  CG1       54.8830   -2.3750   21.4040 C.3    79  VAL79       0.0019
     35  CG2       55.4440   -4.5990   20.7750 C.3    79  VAL79       0.0019
     36  N         58.3280   -5.8550   15.9270 N.3    81  VAL81      -0.1245
     37  CA        59.6590   -6.3210   16.2000 C.3    81  VAL81       0.1561
     38  C         60.6120   -5.9900   15.0300 C.2    81  VAL81       0.2260
     39  O         60.1500   -5.7860   13.9230 O.2    81  VAL81      -0.2867
     40  CB        59.5810   -7.8770   16.4680 C.3    81  VAL81       0.0252
     41  CG1       60.8740   -8.4110   16.7570 C.3    81  VAL81       0.0019
     42  CG2       58.6750   -8.1040   17.6730 C.3    81  VAL81       0.0019
     43  N         63.5410  -11.4090   13.2740 N.3    85  LEU85      -0.1231
     44  CA        62.9540  -12.1910   14.3930 C.3    85  LEU85       0.1678
     45  C         61.6380  -12.8130   13.9280 C.2    85  LEU85       0.2434
     46  O         60.9030  -12.1430   13.2230 O.2    85  LEU85      -0.2733
     47  CB        62.7430  -11.3550   15.6060 C.3    85  LEU85       0.0284
     48  CG        63.9980  -10.9630   16.4220 C.3    85  LEU85       0.0019
     49  CD1       63.5640  -10.2400   17.6680 C.3    85  LEU85       0.0001
     50  CD2       64.8050  -12.1710   16.8470 C.3    85  LEU85       0.0001
     51  N         61.3570  -14.0860   14.2660 N.am   86  PRO86      -0.2718
     52  CA        60.0900  -14.6840   13.7580 C.3    86  PRO86       0.1535
     53  C         58.7740  -14.0100   14.3080 C.2    86  PRO86       0.2598
     54  O         57.8040  -13.9690   13.6020 O.2    86  PRO86      -0.2715
     55  CB        60.1760  -16.1440   14.1970 C.3    86  PRO86       0.0310
     56  CG        61.1280  -16.1690   15.3620 C.3    86  PRO86       0.0237
     57  CD        62.0790  -15.0010   15.1690 C.3    86  PRO86       0.0939
     58  N         58.7800  -13.5120   15.5360 N.am   87  ALA87      -0.1978
     59  CA        57.6240  -12.8380   16.1240 C.3    87  ALA87       0.1597
     60  C         57.1480  -11.6310   15.2650 C.2    87  ALA87       0.2287
     61  O         57.9490  -10.8790   14.7080 O.2    87  ALA87      -0.2864
     62  CB        57.9110  -12.3920   17.4960 C.3    87  ALA87       0.0319
     63  N         54.2090   -9.2260   15.7970 N.3    89  THR89      -0.1203
     64  CA        53.5980   -8.0610   16.3280 C.3    89  THR89       0.1994
     65  C         53.2950   -8.6360   17.7000 C.2    89  THR89       0.2618
     66  O         53.5170   -9.9060   17.8820 O.2    89  THR89      -0.2717
     67  CB        52.3440   -7.9610   15.7050 C.3    89  THR89       0.1784
     68  OG1       52.2410   -6.6910   14.9910 O.3    89  THR89      -0.2211
     69  CG2       51.2700   -8.2430   16.7730 C.3    89  THR89       0.0376
     70  N         52.9980   -7.7550   18.6570 N.am   90  SER90      -0.1951
     71  CA        52.5260   -8.1400   19.9940 C.3    90  SER90       0.1924
     72  C         51.4670   -7.1360   20.3970 C.2    90  SER90       0.2314
     73  O         51.6540   -5.9060   20.2550 O.2    90  SER90      -0.2863
     74  CB        53.6970   -8.1730   20.9540 C.3    90  SER90       0.2116
     75  OG        53.2920   -8.4800   22.2800 O.3    90  SER90      -0.2180
     76  N         49.3550   -5.6250   23.5410 N.3    92  GLU92      -0.1245
     77  CA        49.6920   -5.5020   24.9500 C.3    92  GLU92       0.1567
     78  C         48.8070   -4.4970   25.6700 C.2    92  GLU92       0.2260
     79  O         48.3690   -3.5080   25.1090 O.2    92  GLU92      -0.2867
     80  CB        51.1730   -5.0740   25.0820 C.3    92  GLU92       0.0388
     81  CG        52.1060   -6.1550   24.3340 C.3    92  GLU92       0.1160
     82  CD        53.6050   -5.8270   24.3100 C.2    92  GLU92       0.3649
     83  OE1       54.0080   -4.6780   24.6530 O.co2  92  GLU92      -0.2457
     84  OE2       54.3610   -6.7430   23.8960 O.co2  92  GLU92      -0.2457
     85  N         52.5930   -4.6930   32.2990 N.3   106  PHE106     -0.1241
     86  CA        51.6590   -4.8970   31.1760 C.3   106  PHE106      0.1605
     87  C         51.4340   -6.3930   30.9670 C.2   106  PHE106      0.2264
     88  O         52.2240   -7.2120   31.4760 O.2   106  PHE106     -0.2867
     89  CB        52.2260   -4.2430   29.9110 C.3   106  PHE106      0.0534
     90  CG        53.4140   -4.9480   29.3100 C.ar  106  PHE106     -0.0203
     91  CD1       53.2210   -5.9060   28.3080 C.ar  106  PHE106     -0.0042
     92  CD2       54.7200   -4.6220   29.6810 C.ar  106  PHE106     -0.0042
     93  CE1       54.2880   -6.4980   27.6660 C.ar  106  PHE106     -0.0003
     94  CE2       55.8500   -5.2550   29.0490 C.ar  106  PHE106     -0.0003
     95  CZ        55.6460   -6.1710   28.0590 C.ar  106  PHE106     -0.0000
     96  N         50.5850   -9.2400   27.7710 N.3   108  ILE108     -0.1245
     97  CA        50.4240   -9.5060   26.3490 C.3   108  ILE108      0.1561
     98  C         49.1680  -10.3230   26.0990 C.2   108  ILE108      0.2260
     99  O         49.0840  -11.4630   26.4950 O.2   108  ILE108     -0.2867
    100  CB        51.6570  -10.3100   25.7930 C.3   108  ILE108      0.0252
    101  CG1       52.9010   -9.4130   25.9130 C.3   108  ILE108      0.0019
    102  CG2       51.3440  -10.7910   24.3320 C.3   108  ILE108      0.0019
    103  CD1       54.2800  -10.1360   25.5030 C.3   108  ILE108      0.0001
    104  N         53.2970  -14.7770   18.2050 N.3   113  HIS113     -0.1226
    105  CA        54.5680  -15.0990   18.7370 C.3   113  HIS113      0.1752
    106  C         54.3230  -16.1520   19.8230 C.2   113  HIS113      0.2596
    107  O         53.2030  -16.4690   20.1570 O.2   113  HIS113     -0.2718
    108  CB        55.1970  -13.8590   19.3290 C.3   113  HIS113      0.0759
    109  CG        54.3130  -13.1740   20.2990 C.ar  113  HIS113      0.0818
    110  ND1       54.0860  -13.6520   21.5820 N.ar  113  HIS113     -0.2268
    111  CD2       53.5920  -12.0340   20.1760 C.ar  113  HIS113      0.1154
    112  CE1       53.2280  -12.8500   22.1830 C.ar  113  HIS113      0.1986
    113  NE2       52.9460  -11.8360   21.3740 N.ar  113  HIS113     -0.2212
    114  N         55.3680  -16.6240   20.4330 N.am  114  ARG114     -0.1966
    115  CA        55.1980  -17.7810   21.2870 C.3   114  ARG114      0.1729
    116  C         54.9800  -17.4530   22.7790 C.2   114  ARG114      0.2616
    117  O         54.9350  -18.3750   23.5910 O.2   114  ARG114     -0.2715
    118  CB        56.4230  -18.7200   21.0810 C.3   114  ARG114      0.0348
    119  CG        57.7830  -17.9750   21.3180 C.3   114  ARG114      0.0492
    120  CD        58.9840  -18.8210   20.8050 C.3   114  ARG114      0.2205
    121  NE        59.1470  -20.0210   21.6240 N.pl3 114  ARG114     -0.0865
    122  CZ        58.8200  -21.2660   21.2550 C.cat 114  ARG114      0.5346
    123  NH1       58.3210  -21.5320   20.0440 N.pl3 114  ARG114      0.1354
    124  NH2       58.9950  -22.2630   22.1140 N.pl3 114  ARG114      0.1354
    125  N         54.8640  -16.1830   23.1660 N.am  115  LEU115     -0.1977
    126  CA        54.6280  -15.8740   24.5730 C.3   115  LEU115      0.1596
    127  C         53.1070  -15.8400   24.8600 C.2   115  LEU115      0.2287
    128  O         52.3410  -15.0390   24.3070 O.2   115  LEU115     -0.2864
    129  CB        55.4000  -14.6540   25.0300 C.3   115  LEU115      0.0297
    130  CG        56.9350  -14.6450   24.7540 C.3   115  LEU115      0.0022
    131  CD1       57.6530  -13.4820   25.2590 C.3   115  LEU115      0.0001
    132  CD2       57.6800  -15.9060   25.2030 C.3   115  LEU115      0.0001
    133  N         51.5770  -13.8140   28.8680 N.3   118  TYR118     -0.1241
    134  CA        52.7690  -13.1350   29.4200 C.3   118  TYR118      0.1605
    135  C         52.3390  -11.8860   30.1870 C.2   118  TYR118      0.2264
    136  O         51.4790  -11.1110   29.7270 O.2   118  TYR118     -0.2867
    137  CB        53.7170  -12.6900   28.2860 C.3   118  TYR118      0.0534
    138  CG        55.0100  -11.9790   28.7610 C.ar  118  TYR118     -0.0201
    139  CD1       55.0320  -10.6040   28.9570 C.ar  118  TYR118     -0.0009
    140  CD2       56.2010  -12.6950   28.9890 C.ar  118  TYR118     -0.0009
    141  CE1       56.1940   -9.9430   29.3600 C.ar  118  TYR118      0.0417
    142  CE2       57.4060  -12.0050   29.3550 C.ar  118  TYR118      0.0417
    143  CZ        57.3470  -10.6760   29.5780 C.ar  118  TYR118      0.1957
    144  OH        58.4400   -9.9900   29.9370 O.3   118  TYR118     -0.2866
    145  N         62.6980   -6.0610   37.0010 N.3   135  GLU135     -0.1245
    146  CA        61.5830   -6.3990   36.1030 C.3   135  GLU135      0.1567
    147  C         61.3970   -7.8770   36.2030 C.2   135  GLU135      0.2260
    148  O         62.3800   -8.6090   36.2000 O.2   135  GLU135     -0.2867
    149  CB        61.9340   -6.0440   34.6350 C.3   135  GLU135      0.0388
    150  CG        60.7510   -6.4250   33.6650 C.3   135  GLU135      0.1160
    151  CD        60.8480   -5.6680   32.3440 C.2   135  GLU135      0.3649
    152  OE1       61.1260   -4.4240   32.3660 O.co2 135  GLU135     -0.2457
    153  OE2       60.4550   -6.2780   31.3590 O.co2 135  GLU135     -0.2457
    154  N         64.9930  -17.2850   26.6700 N.3   153  PHE153     -0.1227
    155  CA        64.5750  -16.3170   25.6750 C.3   153  PHE153      0.1736
    156  C         64.0550  -15.0140   26.3030 C.2   153  PHE153      0.2595
    157  O         64.4760  -13.8890   25.9360 O.2   153  PHE153     -0.2718
    158  CB        63.4720  -16.9220   24.7870 C.3   153  PHE153      0.0547
    159  CG        63.0480  -16.0220   23.7030 C.ar  153  PHE153     -0.0202
    160  CD1       63.7900  -15.9270   22.5290 C.ar  153  PHE153     -0.0042
    161  CD2       61.9730  -15.1510   23.8940 C.ar  153  PHE153     -0.0042
    162  CE1       63.4250  -14.9970   21.4940 C.ar  153  PHE153     -0.0003
    163  CE2       61.5930  -14.2290   22.8630 C.ar  153  PHE153     -0.0003
    164  CZ        62.3540  -14.1630   21.6670 C.ar  153  PHE153     -0.0000
    165  N         63.1290  -15.1290   27.2520 N.am  154  ALA154     -0.1980
    166  CA        62.4890  -13.8860   27.8030 C.3   154  ALA154      0.1597
    167  C         63.4950  -13.1070   28.6950 C.2   154  ALA154      0.2287
    168  O         63.6240  -11.8640   28.6270 O.2   154  ALA154     -0.2864
    169  CB        61.2220  -14.2690   28.6440 C.3   154  ALA154      0.0319
    170  N         65.8670  -11.1390   26.3110 N.3   157  VAL157     -0.1231
    171  CA        65.2180   -9.9420   25.7900 C.3   157  VAL157      0.1692
    172  C         65.1350   -8.8710   26.8870 C.2   157  VAL157      0.2591
    173  O         65.4410   -7.6950   26.6140 O.2   157  VAL157     -0.2718
    174  CB        63.7240  -10.2250   25.2750 C.3   157  VAL157      0.0266
    175  CG1       63.0890   -8.9390   24.7880 C.3   157  VAL157      0.0020
    176  CG2       63.7970  -11.2130   24.0730 C.3   157  VAL157      0.0020
    177  N         64.6940   -9.2410   28.1130 N.am  158  ILE158     -0.1980
    178  CA        64.4700   -8.2300   29.1480 C.3   158  ILE158      0.1595
    179  C         65.8450   -7.6240   29.4860 C.2   158  ILE158      0.2287
    180  O         66.0000   -6.4390   29.5940 O.2   158  ILE158     -0.2864
    181  CB        63.7820   -8.8210   30.4120 C.3   158  ILE158      0.0276
    182  CG1       62.2970   -9.1730   30.0850 C.3   158  ILE158      0.0022
    183  CG2       63.8710   -7.7780   31.5280 C.3   158  ILE158      0.0022
    184  CD1       61.5770  -10.0710   31.0480 C.3   158  ILE158      0.0001
    185  N         66.8300   -5.2100   26.9850 N.3   161  ASN161     -0.1240
    186  CA        66.0410   -3.9760   27.1220 C.3   161  ASN161      0.1653
    187  C         66.5720   -3.1020   28.2980 C.2   161  ASN161      0.2266
    188  O         66.6490   -1.8710   28.1810 O.2   161  ASN161     -0.2867
    189  CB        64.5020   -4.2960   27.4130 C.3   161  ASN161      0.1155
    190  CG        63.8410   -5.0150   26.2380 C.2   161  ASN161      0.2627
    191  OD1       64.4150   -5.0290   25.1020 O.2   161  ASN161     -0.2716
    192  ND2       62.6500   -5.5840   26.4750 N.am  161  ASN161     -0.0877
@<TRIPOS>BOND
     1    46    45    2
     2    43    44    1
     3    54    53    2
     4    52    55    1
     5    52    51    1
     6    52    53    1
     7    39    38    2
     8    45    51   am
     9    45    44    1
    10    55    56    1
    11    51    57    1
    12    53    58   am
    13    44    47    1
    14    61    60    2
    15    68    67    1
    16    38    37    1
    17    57    56    1
    18    60    59    1
    19    58    59    1
    20    47    48    1
    21    67    64    1
    22    67    69    1
    23    63    64    1
    24    36    37    1
    25    59    62    1
    26    37    40    1
    27    64    65    1
    28    48    50    1
    29    48    49    1
    30    40    41    1
    31    40    42    1
    32    65    66    2
    33    65    70   am
    34    32    31    2
    35    31    30    1
    36    13    12    2
    37    23    24    2
    38    23    22    1
    39   104   105    1
    40    70    71    1
    41    16    18   ar
    42    16    15   ar
    43   105   108    1
    44   105   106    1
    45    18    20   ar
    46    12    11    1
    47    12    21   am
    48    30    29    1
    49    30    33    1
    50    22    21    1
    51    22    25    1
    52   108   109    1
    53    11    14    1
    54    11    10    1
    55    14    15    1
    56    15    17   ar
    57    27    25    1
    58   106   107    2
    59   106   114   am
    60    20    19   ar
    61    71    72    1
    62    71    74    1
    63   123   122    1
    64   111   109   ar
    65   111   113   ar
    66    73    72    2
    67    33    35    1
    68    33    34    1
    69   109   110   ar
    70    25    26    1
    71   114   115    1
    72    28    26    1
    73   120   119    1
    74   120   121    1
    75    17    19   ar
    76    74    75    1
    77   118   115    1
    78   118   119    1
    79   122   121    2
    80   122   124    1
    81   115   116    1
    82   113   112   ar
    83   162   164   ar
    84   162   160   ar
    85     4     3    2
    86   110   112   ar
    87   164   163   ar
    88   160   159   ar
    89     3     2    1
    90   116   125   am
    91   116   117    2
    92   163   161   ar
    93   125   126    1
    94    76    77    1
    95   159   161   ar
    96   159   158    1
    97    84    82   ar
    98     5     2    1
    99     5     6    1
   100     2     1    1
   101   176   174    1
   102   128   127    2
   103    82    81    1
   104    82    83   ar
   105   102   100    1
   106    81    80    1
   107   126   127    1
   108   126   129    1
   109   130   129    1
   110   130   132    1
   111   130   131    1
   112   158   155    1
   113   175   174    1
   114    77    80    1
   115    77    78    1
   116   191   190    2
   117    79    78    2
   118   174   171    1
   119     7     6    1
   120     7     8    1
   121   103   101    1
   122   155   156    1
   123   155   154    1
   124   171   170    1
   125   171   172    1
   126   100   101    1
   127   100    97    1
   128   157   156    2
   129    98    97    1
   130    98    99    2
   131   190   192   am
   132   190   189    1
   133   156   165   am
   134    97    96    1
   135   173   172    2
   136     8     9    1
   137   172   177   am
   138   185   186    1
   139   186   189    1
   140   186   187    1
   141   165   166    1
   142    93    95   ar
   143    93    91   ar
   144   166   169    1
   145   166   167    1
   146    95    94   ar
   147   177   178    1
   148   188   187    2
   149   137   138    1
   150   137   134    1
   151    91    90   ar
   152   168   167    2
   153   138   139   ar
   154   138   140   ar
   155   133   134    1
   156   139   141   ar
   157   140   142   ar
   158    94    92   ar
   159   178   179    1
   160   178   181    1
   161    90    92   ar
   162    90    89    1
   163   142   143   ar
   164   141   143   ar
   165   134   135    1
   166   179   180    2
   167   143   144    1
   168   136   135    2
   169    89    86    1
   170   182   181    1
   171   182   184    1
   172   181   183    1
   173    87    86    1
   174    87    88    2
   175    86    85    1
   176   153   151   ar
   177   151   152   ar
   178   151   150    1
   179   150   149    1
   180   149   146    1
   181   146   147    1
   182   146   145    1
   183   148   147    2
