@<TRIPOS>MOLECULE
tmp/3jrxA00.pdb
 186 180 0 0 0
SMALL
GASTEIGER

@<TRIPOS>ATOM
      1  N        -47.6020   10.8990  -15.4240 N.3    34  ILE34      -0.1245
      2  CA       -47.1930   12.2870  -15.5250 C.3    34  ILE34       0.1561
      3  C        -46.0010   12.4770  -16.4600 C.2    34  ILE34       0.2260
      4  O        -45.9460   13.4670  -17.1860 O.2    34  ILE34      -0.2867
      5  CB       -46.8980   12.8780  -14.1190 C.3    34  ILE34       0.0252
      6  CG1      -46.8300   14.4030  -14.2070 C.3    34  ILE34       0.0019
      7  CG2      -45.6290   12.2920  -13.5450 C.3    34  ILE34       0.0019
      8  CD1      -48.1190   15.0230  -14.7340 C.3    34  ILE34       0.0001
      9  N        -47.2840   12.6010  -20.0970 N.3    37  VAL37      -0.1231
     10  CA       -48.0780   13.8080  -20.3310 C.3    37  VAL37       0.1692
     11  C        -47.1200   14.9950  -20.4170 C.2    37  VAL37       0.2591
     12  O        -47.1990   15.8050  -21.3390 O.2    37  VAL37      -0.2718
     13  CB       -49.1160   14.0350  -19.1780 C.3    37  VAL37       0.0266
     14  CG1      -49.7230   15.4450  -19.2580 C.3    37  VAL37       0.0020
     15  CG2      -50.2030   12.9720  -19.2480 C.3    37  VAL37       0.0020
     16  N        -46.2070   15.0770  -19.4560 N.am   38  LYS38      -0.1980
     17  CA       -45.2240   16.1440  -19.4190 C.3    38  LYS38       0.1596
     18  C        -44.3790   16.2140  -20.6950 C.2    38  LYS38       0.2287
     19  O        -44.1940   17.2860  -21.2770 O.2    38  LYS38      -0.2864
     20  CB       -44.2980   15.9620  -18.2160 C.3    38  LYS38       0.0298
     21  CG       -43.2630   17.0650  -18.0810 C.3    38  LYS38       0.0038
     22  CD       -43.9600   18.4350  -18.0470 C.3    38  LYS38       0.0206
     23  CE       -42.9910   19.5700  -17.6900 C.3    38  LYS38       0.1093
     24  NZ       -41.9190   19.7190  -18.7010 N.3    38  LYS38      -0.1314
     25  N        -46.5650   17.2780  -23.6610 N.3    41  ARG41      -0.1231
     26  CA       -46.9720   18.6600  -23.5090 C.3    41  ARG41       0.1694
     27  C        -45.8300   19.6490  -23.7540 C.2    41  ARG41       0.2592
     28  O        -46.0060   20.6240  -24.4860 O.2    41  ARG41      -0.2718
     29  CB       -47.6090   18.8770  -22.1330 C.3    41  ARG41       0.0321
     30  CG       -48.9620   19.5730  -22.2370 C.3    41  ARG41       0.0489
     31  CD       -50.1380   18.7760  -21.6420 C.3    41  ARG41       0.2205
     32  NE       -50.2660   19.0240  -20.2140 N.pl3  41  ARG41      -0.0865
     33  CZ       -51.3080   18.6740  -19.4680 C.cat  41  ARG41       0.5346
     34  NH1      -52.3490   18.0480  -19.9990 N.pl3  41  ARG41       0.1354
     35  NH2      -51.2990   18.9570  -18.1730 N.pl3  41  ARG41       0.1354
     36  N        -44.6580   19.3890  -23.1750 N.am   42  SER42      -0.1952
     37  CA       -43.5140   20.2850  -23.3550 C.3    42  SER42       0.1924
     38  C        -43.0570   20.4020  -24.8050 C.2    42  SER42       0.2314
     39  O        -42.8720   21.5070  -25.3190 O.2    42  SER42      -0.2863
     40  CB       -42.3380   19.8370  -22.4870 C.3    42  SER42       0.2116
     41  OG       -42.6170   20.0680  -21.1160 O.3    42  SER42      -0.2180
     42  N        -45.6100   22.2060  -27.1280 N.3    45  ARG45      -0.1245
     43  CA       -45.5770   23.6590  -27.0520 C.3    45  ARG45       0.1563
     44  C        -44.4220   24.1760  -27.9030 C.2    45  ARG45       0.2260
     45  O        -44.5530   25.1960  -28.5790 O.2    45  ARG45      -0.2867
     46  CB       -45.4190   24.1730  -25.6120 C.3    45  ARG45       0.0307
     47  CG       -44.6770   25.5270  -25.5560 C.3    45  ARG45       0.0489
     48  CD       -45.5110   26.7760  -25.2190 C.3    45  ARG45       0.2205
     49  NE       -46.7750   26.9550  -25.9320 N.pl3  45  ARG45      -0.0865
     50  CZ       -47.2330   28.1320  -26.3800 C.cat  45  ARG45       0.5346
     51  NH1      -46.5260   29.2460  -26.2230 N.pl3  45  ARG45       0.1354
     52  NH2      -48.4420   28.2140  -26.9240 N.pl3  45  ARG45       0.1354
     53  N        -39.2440   20.5280  -13.5830 N.3   348  PRO348     -0.2116
     54  CA       -39.9380   21.7910  -13.8490 C.3   348  PRO348      0.1372
     55  C        -39.4880   22.9690  -12.9800 C.2   348  PRO348      0.2244
     56  O        -39.5830   24.1160  -13.4150 O.2   348  PRO348     -0.2868
     57  CB       -41.4020   21.4280  -13.6400 C.3   348  PRO348      0.0268
     58  CG       -41.4410   19.9880  -14.0970 C.3   348  PRO348      0.0207
     59  CD       -40.2110   19.4230  -13.4340 C.3   348  PRO348      0.0892
     60  N        -36.8960   24.3870  -14.9650 N.3   351  GLU351     -0.1231
     61  CA       -37.4310   24.9680  -16.1900 C.3   351  GLU351      0.1699
     62  C        -38.0130   26.3590  -15.9610 C.2   351  GLU351      0.2592
     63  O        -37.8820   27.2470  -16.8050 O.2   351  GLU351     -0.2718
     64  CB       -38.5360   24.0890  -16.7590 C.3   351  GLU351      0.0402
     65  CG       -38.0990   22.7460  -17.2900 C.3   351  GLU351      0.1161
     66  CD       -39.2440   22.0670  -17.9960 C.2   351  GLU351      0.3649
     67  OE1      -40.2890   21.8680  -17.3380 O.co2 351  GLU351     -0.2457
     68  OE2      -39.1130   21.7520  -19.2000 O.co2 351  GLU351     -0.2457
     69  N        -38.6620   26.5240  -14.8080 N.am  352  MET352     -0.1979
     70  CA       -39.3030   27.7770  -14.4420 C.3   352  MET352      0.1605
     71  C        -38.3300   28.9090  -14.1180 C.2   352  MET352      0.2287
     72  O        -38.5170   30.0290  -14.5970 O.2   352  MET352     -0.2864
     73  CB       -40.2550   27.5490  -13.2660 C.3   352  MET352      0.0413
     74  CG       -41.0210   28.7890  -12.8370 C.3   352  MET352      0.0598
     75  SD       -42.1120   29.4160  -14.1350 S.3   352  MET352     -0.1393
     76  CE       -43.5390   28.3490  -13.9570 C.3   352  MET352      0.0692
     77  N        -36.2520   29.4060  -17.4580 N.3   355  ASP355     -0.1225
     78  CA       -37.0810   29.5710  -18.6560 C.3   355  ASP355      0.1805
     79  C        -36.5640   28.7090  -19.8080 C.2   355  ASP355      0.2598
     80  O        -36.4640   29.1350  -20.9610 O.2   355  ASP355     -0.2718
     81  CB       -37.1720   31.0520  -19.0660 C.3   355  ASP355      0.1424
     82  CG       -38.1570   31.2780  -20.2080 C.2   355  ASP355      0.3668
     83  OD1      -39.1400   30.5070  -20.2990 O.co2 355  ASP355     -0.2456
     84  OD2      -37.9600   32.2230  -21.0120 O.co2 355  ASP355     -0.2456
     85  N        -36.2430   27.4720  -19.4690 N.am  356  VAL356     -0.1966
     86  CA       -35.7450   26.5210  -20.4390 C.3   356  VAL356      0.1727
     87  C        -36.7030   25.3360  -20.4830 C.2   356  VAL356      0.2616
     88  O        -37.0950   24.8000  -19.4460 O.2   356  VAL356     -0.2715
     89  CB       -34.3210   26.0370  -20.0530 C.3   356  VAL356      0.0290
     90  CG1      -33.8910   24.8710  -20.9400 C.3   356  VAL356      0.0023
     91  CG2      -33.3290   27.1880  -20.1970 C.3   356  VAL356      0.0023
     92  N        -37.0900   24.9530  -21.6930 N.am  357  ASN357     -0.1972
     93  CA       -37.9750   23.8190  -21.9120 C.3   357  ASN357      0.1688
     94  C        -37.0560   22.5950  -22.0280 C.2   357  ASN357      0.2292
     95  O        -36.5440   22.2890  -23.1050 O.2   357  ASN357     -0.2864
     96  CB       -38.7480   24.0120  -23.2110 C.3   357  ASN357      0.1181
     97  CG       -39.8380   22.9770  -23.4040 C.2   357  ASN357      0.2629
     98  OD1      -39.6720   21.7880  -23.0800 O.2   357  ASN357     -0.2716
     99  ND2      -40.9590   23.4160  -23.9590 N.am  357  ASN357     -0.0877
    100  N        -34.7330   33.4440  -12.5100 N.3   403  ARG403     -0.1245
    101  CA       -35.9310   34.2640  -12.3490 C.3   403  ARG403      0.1563
    102  C        -36.8980   33.7410  -11.2720 C.2   403  ARG403      0.2260
    103  O        -37.6080   32.7550  -11.4740 O.2   403  ARG403     -0.2867
    104  CB       -36.6560   34.3670  -13.6920 C.3   403  ARG403      0.0307
    105  CG       -37.9820   35.1150  -13.6510 C.3   403  ARG403      0.0489
    106  CD       -38.7380   34.9480  -14.9730 C.3   403  ARG403      0.2205
    107  NE       -38.9320   33.5340  -15.3070 N.pl3 403  ARG403     -0.0865
    108  CZ       -39.5260   33.0870  -16.4140 C.cat 403  ARG403      0.5346
    109  NH1      -39.9970   33.9410  -17.3210 N.pl3 403  ARG403      0.1354
    110  NH2      -39.6510   31.7780  -16.6150 N.pl3 403  ARG403      0.1354
    111  N        -38.7370   28.8340   -6.5880 N.3   406  VAL406     -0.1245
    112  CA       -39.6860   27.7460   -6.6870 C.3   406  VAL406      0.1561
    113  C        -39.6270   26.8080   -5.4900 C.2   406  VAL406      0.2260
    114  O        -38.5560   26.5150   -4.9730 O.2   406  VAL406     -0.2867
    115  CB       -39.4260   26.8940   -7.9740 C.3   406  VAL406      0.0252
    116  CG1      -40.2080   25.5650   -7.8970 C.3   406  VAL406      0.0019
    117  CG2      -39.8030   27.7000   -9.2390 C.3   406  VAL406      0.0019
    118  N        -54.7810   16.4740  -12.6990 N.3   419  GLU419     -0.1245
    119  CA       -54.2050   17.8160  -12.6180 C.3   419  GLU419      0.1567
    120  C        -54.8600   18.5610  -11.4510 C.2   419  GLU419      0.2260
    121  O        -56.0830   18.5960  -11.3340 O.2   419  GLU419     -0.2867
    122  CB       -54.4710   18.5930  -13.9120 C.3   419  GLU419      0.0388
    123  CG       -53.2350   19.0870  -14.6700 C.3   419  GLU419      0.1160
    124  CD       -53.5580   20.2190  -15.6620 C.2   419  GLU419      0.3649
    125  OE1      -53.9460   21.3300  -15.2240 O.co2 419  GLU419     -0.2457
    126  OE2      -53.4300   19.9960  -16.8840 O.co2 419  GLU419     -0.2457
    127  N        -50.3360   30.7170   -9.2550 N.3   427  ASN427     -0.1225
    128  CA       -48.9170   30.4110   -9.4180 C.3   427  ASN427      0.1785
    129  C        -48.5290   29.0580   -8.8710 C.2   427  ASN427      0.2597
    130  O        -47.3670   28.8280   -8.5600 O.2   427  ASN427     -0.2718
    131  CB       -48.0480   31.4670   -8.7360 C.3   427  ASN427      0.1169
    132  CG       -48.0870   32.7950   -9.4480 C.2   427  ASN427      0.2627
    133  OD1      -48.1460   32.8510  -10.6750 O.2   427  ASN427     -0.2716
    134  ND2      -48.0330   33.8730   -8.6840 N.am  427  ASN427     -0.0877
    135  N        -49.5070   28.1680   -8.7470 N.am  428  VAL428     -0.1966
    136  CA       -49.2590   26.8330   -8.2340 C.3   428  VAL428      0.1727
    137  C        -49.9200   25.8000   -9.1310 C.2   428  VAL428      0.2616
    138  O        -51.0350   25.9940   -9.6020 O.2   428  VAL428     -0.2715
    139  CB       -49.8130   26.6680   -6.8100 C.3   428  VAL428      0.0290
    140  CG1      -49.5370   25.2540   -6.3140 C.3   428  VAL428      0.0023
    141  CG2      -49.1880   27.7080   -5.8840 C.3   428  VAL428      0.0023
    142  N        -49.2160   24.7090   -9.3770 N.am  429  TRP429     -0.1974
    143  CA       -49.7400   23.6370  -10.1990 C.3   429  TRP429      0.1640
    144  C        -49.4420   22.3160   -9.5110 C.2   429  TRP429      0.2290
    145  O        -48.4460   22.1840   -8.7950 O.2   429  TRP429     -0.2864
    146  CB       -49.0860   23.6560  -11.5710 C.3   429  TRP429      0.0576
    147  CG       -49.5820   22.5720  -12.4460 C.ar  429  TRP429      0.0006
    148  CD1      -50.7100   22.5870  -13.2110 C.ar  429  TRP429      0.0946
    149  CD2      -48.9940   21.2750  -12.6190 C.ar  429  TRP429      0.0152
    150  NE1      -50.8630   21.3770  -13.8510 N.ar  429  TRP429     -0.2442
    151  CE2      -49.8230   20.5540  -13.5040 C.ar  429  TRP429      0.0810
    152  CE3      -47.8470   20.6520  -12.1080 C.ar  429  TRP429      0.0012
    153  CZ2      -49.5430   19.2450  -13.8920 C.ar  429  TRP429      0.0191
    154  CZ3      -47.5720   19.3430  -12.4950 C.ar  429  TRP429      0.0001
    155  CH2      -48.4210   18.6570  -13.3800 C.ar  429  TRP429      0.0015
    156  N        -46.1430   22.3490   -7.2860 N.3   442  PHE442     -0.1227
    157  CA       -45.0690   23.2600   -7.6680 C.3   442  PHE442      0.1736
    158  C        -45.5320   24.7010   -7.4560 C.2   442  PHE442      0.2596
    159  O        -46.5890   25.1070   -7.9470 O.2   442  PHE442     -0.2718
    160  CB       -44.7040   23.0560   -9.1440 C.3   442  PHE442      0.0547
    161  CG       -43.9630   21.7700   -9.4280 C.ar  442  PHE442     -0.0202
    162  CD1      -42.5760   21.7130   -9.3170 C.ar  442  PHE442     -0.0042
    163  CD2      -44.6490   20.6220   -9.8200 C.ar  442  PHE442     -0.0042
    164  CE1      -41.8820   20.5340   -9.5930 C.ar  442  PHE442     -0.0003
    165  CE2      -43.9650   19.4340  -10.1010 C.ar  442  PHE442     -0.0003
    166  CZ       -42.5810   19.3890   -9.9880 C.ar  442  PHE442     -0.0000
    167  N        -44.7300   25.4780   -6.7410 N.am  443  SER443     -0.1938
    168  CA       -45.0770   26.8670   -6.4560 C.3   443  SER443      0.2055
    169  C        -43.9730   27.8470   -6.8680 C.2   443  SER443      0.2643
    170  O        -42.7910   27.6290   -6.5900 O.2   443  SER443     -0.2714
    171  CB       -45.3840   27.0210   -4.9530 C.3   443  SER443      0.2130
    172  OG       -45.8130   28.3300   -4.6520 O.3   443  SER443     -0.2179
    173  N        -44.3760   28.9230   -7.5350 N.am  444  TRP444     -0.1973
    174  CA       -43.4530   29.9560   -7.9720 C.3   444  TRP444      0.1640
    175  C        -43.7630   31.2690   -7.2530 C.2   444  TRP444      0.2290
    176  O        -44.9020   31.5140   -6.8450 O.2   444  TRP444     -0.2864
    177  CB       -43.5640   30.1910   -9.4810 C.3   444  TRP444      0.0576
    178  CG       -42.5330   31.1640   -9.9640 C.ar  444  TRP444      0.0006
    179  CD1      -41.2180   30.8970  -10.2310 C.ar  444  TRP444      0.0946
    180  CD2      -42.6940   32.5800  -10.1330 C.ar  444  TRP444      0.0152
    181  NE1      -40.5500   32.0560  -10.5510 N.ar  444  TRP444     -0.2442
    182  CE2      -41.4300   33.1050  -10.4950 C.ar  444  TRP444      0.0810
    183  CE3      -43.7810   33.4570  -10.0090 C.ar  444  TRP444      0.0012
    184  CZ2      -41.2220   34.4740  -10.7330 C.ar  444  TRP444      0.0191
    185  CZ3      -43.5740   34.8190  -10.2460 C.ar  444  TRP444      0.0001
    186  CH2      -42.3030   35.3100  -10.6030 C.ar  444  TRP444      0.0015
@<TRIPOS>BOND
     1    45    44    2
     2    44    43    1
     3    42    43    1
     4    43    46    1
     5    52    50    1
     6    50    51    1
     7    50    49    2
     8    49    48    1
     9    46    47    1
    10    47    48    1
    11    39    38    2
    12    38    37    1
    13    28    27    2
    14    99    97   am
    15    27    26    1
    16    27    36   am
    17    25    26    1
    18    26    29    1
    19    97    96    1
    20    97    98    2
    21    37    36    1
    22    37    40    1
    23    96    93    1
    24    95    94    2
    25    40    41    1
    26    30    29    1
    27    30    31    1
    28    94    93    1
    29    93    92    1
    30    92    87   am
    31    31    32    1
    32    12    11    2
    33    19    18    2
    34    84    82   ar
    35    80    79    2
    36    90    89    1
    37    18    17    1
    38    87    86    1
    39    87    88    2
    40    86    89    1
    41    86    85    1
    42    11    10    1
    43    11    16   am
    44    10     9    1
    45    10    13    1
    46    83    82   ar
    47    32    33    2
    48    82    81    1
    49    91    89    1
    50    34    33    1
    51    79    85   am
    52    79    78    1
    53    33    35    1
    54    16    17    1
    55    17    20    1
    56    14    13    1
    57    15    13    1
    58    68    66   ar
    59    81    78    1
    60    24    23    1
    61    78    77    1
    62    20    21    1
    63    21    22    1
    64    22    23    1
    65    66    67   ar
    66    66    65    1
    67   109   108    1
    68    65    64    1
    69     4     3    2
    70   126   124   ar
    71    63    62    2
    72    64    61    1
    73   110   108    1
    74     3     2    1
    75   108   107    2
    76    61    62    1
    77    61    60    1
    78    62    69   am
    79   124   125   ar
    80   124   123    1
    81     2     1    1
    82     2     5    1
    83   107   106    1
    84   106   105    1
    85    69    70    1
    86     8     6    1
    87   123   122    1
    88    72    71    2
    89    70    71    1
    90    70    73    1
    91     6     5    1
    92    75    76    1
    93    75    74    1
    94     5     7    1
    95    58    57    1
    96    58    59    1
    97   122   119    1
    98   153   151   ar
    99   153   155   ar
   100   150   151   ar
   101   150   148   ar
   102    54    57    1
   103    54    53    1
   104    54    55    1
   105   104   105    1
   106   104   101    1
   107    53    59    1
   108   151   149   ar
   109    56    55    2
   110   155   154   ar
   111    73    74    1
   112   148   147   ar
   113   118   119    1
   114   149   147   ar
   115   149   152   ar
   116   119   120    1
   117   100   101    1
   118   154   152   ar
   119   147   146    1
   120   101   102    1
   121   146   143    1
   122   103   102    2
   123   120   121    2
   124   184   186   ar
   125   184   182   ar
   126   133   132    2
   127   186   185   ar
   128   181   182   ar
   129   181   179   ar
   130   182   180   ar
   131   185   183   ar
   132   179   178   ar
   133   143   144    1
   134   143   142    1
   135   180   183   ar
   136   180   178   ar
   137   165   166   ar
   138   165   163   ar
   139   166   164   ar
   140   178   177    1
   141   163   161   ar
   142   138   137    2
   143   164   162   ar
   144   144   145    2
   145   177   174    1
   146   132   131    1
   147   132   134   am
   148   161   162   ar
   149   161   160    1
   150   128   127    1
   151   128   129    1
   152   128   131    1
   153   142   137   am
   154   117   115    1
   155   160   157    1
   156   137   136    1
   157   129   135   am
   158   129   130    2
   159   135   136    1
   160   136   139    1
   161   115   116    1
   162   115   112    1
   163   174   173    1
   164   174   175    1
   165   159   158    2
   166   157   158    1
   167   157   156    1
   168   173   169   am
   169   158   167   am
   170   175   176    2
   171   169   170    2
   172   169   168    1
   173   139   140    1
   174   139   141    1
   175   167   168    1
   176   112   111    1
   177   112   113    1
   178   168   171    1
   179   113   114    2
   180   171   172    1
