@<TRIPOS>MOLECULE
tmp/3js2B00.pdb
 114 105 0 0 0
SMALL
GASTEIGER

@<TRIPOS>ATOM
      1  N         17.4810  -22.8900   61.4630 N.3    26  LEU26      -0.1231
      2  CA        18.4700  -23.6160   60.6780 C.3    26  LEU26       0.1693
      3  C         19.6630  -22.7520   60.2960 C.2    26  LEU26       0.2592
      4  O         20.8000  -23.2280   60.2520 O.2    26  LEU26      -0.2718
      5  CB        17.8320  -24.1850   59.4130 C.3    26  LEU26       0.0284
      6  CG        16.8170  -25.3090   59.6160 C.3    26  LEU26       0.0019
      7  CD1       16.1240  -25.6030   58.2980 C.3    26  LEU26       0.0001
      8  CD2       17.5200  -26.5540   60.1500 C.3    26  LEU26       0.0001
      9  N         19.4070  -21.4780   60.0290 N.am   27  GLY27      -0.1957
     10  CA        20.4860  -20.5930   59.6350 C.3    27  GLY27       0.1869
     11  C         20.1850  -19.1190   59.8290 C.2    27  GLY27       0.2309
     12  O         19.0270  -18.7280   60.0000 O.2    27  GLY27      -0.2863
     13  N         16.3000  -18.5860   58.5070 N.3    34  VAL34      -0.1245
     14  CA        15.6620  -19.8010   58.0600 C.3    34  VAL34       0.1561
     15  C         15.3750  -20.6760   59.2700 C.2    34  VAL34       0.2260
     16  O         16.2440  -20.8780   60.1040 O.2    34  VAL34      -0.2867
     17  CB        16.5860  -20.5830   57.1380 C.3    34  VAL34       0.0252
     18  CG1       15.8830  -21.8460   56.6510 C.3    34  VAL34       0.0019
     19  CG2       17.0350  -19.6990   55.9850 C.3    34  VAL34       0.0019
     20  N         11.7880  -26.0750   55.1550 N.3    54  ALA54      -0.1245
     21  CA        12.5850  -24.9470   55.6460 C.3    54  ALA54       0.1562
     22  C         11.8150  -23.6720   55.3010 C.2    54  ALA54       0.2260
     23  O         11.2380  -23.5600   54.2140 O.2    54  ALA54      -0.2867
     24  CB        13.9630  -24.9380   54.9880 C.3    54  ALA54       0.0290
     25  N         11.9820  -19.5020   54.9120 N.3    56  LYS56      -0.1245
     26  CA        12.7470  -18.2630   54.8280 C.3    56  LYS56       0.1561
     27  C         11.8180  -17.1190   55.2000 C.2    56  LYS56       0.2260
     28  O         10.6590  -17.0730   54.7590 O.2    56  LYS56      -0.2867
     29  CB        13.2910  -18.0160   53.4200 C.3    56  LYS56       0.0271
     30  CG        14.3080  -19.0420   52.9350 C.3    56  LYS56       0.0035
     31  CD        15.1860  -18.4470   51.8300 C.3    56  LYS56       0.0206
     32  CE        16.0730  -17.3240   52.3790 C.3    56  LYS56       0.1093
     33  NZ        17.1190  -16.8580   51.4070 N.3    56  LYS56      -0.1314
     34  N         13.2470  -13.3670   45.2710 N.3    73  GLU73      -0.1245
     35  CA        13.7510  -14.7250   45.3470 C.3    73  GLU73       0.1567
     36  C         12.5870  -15.6790   45.0970 C.2    73  GLU73       0.2260
     37  O         12.6620  -16.5480   44.2400 O.2    73  GLU73      -0.2867
     38  CB        14.3720  -15.0170   46.7250 C.3    73  GLU73       0.0388
     39  CG        15.0210  -16.4150   46.8210 C.3    73  GLU73       0.1160
     40  CD        15.8320  -16.6490   48.1090 C.2    73  GLU73       0.3649
     41  OE1       16.5470  -17.6780   48.1600 O.co2  73  GLU73      -0.2457
     42  OE2       15.7680  -15.8270   49.0600 O.co2  73  GLU73      -0.2457
     43  N         17.0150  -26.7080   45.2570 N.3    87  ILE87      -0.1245
     44  CA        16.0880  -26.5700   46.3710 C.3    87  ILE87       0.1561
     45  C         14.8040  -25.9900   45.7460 C.2    87  ILE87       0.2260
     46  O         14.8350  -24.9240   45.1170 O.2    87  ILE87      -0.2867
     47  CB        16.6580  -25.6210   47.4630 C.3    87  ILE87       0.0252
     48  CG1       17.7670  -26.3380   48.2570 C.3    87  ILE87       0.0019
     49  CG2       15.5530  -25.1860   48.4130 C.3    87  ILE87       0.0019
     50  CD1       17.2650  -27.4840   49.1750 C.3    87  ILE87       0.0001
     51  N         10.4730  -23.7330   51.4470 N.3   103  VAL103     -0.1231
     52  CA        11.2540  -24.4820   50.4900 C.3   103  VAL103      0.1692
     53  C         11.6210  -25.8380   51.0770 C.2   103  VAL103      0.2592
     54  O         11.3180  -26.1320   52.2330 O.2   103  VAL103     -0.2718
     55  CB        12.5680  -23.7620   50.1060 C.3   103  VAL103      0.0266
     56  CG1       12.2680  -22.3580   49.5740 C.3   103  VAL103      0.0020
     57  CG2       13.5090  -23.7280   51.2940 C.3   103  VAL103      0.0020
     58  N         12.3000  -26.6420   50.2670 N.am  104  GLU104     -0.1966
     59  CA        12.7330  -27.9750   50.6620 C.3   104  GLU104      0.1733
     60  C         13.7730  -27.9840   51.7620 C.2   104  GLU104      0.2616
     61  O         14.6630  -27.1450   51.7870 O.2   104  GLU104     -0.2715
     62  CB        13.2840  -28.7320   49.4380 C.3   104  GLU104      0.0429
     63  CG        12.1920  -29.1100   48.4360 C.3   104  GLU104      0.1163
     64  CD        12.7320  -29.7980   47.1820 C.2   104  GLU104      0.3649
     65  OE1       12.0900  -30.7690   46.7170 O.co2 104  GLU104     -0.2457
     66  OE2       13.7820  -29.3640   46.6540 O.co2 104  GLU104     -0.2457
     67  N         13.6510  -28.9550   52.6650 N.am  105  TYR105     -0.1960
     68  CA        14.5850  -29.1310   53.7790 C.3   105  TYR105      0.1771
     69  C         15.6190  -30.2330   53.4820 C.2   105  TYR105      0.2619
     70  O         15.2700  -31.3210   53.0430 O.2   105  TYR105     -0.2715
     71  CB        13.8190  -29.4880   55.0530 C.3   105  TYR105      0.0574
     72  CG        14.7110  -29.8950   56.2120 C.ar  105  TYR105     -0.0198
     73  CD1       15.6840  -29.0250   56.7100 C.ar  105  TYR105     -0.0009
     74  CD2       14.5440  -31.1290   56.8530 C.ar  105  TYR105     -0.0009
     75  CE1       16.4620  -29.3650   57.8170 C.ar  105  TYR105      0.0417
     76  CE2       15.3210  -31.4750   57.9680 C.ar  105  TYR105      0.0417
     77  CZ        16.2730  -30.5890   58.4440 C.ar  105  TYR105      0.1957
     78  OH        17.0340  -30.9090   59.5540 O.3   105  TYR105     -0.2866
     79  N         16.8910  -29.9400   53.7250 N.am  106  ALA106     -0.1963
     80  CA        17.9700  -30.8940   53.4850 C.3   106  ALA106      0.1728
     81  C         18.6250  -31.1750   54.8390 C.2   106  ALA106      0.2616
     82  O         19.4520  -30.4000   55.3130 O.2   106  ALA106     -0.2715
     83  CB        18.9800  -30.2970   52.4960 C.3   106  ALA106      0.0334
     84  N         18.2440  -32.2930   55.4490 N.am  107  SER107     -0.1950
     85  CA        18.7290  -32.6620   56.7750 C.3   107  SER107      0.1924
     86  C         20.2020  -32.9940   56.9430 C.2   107  SER107      0.2314
     87  O         20.6620  -33.1320   58.0640 O.2   107  SER107     -0.2863
     88  CB        17.9040  -33.8240   57.3210 C.3   107  SER107      0.2116
     89  OG        18.0050  -34.9370   56.4600 O.3   107  SER107     -0.2180
     90  N         22.7600  -31.0450   55.8710 N.3   109  GLY109     -0.1225
     91  CA        23.5590  -29.8370   55.7130 C.3   109  GLY109      0.1811
     92  C         24.1680  -29.6130   54.3410 C.2   109  GLY109      0.2280
     93  O         23.7330  -30.2220   53.3530 O.2   109  GLY109     -0.2866
     94  N         23.1150  -28.3310   49.1290 N.3   159  LEU159     -0.1245
     95  CA        22.6250  -29.0180   50.3070 C.3   159  LEU159      0.1561
     96  C         22.4070  -30.4900   49.9630 C.2   159  LEU159      0.2260
     97  O         22.2740  -30.8560   48.7940 O.2   159  LEU159     -0.2867
     98  CB        21.3230  -28.3680   50.7970 C.3   159  LEU159      0.0270
     99  CG        21.4350  -26.8500   51.0240 C.3   159  LEU159      0.0019
    100  CD1       20.1190  -26.3070   51.6240 C.3   159  LEU159      0.0001
    101  CD2       22.6250  -26.5450   51.9440 C.3   159  LEU159      0.0001
    102  N         21.3770  -24.5780   46.3070 N.3   169  ALA169     -0.1231
    103  CA        20.5820  -23.5970   47.0540 C.3   169  ALA169      0.1694
    104  C         21.0380  -22.1660   46.6880 C.2   169  ALA169      0.2592
    105  O         22.0590  -21.9840   46.0330 O.2   169  ALA169     -0.2718
    106  CB        20.7330  -23.8280   48.5640 C.3   169  ALA169      0.0304
    107  N         20.2670  -21.1660   47.1060 N.am  170  ASP170     -0.1974
    108  CA        20.5950  -19.7560   46.8600 C.3   170  ASP170      0.1709
    109  C         20.7730  -19.3490   45.4160 C.2   170  ASP170      0.2293
    110  O         21.4860  -18.3770   45.1310 O.2   170  ASP170     -0.2864
    111  CB        21.8710  -19.3480   47.6090 C.3   170  ASP170      0.1436
    112  CG        21.6540  -19.2040   49.1110 C.2   170  ASP170      0.3671
    113  OD1       22.6470  -18.9970   49.8650 O.co2 170  ASP170     -0.2456
    114  OD2       20.4830  -19.2900   49.5400 O.co2 170  ASP170     -0.2456
@<TRIPOS>BOND
     1    37    36    2
     2    36    35    1
     3    46    45    2
     4   110   109    2
     5    43    44    1
     6    34    35    1
     7    35    38    1
     8   109   108    1
     9    45    44    1
    10   105   104    2
    11   102   103    1
    12    44    47    1
    13    66    64   ar
    14   104   103    1
    15   104   107   am
    16    65    64   ar
    17    38    39    1
    18    39    40    1
    19   108   107    1
    20   108   111    1
    21   103   106    1
    22    64    63    1
    23    47    48    1
    24    47    49    1
    25   111   112    1
    26    40    41   ar
    27    40    42   ar
    28    48    50    1
    29    63    62    1
    30    97    96    2
    31   112   114   ar
    32   112   113   ar
    33    94    95    1
    34    62    59    1
    35    56    55    1
    36    96    95    1
    37    55    52    1
    38    55    57    1
    39    58    59    1
    40    58    53   am
    41    95    98    1
    42    52    53    1
    43    52    51    1
    44    59    60    1
    45    98    99    1
    46    99   100    1
    47    99   101    1
    48    53    54    2
    49    33    32    1
    50    60    61    2
    51    60    67   am
    52    31    32    1
    53    31    30    1
    54    83    80    1
    55    67    68    1
    56    30    29    1
    57    70    69    2
    58    93    92    2
    59    29    26    1
    60    69    79   am
    61    69    68    1
    62    80    79    1
    63    80    81    1
    64    68    71    1
    65    23    22    2
    66    92    91    1
    67    28    27    2
    68    26    25    1
    69    26    27    1
    70    81    82    2
    71    81    84   am
    72    24    21    1
    73    71    72    1
    74    20    21    1
    75    22    21    1
    76    84    85    1
    77    91    90    1
    78    19    17    1
    79    72    73   ar
    80    72    74   ar
    81    89    88    1
    82    18    17    1
    83    73    75   ar
    84    85    86    1
    85    85    88    1
    86    74    76   ar
    87    86    87    2
    88    17    14    1
    89    75    77   ar
    90    76    77   ar
    91    14    13    1
    92    14    15    1
    93     7     6    1
    94    77    78    1
    95    15    16    2
    96     5     6    1
    97     5     2    1
    98     6     8    1
    99    10    11    1
   100    10     9    1
   101    11    12    2
   102     9     3   am
   103     4     3    2
   104     3     2    1
   105     2     1    1
