@<TRIPOS>MOLECULE
tmp/3js3C00.pdb
 113 103 0 0 0
SMALL
GASTEIGER

@<TRIPOS>ATOM
      1  N         -4.3390   -3.4480  -34.9260 N.3    47  GLU47      -0.1245
      2  CA        -5.1770   -4.5290  -35.4030 C.3    47  GLU47       0.1567
      3  C         -6.6210   -4.0880  -35.4490 C.2    47  GLU47       0.2260
      4  O         -7.2000   -3.7700  -34.4080 O.2    47  GLU47      -0.2867
      5  CB        -5.1110   -5.7780  -34.4930 C.3    47  GLU47       0.0388
      6  CG        -6.0490   -6.9130  -34.9480 C.3    47  GLU47       0.1160
      7  CD        -6.0410   -8.1660  -34.0110 C.2    47  GLU47       0.3649
      8  OE1       -6.0280   -8.0110  -32.7890 O.co2  47  GLU47      -0.2457
      9  OE2       -6.0550   -9.3050  -34.5180 O.co2  47  GLU47      -0.2457
     10  N         -9.9840   -5.3800  -35.4890 N.3    49  ARG49      -0.1245
     11  CA       -10.7900   -6.5790  -35.2670 C.3    49  ARG49       0.1563
     12  C        -12.1380   -6.2670  -35.8900 C.2    49  ARG49       0.2260
     13  O        -13.0530   -5.7660  -35.2230 O.2    49  ARG49      -0.2867
     14  CB       -10.9200   -6.9100  -33.7800 C.3    49  ARG49       0.0307
     15  CG        -9.7010   -7.6130  -33.1860 C.3    49  ARG49       0.0489
     16  CD        -9.6480   -9.0690  -33.6320 C.3    49  ARG49       0.2205
     17  NE       -10.8730   -9.7130  -33.1850 N.pl3  49  ARG49      -0.0865
     18  CZ       -11.0720  -10.1770  -31.9560 C.cat  49  ARG49       0.5346
     19  NH1      -10.1010  -10.1110  -31.0370 N.pl3  49  ARG49       0.1354
     20  NH2      -12.2440  -10.7140  -31.6460 N.pl3  49  ARG49       0.1354
     21  N        -12.0740  -12.2790  -36.5260 N.3    83  ARG83      -0.1245
     22  CA       -11.9710  -13.4550  -35.6180 C.3    83  ARG83       0.1563
     23  C        -13.3160  -14.1990  -35.6400 C.2    83  ARG83       0.2260
     24  O        -14.3300  -13.6480  -35.2270 O.2    83  ARG83      -0.2867
     25  CB       -11.6220  -12.9660  -34.2140 C.3    83  ARG83       0.0307
     26  CG       -11.4510  -14.0510  -33.1550 C.3    83  ARG83       0.0489
     27  CD       -10.2840  -15.0090  -33.3950 C.3    83  ARG83       0.2205
     28  NE        -8.9530  -14.4050  -33.5130 N.pl3  83  ARG83      -0.0865
     29  CZ        -8.2140  -14.3660  -34.6160 C.cat  83  ARG83       0.5346
     30  NH1       -8.6300  -14.9030  -35.7580 N.pl3  83  ARG83       0.1354
     31  NH2       -7.0100  -13.8230  -34.5680 N.pl3  83  ARG83       0.1354
     32  N         -6.4800  -20.6640  -31.9400 N.3   144  HIS144     -0.1241
     33  CA        -6.7790  -20.3560  -30.5600 C.3   144  HIS144      0.1621
     34  C         -7.5040  -21.5250  -29.8940 C.2   144  HIS144      0.2264
     35  O         -8.3370  -22.1870  -30.5030 O.2   144  HIS144     -0.2867
     36  CB        -7.6950  -19.1350  -30.5140 C.3   144  HIS144      0.0745
     37  CG        -7.2230  -17.9940  -31.3520 C.ar  144  HIS144      0.0817
     38  ND1       -7.2960  -18.0060  -32.7280 N.ar  144  HIS144     -0.2268
     39  CD2       -6.7040  -16.7900  -31.0120 C.ar  144  HIS144      0.1154
     40  CE1       -6.7960  -16.8770  -33.2030 C.ar  144  HIS144      0.1986
     41  NE2       -6.4390  -16.1180  -32.1810 N.ar  144  HIS144     -0.2212
     42  N          0.7410  -17.9600  -35.5300 N.3   171  LYS171     -0.1245
     43  CA         0.2360  -17.4490  -34.2790 C.3   171  LYS171      0.1561
     44  C         -0.6230  -18.4760  -33.5500 C.2   171  LYS171      0.2260
     45  O         -1.4850  -19.0920  -34.1640 O.2   171  LYS171     -0.2867
     46  CB        -0.6240  -16.2160  -34.5290 C.3   171  LYS171      0.0271
     47  CG        -1.2650  -15.6620  -33.2600 C.3   171  LYS171      0.0035
     48  CD        -2.2820  -14.5510  -33.5760 C.3   171  LYS171      0.0206
     49  CE        -2.9630  -14.0650  -32.3080 C.3   171  LYS171      0.1093
     50  NZ        -4.0970  -13.0790  -32.5360 N.3   171  LYS171     -0.1314
     51  N         -2.6980  -18.9570  -29.5660 N.3   173  ALA173     -0.1245
     52  CA        -3.1220  -18.5100  -28.2500 C.3   173  ALA173      0.1562
     53  C         -3.7740  -19.7140  -27.5650 C.2   173  ALA173      0.2260
     54  O         -4.6590  -20.3360  -28.1230 O.2   173  ALA173     -0.2867
     55  CB        -4.1280  -17.3930  -28.3570 C.3   173  ALA173      0.0290
     56  N          0.8220  -16.9210  -27.1780 N.3   204  MET204     -0.1245
     57  CA         0.3730  -16.4400  -25.9000 C.3   204  MET204      0.1570
     58  C         -0.4180  -17.4240  -25.0870 C.2   204  MET204      0.2261
     59  O         -1.1460  -18.2430  -25.6200 O.2   204  MET204     -0.2867
     60  CB        -0.4380  -15.1550  -26.0530 C.3   204  MET204      0.0387
     61  CG        -1.5740  -15.2300  -27.0740 C.3   204  MET204      0.0595
     62  SD        -1.0540  -14.9260  -28.7980 S.3   204  MET204     -0.1393
     63  CE        -0.7130  -13.1690  -28.7100 C.3   204  MET204      0.0692
     64  N         -3.2850  -17.2670  -22.5850 N.3   206  MET206     -0.1245
     65  CA        -4.3400  -16.3340  -22.1870 C.3   206  MET206      0.1570
     66  C         -4.6340  -16.2870  -20.6820 C.2   206  MET206      0.2261
     67  O         -4.0940  -17.0810  -19.8940 O.2   206  MET206     -0.2867
     68  CB        -5.6180  -16.6460  -22.9730 C.3   206  MET206      0.0387
     69  CG        -5.4650  -16.3520  -24.4850 C.3   206  MET206      0.0595
     70  SD        -6.9030  -16.8030  -25.4820 S.3   206  MET206     -0.1393
     71  CE        -6.9120  -18.5960  -25.3600 C.3   206  MET206      0.0692
     72  N          2.9960  -12.5970  -22.2470 N.3   214  ARG214     -0.1245
     73  CA         2.8030  -11.4100  -23.0850 C.3   214  ARG214      0.1563
     74  C          3.9280  -10.4090  -22.8770 C.2   214  ARG214      0.2260
     75  O          4.0850   -9.4480  -23.6530 O.2   214  ARG214     -0.2867
     76  CB         1.4940  -10.7370  -22.7580 C.3   214  ARG214      0.0307
     77  CG         0.2780  -11.6320  -23.0860 C.3   214  ARG214      0.0489
     78  CD        -1.0200  -10.9740  -22.7160 C.3   214  ARG214      0.2205
     79  NE        -2.2160  -11.7830  -23.0250 N.pl3 214  ARG214     -0.0865
     80  CZ        -2.8210  -11.8270  -24.2130 C.cat 214  ARG214      0.5346
     81  NH1       -3.9190  -12.5390  -24.3810 N.pl3 214  ARG214      0.1354
     82  NH2       -2.3420  -11.1460  -25.2380 N.pl3 214  ARG214      0.1354
     83  N          0.1080   -8.3910  -27.8480 N.3   226  PHE226     -0.1241
     84  CA        -1.0420   -7.5080  -27.9670 C.3   226  PHE226      0.1605
     85  C         -1.3550   -6.7960  -26.6560 C.2   226  PHE226      0.2264
     86  O         -1.3830   -7.4160  -25.6070 O.2   226  PHE226     -0.2867
     87  CB        -2.2700   -8.2920  -28.4250 C.3   226  PHE226      0.0534
     88  CG        -2.1580   -8.8700  -29.8070 C.ar  226  PHE226     -0.0203
     89  CD1       -2.7720   -8.2580  -30.8790 C.ar  226  PHE226     -0.0042
     90  CD2       -1.4460  -10.0270  -30.0380 C.ar  226  PHE226     -0.0042
     91  CE1       -2.6800   -8.7880  -32.1570 C.ar  226  PHE226     -0.0003
     92  CE2       -1.3300  -10.5530  -31.3450 C.ar  226  PHE226     -0.0003
     93  CZ        -1.9530   -9.9280  -32.3850 C.ar  226  PHE226     -0.0000
     94  N         -9.2040   -7.5220  -26.2440 N.3   233  SER233     -0.1202
     95  CA        -9.7570   -8.1810  -27.4270 C.3   233  SER233      0.2020
     96  C         -9.5510   -9.6890  -27.2870 C.2   233  SER233      0.2618
     97  O         -9.8960  -10.4500  -28.1940 O.2   233  SER233     -0.2717
     98  CB        -9.1310   -7.6690  -28.7350 C.3   233  SER233      0.2103
     99  OG        -7.7790   -8.0910  -28.8930 O.3   233  SER233     -0.2182
    100  N         -8.9710  -10.0920  -26.1510 N.am  234  ALA234     -0.1979
    101  CA        -8.7280  -11.4990  -25.7770 C.3   234  ALA234      0.1597
    102  C         -8.4020  -11.5010  -24.2910 C.2   234  ALA234      0.2287
    103  O         -7.9050  -10.4990  -23.7700 O.2   234  ALA234     -0.2864
    104  CB        -7.6130  -12.1160  -26.5530 C.3   234  ALA234      0.0319
    105  N         -4.9770   -9.6100  -21.8570 N.3   237  GLN237     -0.1245
    106  CA        -4.2810   -8.3940  -22.3110 C.3   237  GLN237      0.1566
    107  C         -4.2360   -7.3290  -21.2170 C.2   237  GLN237      0.2260
    108  O         -5.1800   -7.1810  -20.4710 O.2   237  GLN237     -0.2867
    109  CB        -4.9900   -7.7770  -23.5320 C.3   237  GLN237      0.0367
    110  CG        -4.8930   -8.5550  -24.8070 C.3   237  GLN237      0.0905
    111  CD        -5.7170   -7.9440  -25.9400 C.2   237  GLN237      0.2608
    112  OE1       -6.4400   -6.9600  -25.7460 O.2   237  GLN237     -0.2717
    113  NE2       -5.6260   -8.5430  -27.1200 N.am  237  GLN237     -0.0878
@<TRIPOS>BOND
     1    21    22    1
     2    12    11    1
     3    12    13    2
     4    30    29    1
     5    23    22    1
     6    23    24    2
     7    22    25    1
     8    42    43    1
     9    10    11    1
    10     3     2    1
    11     3     4    2
    12     2     1    1
    13     2     5    1
    14    11    14    1
    15     6     5    1
    16     6     7    1
    17    29    31    1
    18    29    28    2
    19    46    43    1
    20    46    47    1
    21     9     7   ar
    22    43    44    1
    23    25    26    1
    24    45    44    2
    25     7     8   ar
    26    14    15    1
    27    16    15    1
    28    16    17    1
    29    48    47    1
    30    48    49    1
    31    28    27    1
    32    27    26    1
    33    40    38   ar
    34    40    41   ar
    35    17    18    2
    36    38    37   ar
    37    50    49    1
    38    93    91   ar
    39    93    92   ar
    40    41    39   ar
    41    91    89   ar
    42    18    20    1
    43    18    19    1
    44    32    33    1
    45    37    39   ar
    46    37    36    1
    47    92    90   ar
    48    89    88   ar
    49    33    36    1
    50    33    34    1
    51    35    34    2
    52    90    88   ar
    53    88    87    1
    54    51    52    1
    55    99    98    1
    56    62    63    1
    57    62    61    1
    58    98    95    1
    59    87    84    1
    60    55    52    1
    61    52    53    1
    62    97    96    2
    63    54    53    2
    64    84    83    1
    65    84    85    1
    66    95    96    1
    67    95    94    1
    68    96   100   am
    69    56    57    1
    70   113   111   am
    71    61    60    1
    72    85    86    2
    73   104   101    1
    74   100   101    1
    75    60    57    1
    76   111   112    2
    77   111   110    1
    78    57    58    1
    79   101   102    1
    80    59    58    2
    81    70    71    1
    82    70    69    1
    83    82    80    1
    84   110   109    1
    85    69    68    1
    86    81    80    1
    87   102   103    2
    88    80    79    2
    89    75    74    2
    90   109   106    1
    91    77    76    1
    92    77    78    1
    93    73    74    1
    94    73    76    1
    95    73    72    1
    96    79    78    1
    97    68    65    1
    98    64    65    1
    99   106   105    1
   100   106   107    1
   101    65    66    1
   102   107   108    2
   103    66    67    2
