@<TRIPOS>MOLECULE
tmp/3jsaA00.pdb
 180 172 0 0 0
SMALL
GASTEIGER

@<TRIPOS>ATOM
      1  N        -10.4840   71.6930    2.6020 N.3     8  PHE8       -0.1227
      2  CA       -10.0140   70.8650    1.4960 C.3     8  PHE8        0.1736
      3  C         -8.5150   70.9020    1.5300 C.2     8  PHE8        0.2596
      4  O         -7.9130   71.9560    1.2880 O.2     8  PHE8       -0.2718
      5  CB       -10.5070   71.3810    0.1680 C.3     8  PHE8        0.0547
      6  CG       -11.9860   71.1670   -0.0680 C.ar    8  PHE8       -0.0202
      7  CD1      -12.4250   70.1720   -0.9830 C.ar    8  PHE8       -0.0042
      8  CD2      -12.9450   71.9670    0.5790 C.ar    8  PHE8       -0.0042
      9  CE1      -13.8010   69.9850   -1.2530 C.ar    8  PHE8       -0.0003
     10  CE2      -14.3290   71.7690    0.3270 C.ar    8  PHE8       -0.0003
     11  CZ       -14.7430   70.7840   -0.5950 C.ar    8  PHE8       -0.0000
     12  N         -7.9220   69.7730    1.9030 N.am    9  GLY9       -0.1942
     13  CA        -6.4840   69.6580    2.0320 C.3     9  GLY9        0.2014
     14  C         -6.0970   69.4870    3.4960 C.2     9  GLY9        0.2639
     15  O         -6.4950   70.2800    4.3360 O.2     9  GLY9       -0.2714
     16  N         -5.2980   68.4610    3.7980 N.am   10  LEU10      -0.1963
     17  CA        -4.9140   68.1190    5.2100 C.3    10  LEU10       0.1728
     18  C         -3.4030   67.9570    5.3480 C.2    10  LEU10       0.2617
     19  O         -2.9140   67.0390    6.0110 O.2    10  LEU10      -0.2715
     20  CB        -5.6380   66.8110    5.6590 C.3    10  LEU10       0.0311
     21  CG        -7.1550   66.9830    5.7230 C.3    10  LEU10       0.0022
     22  CD1       -7.9330   65.6380    5.9710 C.3    10  LEU10       0.0001
     23  CD2       -7.5220   68.0390    6.7530 C.3    10  LEU10       0.0001
     24  N         -2.6530   68.8180    4.6460 N.am   11  GLY11      -0.1940
     25  CA        -1.2000   68.6740    4.5680 C.3    11  GLY11       0.2014
     26  C         -0.5380   69.6240    5.5460 C.2    11  GLY11       0.2639
     27  O         -1.0740   69.8530    6.6090 O.2    11  GLY11      -0.2714
     28  N          0.6570   70.1270    5.2110 N.am   12  ASN12      -0.1958
     29  CA         1.3560   71.1040    6.0730 C.3    12  ASN12       0.1819
     30  C          0.4600   72.2750    6.5210 C.2    12  ASN12       0.2621
     31  O          0.4350   72.6090    7.7000 O.2    12  ASN12      -0.2715
     32  CB         2.6100   71.6600    5.3750 C.3    12  ASN12       0.1195
     33  CG         3.5610   70.5520    4.9340 C.2    12  ASN12       0.2630
     34  OD1        4.0050   69.7490    5.7410 O.2    12  ASN12      -0.2716
     35  ND2        3.8220   70.4840    3.6330 N.am   12  ASN12      -0.0877
     36  N         -0.3160   72.8280    5.6000 N.am   13  VAL13      -0.1963
     37  CA        -1.2100   73.9340    5.9680 C.3    13  VAL13       0.1727
     38  C         -2.4940   73.4200    6.6290 C.2    13  VAL13       0.2616
     39  O         -2.7790   73.8100    7.7500 O.2    13  VAL13      -0.2715
     40  CB        -1.5400   74.8490    4.7740 C.3    13  VAL13       0.0290
     41  CG1       -2.5380   76.0040    5.2080 C.3    13  VAL13       0.0023
     42  CG2       -0.2400   75.5220    4.2630 C.3    13  VAL13       0.0023
     43  N         -3.2130   72.5350    5.9290 N.am   14  GLY14      -0.1955
     44  CA        -4.5120   72.0230    6.3650 C.3    14  GLY14       0.1869
     45  C         -4.4920   71.3980    7.7570 C.2    14  GLY14       0.2309
     46  O         -5.3230   71.7480    8.6140 O.2    14  GLY14      -0.2863
     47  N        -11.4520   66.9280    3.3120 N.3    40  ALA40      -0.1231
     48  CA       -11.0170   66.1010    2.1900 C.3    40  ALA40       0.1694
     49  C         -9.4950   66.0990    2.0920 C.2    40  ALA40       0.2592
     50  O         -8.8390   67.1370    2.2870 O.2    40  ALA40      -0.2718
     51  CB       -11.6450   66.6140    0.8830 C.3    40  ALA40       0.0304
     52  N         -8.8950   64.9530    1.7740 N.am   41  ASP41      -0.1960
     53  CA        -7.5360   65.0010    1.2530 C.3    41  ASP41       0.1840
     54  C         -7.5270   64.2610   -0.1010 C.2    41  ASP41       0.2622
     55  O         -8.6030   64.0590   -0.6880 O.2    41  ASP41      -0.2715
     56  CB        -6.5060   64.4870    2.2690 C.3    41  ASP41       0.1450
     57  CG        -6.7710   63.0410    2.6850 C.2    41  ASP41       0.3671
     58  OD1       -7.3930   62.3130    1.9020 O.co2  41  ASP41      -0.2456
     59  OD2       -6.3470   62.6370    3.7850 O.co2  41  ASP41      -0.2456
     60  N         -6.3630   63.8650   -0.6280 N.am   42  SER42      -0.1950
     61  CA        -6.3890   63.1730   -1.9460 C.3    42  SER42       0.1924
     62  C         -7.0560   61.8080   -1.8790 C.2    42  SER42       0.2314
     63  O         -7.4520   61.2710   -2.9050 O.2    42  SER42      -0.2863
     64  CB        -4.9940   63.0060   -2.5370 C.3    42  SER42       0.2116
     65  OG        -4.2600   62.0930   -1.7310 O.3    42  SER42      -0.2180
     66  N         -4.9320   61.4160   10.9340 N.3    60  LYS60      -0.1245
     67  CA        -4.0130   61.8590    9.8800 C.3    60  LYS60       0.1561
     68  C         -2.5470   61.6780   10.3120 C.2    60  LYS60       0.2260
     69  O         -1.7230   61.2370    9.5070 O.2    60  LYS60      -0.2867
     70  CB        -4.2770   63.3110    9.4350 C.3    60  LYS60       0.0271
     71  CG        -3.5110   63.7040    8.1800 C.3    60  LYS60       0.0035
     72  CD        -4.2630   63.3020    6.9180 C.3    60  LYS60       0.0206
     73  CE        -3.3560   63.4220    5.7090 C.3    60  LYS60       0.1093
     74  NZ        -3.9910   62.7890    4.5190 N.3    60  LYS60      -0.1314
     75  N         -6.7870   74.4970    0.9440 N.3    89  ALA89      -0.1231
     76  CA        -5.4040   74.2140    1.2910 C.3    89  ALA89       0.1694
     77  C         -4.9320   73.0380    0.4210 C.2    89  ALA89       0.2593
     78  O         -4.1340   72.1990    0.8560 O.2    89  ALA89      -0.2718
     79  CB        -5.2650   73.9300    2.8080 C.3    89  ALA89       0.0304
     80  N         -5.3820   73.0200   -0.8350 N.am   90  THR90      -0.1940
     81  CA        -4.9930   71.9360   -1.7730 C.3    90  THR90       0.2013
     82  C         -3.7260   72.2850   -2.5990 C.2    90  THR90       0.2484
     83  O         -3.3350   73.4490   -2.6300 O.2    90  THR90      -0.2729
     84  CB        -6.1300   71.5930   -2.7350 C.3    90  THR90       0.1807
     85  OG1       -6.3650   72.6940   -3.6170 O.3    90  THR90      -0.2208
     86  CG2       -7.4770   71.1600   -1.9710 C.3    90  THR90       0.0379
     87  N         -3.1070   71.2820   -3.2850 N.am   91  PRO91      -0.2715
     88  CA        -2.0310   71.6140   -4.2660 C.3    91  PRO91       0.1536
     89  C         -2.4250   72.5820   -5.3800 C.2    91  PRO91       0.2598
     90  O         -3.4710   72.4140   -5.9920 O.2    91  PRO91      -0.2715
     91  CB        -1.6970   70.2630   -4.9220 C.3    91  PRO91       0.0310
     92  CG        -2.2610   69.1850   -3.9400 C.3    91  PRO91       0.0237
     93  CD        -3.4200   69.8380   -3.2440 C.3    91  PRO91       0.0939
     94  N         -1.5310   73.5220   -5.6830 N.am   92  ALA92      -0.1978
     95  CA        -1.6960   74.4950   -6.7910 C.3    92  ALA92       0.1597
     96  C         -1.5480   73.7960   -8.1320 C.2    92  ALA92       0.2287
     97  O         -0.5070   73.1420   -8.3790 O.2    92  ALA92      -0.2864
     98  CB        -0.6490   75.5770   -6.6560 C.3    92  ALA92       0.0319
     99  N         -8.7240   74.2130  -12.2420 N.3    98  LYS98      -0.1245
    100  CA        -9.4050   73.4300  -11.2000 C.3    98  LYS98       0.1561
    101  C         -9.8610   74.3820  -10.0550 C.2    98  LYS98       0.2260
    102  O        -10.9600   74.2270   -9.5080 O.2    98  LYS98      -0.2867
    103  CB        -8.4850   72.3050  -10.6540 C.3    98  LYS98       0.0271
    104  CG        -8.3010   72.3210   -9.0980 C.3    98  LYS98       0.0035
    105  CD        -7.2580   71.3350   -8.6230 C.3    98  LYS98       0.0206
    106  CE        -6.2480   72.0450   -7.7380 C.3    98  LYS98       0.1093
    107  NZ        -6.6750   72.2000   -6.3180 N.3    98  LYS98      -0.1314
    108  N         -5.2570   79.2650    0.5510 N.3   116  ALA116     -0.1231
    109  CA        -3.7870   79.3720    0.6010 C.3   116  ALA116      0.1694
    110  C         -3.1910   79.0230   -0.7640 C.2   116  ALA116      0.2592
    111  O         -2.0340   79.2780   -1.0120 O.2   116  ALA116     -0.2718
    112  CB        -3.2060   78.4740    1.6900 C.3   116  ALA116      0.0304
    113  N         -4.0170   78.4750   -1.6540 N.am  117  ASN117     -0.1960
    114  CA        -3.6150   78.0430   -3.0070 C.3   117  ASN117      0.1819
    115  C         -3.6420   79.2580   -3.9170 C.2   117  ASN117      0.2621
    116  O         -4.7050   79.9150   -4.0490 O.2   117  ASN117     -0.2715
    117  CB        -4.6420   76.9820   -3.4740 C.3   117  ASN117      0.1195
    118  CG        -4.3790   76.4500   -4.8440 C.2   117  ASN117      0.2630
    119  OD1       -3.7920   77.1240   -5.6900 O.2   117  ASN117     -0.2716
    120  ND2       -4.8260   75.1990   -5.0930 N.am  117  ASN117     -0.0877
    121  N         -2.5060   79.5920   -4.5410 N.am  118  LYS118     -0.1977
    122  CA        -2.4500   80.8230   -5.3520 C.3   118  LYS118      0.1596
    123  C         -2.8870   80.6550   -6.8260 C.2   118  LYS118      0.2287
    124  O         -3.0430   81.6250   -7.5700 O.2   118  LYS118     -0.2864
    125  CB        -1.0480   81.4790   -5.2400 C.3   118  LYS118      0.0298
    126  CG         0.0800   80.7800   -5.9360 C.3   118  LYS118      0.0038
    127  CD         1.4010   81.5590   -5.6740 C.3   118  LYS118      0.0206
    128  CE         2.5550   80.6330   -5.9140 C.3   118  LYS118      0.1093
    129  NZ         2.4180   79.5700   -4.8660 N.3   118  LYS118     -0.1314
    130  N         -2.6940   83.9410    2.9010 N.3   142  ALA142     -0.1231
    131  CA        -1.6110   83.0170    2.8150 C.3   142  ALA142      0.1694
    132  C         -1.0320   82.7870    1.4280 C.2   142  ALA142      0.2592
    133  O          0.0040   82.1160    1.3400 O.2   142  ALA142     -0.2718
    134  CB        -2.0750   81.5960    3.3690 C.3   142  ALA142      0.0304
    135  N         -1.6400   83.3410    0.3700 N.am  143  THR143     -0.1953
    136  CA        -1.0490   83.1700   -0.9700 C.3   143  THR143      0.1897
    137  C          0.2480   83.9370   -1.2450 C.2   143  THR143      0.2313
    138  O          0.9940   83.5840   -2.1730 O.2   143  THR143     -0.2863
    139  CB        -2.0630   83.5210   -2.0730 C.3   143  THR143      0.1794
    140  OG1       -2.4830   84.8900   -1.9560 O.3   143  THR143     -0.2208
    141  CG2       -3.2590   82.5240   -1.9790 C.3   143  THR143      0.0378
    142  N          3.1540   84.2030    3.0640 N.3   146  GLY146     -0.1225
    143  CA         2.8210   83.2110    4.0890 C.3   146  GLY146      0.1811
    144  C          2.1070   83.8290    5.2700 C.2   146  GLY146      0.2280
    145  O          1.0430   84.4250    5.1040 O.2   146  GLY146     -0.2866
    146  N          2.7410   85.2510   -7.3560 N.3   214  LYS214     -0.1245
    147  CA         2.4320   86.0580   -6.1670 C.3   214  LYS214      0.1561
    148  C          2.2990   87.5210   -6.5470 C.2   214  LYS214      0.2260
    149  O          1.4670   88.2660   -5.9860 O.2   214  LYS214     -0.2867
    150  CB         3.5330   85.8910   -5.1000 C.3   214  LYS214      0.0271
    151  CG         3.5450   84.4410   -4.5100 C.3   214  LYS214      0.0035
    152  CD         4.8210   84.1230   -3.7120 C.3   214  LYS214      0.0206
    153  CE         4.6110   82.7200   -3.0040 C.3   214  LYS214      0.1093
    154  NZ         5.8860   82.1980   -2.3830 N.3   214  LYS214     -0.1314
    155  N          9.6470   81.7100    8.4950 N.3   301  ASP301     -0.1225
    156  CA         8.4600   81.3010    7.7940 C.3   301  ASP301      0.1805
    157  C          8.1950   79.8230    8.0860 C.2   301  ASP301      0.2598
    158  O          9.1380   79.0510    8.2250 O.2   301  ASP301     -0.2718
    159  CB         8.7160   81.4750    6.2830 C.3   301  ASP301      0.1424
    160  CG         7.6270   80.8580    5.4240 C.2   301  ASP301      0.3668
    161  OD1        6.4190   81.1260    5.6780 O.co2 301  ASP301     -0.2456
    162  OD2        7.9900   80.1090    4.4880 O.co2 301  ASP301     -0.2456
    163  N          6.9240   79.4300    8.1830 N.am  302  GLY302     -0.1943
    164  CA         6.5940   78.0020    8.3080 C.3   302  GLY302      0.1998
    165  C          5.1090   77.7600    8.1420 C.2   302  GLY302      0.2480
    166  O          4.3180   78.7050    8.1840 O.2   302  GLY302     -0.2729
    167  N          4.7060   76.4820    8.0020 N.am  303  PRO303     -0.2726
    168  CA         3.3000   76.2160    7.6860 C.3   303  PRO303      0.1402
    169  C          2.3640   76.4970    8.8410 C.2   303  PRO303      0.2269
    170  O          1.1820   76.7470    8.6140 O.2   303  PRO303     -0.2865
    171  CB         3.2800   74.7020    7.3520 C.3   303  PRO303      0.0296
    172  CG         4.5050   74.1350    8.0090 C.3   303  PRO303      0.0237
    173  CD         5.5370   75.2570    7.9370 C.3   303  PRO303      0.0939
    174  N          1.5920   80.0990    8.4720 N.3   306  THR306     -0.1218
    175  CA         0.8010   80.1700    7.2680 C.3   306  THR306      0.1862
    176  C         -0.6410   79.7810    7.5680 C.2   306  THR306      0.2287
    177  O         -1.5610   80.4610    7.1150 O.2   306  THR306     -0.2866
    178  CB         1.3920   79.2460    6.1570 C.3   306  THR306      0.1770
    179  OG1        2.7170   79.7100    5.8420 O.3   306  THR306     -0.2211
    180  CG2        0.5450   79.3360    4.8940 C.3   306  THR306      0.0375
@<TRIPOS>BOND
     1    99   100    1
     2   100   103    1
     3   100   101    1
     4   103   104    1
     5   101   102    2
     6   104   105    1
     7   105   106    1
     8    97    96    2
     9    96    95    1
    10   106   107    1
    11   124   123    2
    12   146   147    1
    13   123   122    1
    14    95    98    1
    15    95    94    1
    16   148   147    1
    17   148   149    2
    18   147   150    1
    19    90    89    2
    20   126   127    1
    21   126   125    1
    22   128   127    1
    23   128   129    1
    24   119   118    2
    25    94    89   am
    26    89    88    1
    27   122   125    1
    28   122   121    1
    29   150   151    1
    30   120   118   am
    31    91    88    1
    32    91    92    1
    33   118   117    1
    34   121   115   am
    35   151   152    1
    36    88    87    1
    37   116   115    2
    38    92    93    1
    39   115   114    1
    40   152   153    1
    41    85    84    1
    42   117   114    1
    43    87    93    1
    44    87    82   am
    45   114   113    1
    46   153   154    1
    47    63    62    2
    48    84    86    1
    49    84    81    1
    50    83    82    2
    51    82    81    1
    52    64    61    1
    53    64    65    1
    54   138   137    2
    55   139   141    1
    56   139   140    1
    57   139   136    1
    58    61    62    1
    59    61    60    1
    60    81    80    1
    61   113   110   am
    62     9     7   ar
    63     9    11   ar
    64   137   136    1
    65   111   110    2
    66     7     6   ar
    67   136   135    1
    68    80    77   am
    69   110   109    1
    70    55    54    2
    71    60    54   am
    72    11    10   ar
    73    54    53    1
    74     6     5    1
    75     6     8   ar
    76     5     2    1
    77    10     8   ar
    78   135   132   am
    79    77    78    2
    80    77    76    1
    81   108   109    1
    82   109   112    1
    83    51    48    1
    84    75    76    1
    85    53    52    1
    86    53    56    1
    87     4     3    2
    88    76    79    1
    89   133   132    2
    90   132   131    1
    91     2     3    1
    92     2     1    1
    93     3    12   am
    94    52    49   am
    95    58    57   ar
    96    12    13    1
    97    13    14    1
    98    49    48    1
    99    49    50    2
   100    48    47    1
   101    56    57    1
   102    57    59   ar
   103   131   130    1
   104   131   134    1
   105   142   143    1
   106    14    16   am
   107    14    15    2
   108    35    33   am
   109    16    17    1
   110   143   144    1
   111    42    40    1
   112   162   160   ar
   113    74    73    1
   114    25    24    1
   115    25    26    1
   116    24    18   am
   117    40    41    1
   118    40    37    1
   119   180   178    1
   120    33    32    1
   121    33    34    2
   122   145   144    2
   123    17    18    1
   124    17    20    1
   125    28    26   am
   126    28    29    1
   127    18    19    2
   128    32    29    1
   129   160   161   ar
   130   160   159    1
   131    26    27    2
   132    36    37    1
   133    36    30   am
   134    20    21    1
   135    73    72    1
   136    21    22    1
   137    21    23    1
   138   179   178    1
   139    43    44    1
   140    43    38   am
   141    37    38    1
   142    29    30    1
   143   178   175    1
   144   159   156    1
   145    44    45    1
   146    30    31    2
   147    38    39    2
   148    72    71    1
   149   177   176    2
   150   175   176    1
   151   175   174    1
   152   171   168    1
   153   171   172    1
   154   168   167    1
   155   168   169    1
   156    45    46    2
   157   156   157    1
   158   156   155    1
   159   173   167    1
   160   173   172    1
   161   167   165   am
   162   157   163   am
   163   157   158    2
   164   165   166    2
   165   165   164    1
   166    71    70    1
   167   163   164    1
   168   170   169    2
   169    70    67    1
   170    69    68    2
   171    67    68    1
   172    67    66    1
