@<TRIPOS>MOLECULE
tmp/3jsfC00.pdb
 91 87 0 0 0
SMALL
GASTEIGER

@<TRIPOS>ATOM
      1  N         23.0960  -26.5460   -2.6180 N.3     1  PRO1       -0.2102
      2  CA        22.6920  -27.6620   -3.4880 C.3     1  PRO1        0.1504
      3  C         21.4300  -28.3760   -3.0060 C.2     1  PRO1        0.2575
      4  O         21.2120  -28.5580   -1.8060 O.2     1  PRO1       -0.2718
      5  CB        23.9060  -28.5920   -3.4840 C.3     1  PRO1        0.0282
      6  CG        25.0500  -27.7200   -3.0900 C.3     1  PRO1        0.0208
      7  CD        24.4650  -26.7420   -2.1070 C.3     1  PRO1        0.0893
      8  N         20.6010  -28.7760   -3.9610 N.am    2  MET2       -0.1980
      9  CA        19.2830  -29.2950   -3.6540 C.3     2  MET2        0.1605
     10  C         18.9920  -30.4510   -4.5910 C.2     2  MET2        0.2287
     11  O         19.0280  -30.2960   -5.8170 O.2     2  MET2       -0.2864
     12  CB        18.2490  -28.1870   -3.8440 C.3     2  MET2        0.0413
     13  CG        16.8150  -28.6020   -3.6340 C.3     2  MET2        0.0598
     14  SD        15.7000  -27.2200   -4.0000 S.3     2  MET2       -0.1393
     15  CE        14.3880  -28.0450   -4.8300 C.3     2  MET2        0.0692
     16  N         30.7070  -28.9720   -0.9660 N.3    32  LYS32      -0.1245
     17  CA        30.0090  -27.9880   -0.1540 C.3    32  LYS32       0.1561
     18  C         29.7380  -28.5770    1.2220 C.2    32  LYS32       0.2260
     19  O         29.5030  -29.7730    1.3610 O.2    32  LYS32      -0.2867
     20  CB        28.6970  -27.5900   -0.8330 C.3    32  LYS32       0.0271
     21  CG        28.8580  -27.3140   -2.3230 C.3    32  LYS32       0.0035
     22  CD        28.1760  -26.0270   -2.7500 C.3    32  LYS32       0.0206
     23  CE        28.7040  -25.5620   -4.1020 C.3    32  LYS32       0.1093
     24  NZ        27.9930  -24.3570   -4.6140 N.3    32  LYS32      -0.1314
     25  N         24.5480  -26.9080    3.9180 N.3    36  TYR36      -0.1241
     26  CA        23.9230  -26.2500    2.7780 C.3    36  TYR36       0.1605
     27  C         22.9920  -27.1810    2.0080 C.2    36  TYR36       0.2264
     28  O         22.1550  -26.7220    1.2300 O.2    36  TYR36      -0.2867
     29  CB        24.9880  -25.7310    1.8160 C.3    36  TYR36       0.0534
     30  CG        25.7670  -24.5450    2.3260 C.ar   36  TYR36      -0.0201
     31  CD1       25.3650  -23.2510    2.0310 C.ar   36  TYR36      -0.0009
     32  CD2       26.9210  -24.7170    3.0760 C.ar   36  TYR36      -0.0009
     33  CE1       26.0930  -22.1560    2.4660 C.ar   36  TYR36       0.0417
     34  CE2       27.6560  -23.6290    3.5160 C.ar   36  TYR36       0.0417
     35  CZ        27.2370  -22.3530    3.2060 C.ar   36  TYR36       0.1957
     36  OH        27.9760  -21.2680    3.6210 O.3    36  TYR36      -0.2866
     37  N         20.1820  -29.7360    0.7410 N.3    38  ALA38      -0.1245
     38  CA        18.7900  -30.1310    0.9500 C.3    38  ALA38       0.1562
     39  C         18.4240  -31.3300    0.0750 C.2    38  ALA38       0.2260
     40  O         18.7630  -31.3810   -1.1120 O.2    38  ALA38      -0.2867
     41  CB        17.8640  -28.9620    0.6450 C.3    38  ALA38       0.0290
     42  N         19.8240  -28.9190   -8.1880 N.3    62  HIS62      -0.1226
     43  CA        20.1040  -27.4970   -8.3260 C.3    62  HIS62       0.1752
     44  C         21.3930  -27.1650   -7.5960 C.2    62  HIS62       0.2597
     45  O         21.5790  -27.5620   -6.4520 O.2    62  HIS62      -0.2718
     46  CB        18.9750  -26.6590   -7.7270 C.3    62  HIS62       0.0759
     47  CG        17.6900  -26.7340   -8.4880 C.ar   62  HIS62       0.0818
     48  ND1       16.8250  -27.8030   -8.3860 N.ar   62  HIS62      -0.2268
     49  CD2       17.1060  -25.8590   -9.3390 C.ar   62  HIS62       0.1154
     50  CE1       15.7630  -27.5810   -9.1390 C.ar   62  HIS62       0.1986
     51  NE2       15.9090  -26.4080   -9.7280 N.ar   62  HIS62      -0.2212
     52  N         22.2760  -26.4240   -8.2530 N.am   63  SER63      -0.1938
     53  CA        23.4900  -25.9570   -7.5990 C.3    63  SER63       0.2055
     54  C         23.8800  -24.5890   -8.1290 C.2    63  SER63       0.2642
     55  O         23.6470  -24.2740   -9.2960 O.2    63  SER63      -0.2714
     56  CB        24.6330  -26.9510   -7.8300 C.3    63  SER63       0.2130
     57  OG        25.8070  -26.5470   -7.1420 O.3    63  SER63      -0.2179
     58  N         24.4570  -23.7640   -7.2650 N.am   64  ILE64      -0.1977
     59  CA        25.0460  -22.5160   -7.7270 C.3    64  ILE64       0.1596
     60  C         26.4660  -22.8350   -8.1920 C.2    64  ILE64       0.2287
     61  O         27.3690  -23.0250   -7.3780 O.2    64  ILE64      -0.2864
     62  CB        25.0740  -21.4700   -6.5960 C.3    64  ILE64       0.0276
     63  CG1       23.6450  -21.2110   -6.0980 C.3    64  ILE64       0.0022
     64  CG2       25.7050  -20.1790   -7.1000 C.3    64  ILE64       0.0022
     65  CD1       23.5580  -20.2760   -4.9050 C.3    64  ILE64       0.0001
     66  N         22.1750  -22.6430  -10.9570 N.3   101  MET101     -0.1245
     67  CA        21.4110  -21.5000  -10.4640 C.3   101  MET101      0.1570
     68  C         22.3190  -20.2970  -10.2560 C.2   101  MET101      0.2261
     69  O         23.4600  -20.4420   -9.8190 O.2   101  MET101     -0.2867
     70  CB        20.7290  -21.8480   -9.1380 C.3   101  MET101      0.0387
     71  CG        19.6700  -22.9410   -9.2430 C.3   101  MET101      0.0595
     72  SD        18.2650  -22.4710  -10.2910 S.3   101  MET101     -0.1393
     73  CE        17.5070  -21.1820   -9.2970 C.3   101  MET101      0.0692
     74  N         18.5190  -17.6480   -5.8950 N.3   106  VAL106     -0.1245
     75  CA        18.3140  -18.6170   -4.8280 C.3   106  VAL106      0.1561
     76  C         18.0380  -17.8880   -3.5140 C.2   106  VAL106      0.2260
     77  O         18.9090  -17.1960   -2.9790 O.2   106  VAL106     -0.2867
     78  CB        19.5510  -19.5340   -4.6560 C.3   106  VAL106      0.0252
     79  CG1       19.3110  -20.5210   -3.5170 C.3   106  VAL106      0.0019
     80  CG2       19.8360  -20.2850   -5.9630 C.3   106  VAL106      0.0019
     81  N         21.4290  -15.2150   -2.1630 N.3   113  PHE113     -0.1241
     82  CA        22.8790  -15.2990   -2.0870 C.3   113  PHE113      0.1605
     83  C         23.5630  -14.2300   -2.9350 C.2   113  PHE113      0.2264
     84  O         24.7770  -14.2640   -3.1440 O.2   113  PHE113     -0.2867
     85  CB        23.3320  -16.7040   -2.4890 C.3   113  PHE113      0.0534
     86  CG        22.9410  -17.7570   -1.4960 C.ar  113  PHE113     -0.0203
     87  CD1       23.4930  -17.7600   -0.2260 C.ar  113  PHE113     -0.0042
     88  CD2       22.0040  -18.7260   -1.8160 C.ar  113  PHE113     -0.0042
     89  CE1       23.1140  -18.7170    0.7160 C.ar  113  PHE113     -0.0003
     90  CE2       21.6180  -19.6830   -0.8790 C.ar  113  PHE113     -0.0003
     91  CZ        22.1720  -19.6790    0.3820 C.ar  113  PHE113     -0.0000
@<TRIPOS>BOND
     1    66    67    1
     2    67    68    1
     3    67    70    1
     4    72    73    1
     5    72    71    1
     6    68    69    2
     7    51    49   ar
     8    51    50   ar
     9    49    47   ar
    10    55    54    2
    11    71    70    1
    12    50    48   ar
    13    47    48   ar
    14    47    46    1
    15    43    42    1
    16    43    46    1
    17    43    44    1
    18    52    53    1
    19    52    44   am
    20    60    59    1
    21    60    61    2
    22    54    53    1
    23    54    58   am
    24    56    53    1
    25    56    57    1
    26    59    58    1
    27    59    62    1
    28    44    45    2
    29    64    62    1
    30    62    63    1
    31    63    65    1
    32    80    78    1
    33    74    75    1
    34    11    10    2
    35    15    14    1
    36    75    78    1
    37    75    76    1
    38    78    79    1
    39    24    23    1
    40    10     9    1
    41    23    22    1
    42    14    13    1
    43     8     9    1
    44     8     3   am
    45    12     9    1
    46    12    13    1
    47    76    77    2
    48     2     5    1
    49     2     3    1
    50     2     1    1
    51     5     6    1
    52    84    83    2
    53     6     7    1
    54     3     4    2
    55    83    82    1
    56    22    21    1
    57     1     7    1
    58    85    82    1
    59    85    86    1
    60    21    20    1
    61    81    82    1
    62    88    86   ar
    63    88    90   ar
    64    86    87   ar
    65    40    39    2
    66    16    17    1
    67    90    91   ar
    68    20    17    1
    69    87    89   ar
    70    17    18    1
    71    39    38    1
    72    91    89   ar
    73    41    38    1
    74    37    38    1
    75    18    19    2
    76    28    27    2
    77    29    30    1
    78    29    26    1
    79    27    26    1
    80    31    30   ar
    81    31    33   ar
    82    30    32   ar
    83    33    35   ar
    84    26    25    1
    85    32    34   ar
    86    35    34   ar
    87    35    36    1
