@<TRIPOS>MOLECULE
tmp/3jsgA00.pdb
 91 87 0 0 0
SMALL
GASTEIGER

@<TRIPOS>ATOM
      1  N         24.2790    6.3010  -19.4640 N.3     1  PRO1       -0.2102
      2  CA        23.2030    5.8120  -18.5880 C.3     1  PRO1        0.1504
      3  C         22.5280    4.5480  -19.1080 C.2     1  PRO1        0.2575
      4  O         22.3230    4.3830  -20.3110 O.2     1  PRO1       -0.2718
      5  CB        22.2170    6.9800  -18.5230 C.3     1  PRO1        0.0282
      6  CG        22.9910    8.1720  -18.9900 C.3     1  PRO1        0.0208
      7  CD        23.9510    7.6300  -20.0100 C.3     1  PRO1        0.0893
      8  N         22.1760    3.6550  -18.1950 N.am    2  MET2       -0.1980
      9  CA        21.4320    2.4670  -18.5720 C.3     2  MET2        0.1605
     10  C         20.3240    2.2080  -17.5790 C.2     2  MET2        0.2287
     11  O         20.5250    2.2970  -16.3620 O.2     2  MET2       -0.2864
     12  CB        22.3550    1.2570  -18.6450 C.3     2  MET2        0.0413
     13  CG        23.4980    1.2910  -17.6690 C.3     2  MET2        0.0598
     14  SD        24.6150   -0.0560  -18.0390 S.3     2  MET2       -0.1393
     15  CE        23.4380   -1.3820  -17.9580 C.3     2  MET2        0.0692
     16  N         21.9200   13.8570  -20.8880 N.3    32  LYS32      -0.1245
     17  CA        22.8880   13.1700  -21.7340 C.3    32  LYS32       0.1561
     18  C         22.2710   12.9350  -23.1080 C.2    32  LYS32       0.2260
     19  O         21.0580   12.7860  -23.2360 O.2    32  LYS32      -0.2867
     20  CB        23.2850   11.8340  -21.0980 C.3    32  LYS32       0.0271
     21  CG        23.5530   11.9230  -19.6020 C.3    32  LYS32       0.0035
     22  CD        24.9940   11.5870  -19.2550 C.3    32  LYS32       0.0206
     23  CE        25.2640   11.8320  -17.7750 C.3    32  LYS32       0.1093
     24  NZ        26.6530   11.4710  -17.3690 N.3    32  LYS32      -0.1314
     25  N         23.8530    7.7210  -26.0060 N.3    36  TYR36      -0.1241
     26  CA        24.5310    7.0250  -24.9190 C.3    36  TYR36       0.1605
     27  C         23.5830    6.2940  -23.9780 C.2    36  TYR36       0.2264
     28  O         24.0310    5.6320  -23.0420 O.2    36  TYR36      -0.2867
     29  CB        25.3950    8.0010  -24.1140 C.3    36  TYR36       0.0534
     30  CG        26.7320    8.2870  -24.7640 C.ar   36  TYR36      -0.0201
     31  CD1       27.6990    7.2930  -24.8720 C.ar   36  TYR36      -0.0009
     32  CD2       27.0170    9.5370  -25.2970 C.ar   36  TYR36      -0.0009
     33  CE1       28.9120    7.5320  -25.4980 C.ar   36  TYR36       0.0417
     34  CE2       28.2280    9.7880  -25.9250 C.ar   36  TYR36       0.0417
     35  CZ        29.1700    8.7820  -26.0240 C.ar   36  TYR36       0.1957
     36  OH        30.3730    9.0200  -26.6550 O.3    36  TYR36      -0.2866
     37  N         21.0490    3.4320  -22.8240 N.3    38  ALA38      -0.1245
     38  CA        20.6490    2.0510  -23.0710 C.3    38  ALA38       0.1562
     39  C         19.4540    1.6850  -22.2000 C.2    38  ALA38       0.2260
     40  O         19.3900    2.0540  -21.0250 O.2    38  ALA38      -0.2867
     41  CB        21.8210    1.1030  -22.7870 C.3    38  ALA38       0.0290
     42  N         21.7970    3.1530  -13.9300 N.3    62  HIS62      -0.1226
     43  CA        23.2300    3.3920  -13.7990 C.3    62  HIS62       0.1752
     44  C         23.5810    4.6680  -14.5500 C.2    62  HIS62       0.2597
     45  O         23.1860    4.8440  -15.6970 O.2    62  HIS62      -0.2718
     46  CB        24.0240    2.2260  -14.4030 C.3    62  HIS62       0.0759
     47  CG        23.8570    0.9290  -13.6740 C.ar   62  HIS62       0.0818
     48  ND1       22.8010    0.0730  -13.9070 N.ar   62  HIS62      -0.2268
     49  CD2       24.6350    0.3210  -12.7480 C.ar   62  HIS62       0.1154
     50  CE1       22.9370   -1.0050  -13.1570 C.ar   62  HIS62       0.1986
     51  NE2       24.0420   -0.8800  -12.4440 N.ar   62  HIS62      -0.2212
     52  N         24.3280    5.5550  -13.9080 N.am   63  SER63      -0.1938
     53  CA        24.7930    6.7590  -14.5860 C.3    63  SER63       0.2055
     54  C         26.1590    7.1570  -14.0600 C.2    63  SER63       0.2642
     55  O         26.4630    6.9550  -12.8830 O.2    63  SER63      -0.2714
     56  CB        23.7970    7.9010  -14.3730 C.3    63  SER63       0.2130
     57  OG        24.2250    9.0820  -15.0390 O.3    63  SER63      -0.2179
     58  N         26.9910    7.7210  -14.9280 N.am   64  ILE64      -0.1977
     59  CA        28.2410    8.3090  -14.4690 C.3    64  ILE64       0.1596
     60  C         27.9420    9.7380  -14.0160 C.2    64  ILE64       0.2287
     61  O         27.8160   10.6510  -14.8340 O.2    64  ILE64      -0.2864
     62  CB        29.3030    8.3130  -15.5970 C.3    64  ILE64       0.0276
     63  CG1       29.5630    6.8770  -16.0600 C.3    64  ILE64       0.0022
     64  CG2       30.5990    8.9470  -15.0940 C.3    64  ILE64       0.0022
     65  CD1       30.4910    6.7710  -17.2550 C.3    64  ILE64       0.0001
     66  N         28.0630    5.3850  -11.1690 N.3   101  MET101     -0.1245
     67  CA        29.2070    4.6240  -11.6490 C.3   101  MET101      0.1570
     68  C         30.4260    5.5210  -11.8470 C.2   101  MET101      0.2261
     69  O         30.3070    6.6600  -12.3120 O.2   101  MET101     -0.2867
     70  CB        28.8730    3.9350  -12.9770 C.3   101  MET101      0.0387
     71  CG        27.6490    3.0420  -12.9310 C.3   101  MET101      0.0595
     72  SD        27.8790    1.6450  -11.8250 S.3   101  MET101     -0.1393
     73  CE        29.2670    0.7780  -12.6080 C.3   101  MET101      0.0692
     74  N         33.0430    1.6950  -16.1820 N.3   106  VAL106     -0.1245
     75  CA        32.0880    1.4540  -17.2530 C.3   106  VAL106      0.1561
     76  C         32.8180    1.2120  -18.5670 C.2   106  VAL106      0.2260
     77  O         33.4590    2.1140  -19.1040 O.2   106  VAL106     -0.2867
     78  CB        31.1150    2.6360  -17.4200 C.3   106  VAL106      0.0252
     79  CG1       30.1360    2.3460  -18.5540 C.3   106  VAL106      0.0019
     80  CG2       30.3540    2.8700  -16.1170 C.3   106  VAL106      0.0019
     81  N         35.4430    4.6580  -19.9280 N.3   113  PHE113     -0.1241
     82  CA        35.3500    6.1080  -20.0010 C.3   113  PHE113      0.1605
     83  C         36.4350    6.7950  -19.1700 C.2   113  PHE113      0.2264
     84  O         36.4320    8.0170  -19.0060 O.2   113  PHE113     -0.2867
     85  CB        33.9490    6.5530  -19.5750 C.3   113  PHE113      0.0534
     86  CG        32.8840    6.1740  -20.5610 C.ar  113  PHE113     -0.0203
     87  CD1       32.8170    6.8060  -21.7900 C.ar  113  PHE113     -0.0042
     88  CD2       31.9720    5.1660  -20.2820 C.ar  113  PHE113     -0.0042
     89  CE1       31.8650    6.4420  -22.7250 C.ar  113  PHE113     -0.0003
     90  CE2       31.0150    4.7960  -21.2160 C.ar  113  PHE113     -0.0003
     91  CZ        30.9620    5.4360  -22.4400 C.ar  113  PHE113     -0.0000
@<TRIPOS>BOND
     1    36    35    1
     2    35    34   ar
     3    35    33   ar
     4    25    26    1
     5    34    32   ar
     6    33    31   ar
     7    32    30   ar
     8    26    29    1
     9    26    27    1
    10    31    30   ar
    11    30    29    1
    12    27    28    2
    13    19    18    2
    14    18    17    1
    15    38    37    1
    16    38    41    1
    17    38    39    1
    18    89    91   ar
    19    89    87   ar
    20    91    90   ar
    21    39    40    2
    22    87    86   ar
    23    17    20    1
    24    17    16    1
    25    90    88   ar
    26    20    21    1
    27    86    88   ar
    28    86    85    1
    29     4     3    2
    30     7     1    1
    31     7     6    1
    32    82    81    1
    33    82    85    1
    34    82    83    1
    35    21    22    1
    36     1     2    1
    37    22    23    1
    38    83    84    2
    39     3     2    1
    40     3     8   am
    41    77    76    2
    42     6     5    1
    43    12     9    1
    44    12    13    1
    45     2     5    1
    46     9     8    1
    47     9    10    1
    48    76    75    1
    49    79    78    1
    50    14    15    1
    51    14    13    1
    52    23    24    1
    53    10    11    2
    54    78    75    1
    55    78    80    1
    56    65    63    1
    57    75    74    1
    58    63    62    1
    59    45    44    2
    60    62    64    1
    61    62    59    1
    62    57    56    1
    63    58    59    1
    64    58    54   am
    65    61    60    2
    66    53    56    1
    67    53    54    1
    68    53    52    1
    69    44    52   am
    70    44    43    1
    71    59    60    1
    72    46    43    1
    73    46    47    1
    74    54    55    2
    75    42    43    1
    76    48    47   ar
    77    48    50   ar
    78    47    49   ar
    79    50    51   ar
    80    70    71    1
    81    70    67    1
    82    71    72    1
    83    49    51   ar
    84    73    72    1
    85    69    68    2
    86    68    67    1
    87    67    66    1
