@<TRIPOS>MOLECULE
tmp/3jsiB00.pdb
 174 165 0 0 0
SMALL
GASTEIGER

@<TRIPOS>ATOM
      1  N        105.2890   29.8650    8.7550 N.3    74  PHE74      -0.1227
      2  CA       103.8850   29.6560    8.4030 C.3    74  PHE74       0.1736
      3  C        103.0220   30.9160    8.5540 C.2    74  PHE74       0.2595
      4  O        102.3400   31.2990    7.5990 O.2    74  PHE74      -0.2718
      5  CB       103.2830   28.4810    9.1910 C.3    74  PHE74       0.0547
      6  CG       101.8760   28.1160    8.7700 C.ar   74  PHE74      -0.0202
      7  CD1      101.6540   27.1900    7.7570 C.ar   74  PHE74      -0.0042
      8  CD2      100.7720   28.7040    9.3810 C.ar   74  PHE74      -0.0042
      9  CE1      100.3540   26.8520    7.3720 C.ar   74  PHE74      -0.0003
     10  CE2       99.4740   28.3830    8.9790 C.ar   74  PHE74      -0.0003
     11  CZ        99.2740   27.4530    7.9840 C.ar   74  PHE74      -0.0000
     12  N        103.0050   31.5210    9.7610 N.am   75  HIS75      -0.1975
     13  CA       102.1950   32.7060   10.0630 C.3    75  HIS75       0.1656
     14  C        102.8390   34.0040    9.5710 C.2    75  HIS75       0.2291
     15  O        103.3060   34.8380   10.3570 O.2    75  HIS75      -0.2864
     16  CB       101.7800   32.7370   11.5430 C.3    75  HIS75       0.0771
     17  CG       100.8160   31.6510   11.8950 C.ar   75  HIS75       0.0820
     18  ND1      101.2090   30.5510   12.6250 N.ar   75  HIS75      -0.2267
     19  CD2       99.5120   31.5120   11.5630 C.ar   75  HIS75       0.1154
     20  CE1      100.1340   29.7880   12.7320 C.ar   75  HIS75       0.1986
     21  NE2       99.0880   30.3250   12.1080 N.ar   75  HIS75      -0.2212
     22  N        100.3420   33.6630    4.1330 N.3    79  HIS79      -0.1241
     23  CA        99.2600   32.9190    4.7780 C.3    79  HIS79       0.1621
     24  C         97.9970   33.7850    4.8000 C.2    79  HIS79       0.2264
     25  O         96.9220   33.3210    4.4050 O.2    79  HIS79      -0.2867
     26  CB        99.6520   32.4880    6.2040 C.3    79  HIS79       0.0745
     27  CG        98.4870   32.0520    7.0410 C.ar   79  HIS79       0.0817
     28  ND1       97.8340   30.8540    6.8030 N.ar   79  HIS79      -0.2268
     29  CD2       97.8770   32.6880    8.0700 C.ar   79  HIS79       0.1154
     30  CE1       96.8630   30.7920    7.7010 C.ar   79  HIS79       0.1986
     31  NE2       96.8530   31.8720    8.4890 N.ar   79  HIS79      -0.2212
     32  N         89.0720   32.4280   15.3730 N.3   186  THR186     -0.1218
     33  CA        90.1390   31.6640   14.7230 C.3   186  THR186      0.1862
     34  C         90.9430   30.7610   15.6790 C.2   186  THR186      0.2287
     35  O         91.5860   29.8210   15.1980 O.2   186  THR186     -0.2866
     36  CB        91.0060   32.5400   13.8060 C.3   186  THR186      0.1770
     37  OG1       91.7640   33.4530   14.5960 O.3   186  THR186     -0.2211
     38  CG2       90.1920   33.2830   12.7470 C.3   186  THR186      0.0375
     39  N         92.0010   27.8360   17.6890 N.3   188  MET188     -0.1245
     40  CA        91.6890   26.4090   17.5790 C.3   188  MET188      0.1570
     41  C         91.2370   25.7550   18.8780 C.2   188  MET188      0.2261
     42  O         90.6430   24.6720   18.8470 O.2   188  MET188     -0.2867
     43  CB        92.8150   25.6310   16.8910 C.3   188  MET188      0.0387
     44  CG        92.8270   25.8120   15.3840 C.3   188  MET188      0.0595
     45  SD        91.2820   25.3720   14.5460 S.3   188  MET188     -0.1393
     46  CE        91.3610   23.6300   14.6380 C.3   188  MET188      0.0692
     47  N         90.9440   29.8920    7.1260 N.3   225  ASP225     -0.1225
     48  CA        92.1270   29.8890    7.9880 C.3   225  ASP225      0.1805
     49  C         92.9350   28.6020    7.8740 C.2   225  ASP225      0.2597
     50  O         94.1640   28.6500    7.9490 O.2   225  ASP225     -0.2718
     51  CB        91.7250   30.1620    9.4510 C.3   225  ASP225      0.1424
     52  CG        92.8570   30.5340   10.4020 C.2   225  ASP225      0.3668
     53  OD1       93.9060   31.0230    9.9190 O.co2 225  ASP225     -0.2456
     54  OD2       92.6740   30.3780   11.6380 O.co2 225  ASP225     -0.2456
     55  N         92.2460   27.4580    7.6800 N.am  226  ILE226     -0.1980
     56  CA        92.8660   26.1250    7.5880 C.3   226  ILE226      0.1595
     57  C         92.7010   25.4340    6.2040 C.2   226  ILE226      0.2287
     58  O         93.1010   24.2770    6.0260 O.2   226  ILE226     -0.2864
     59  CB        92.4890   25.2300    8.8130 C.3   226  ILE226      0.0276
     60  CG1       90.9730   24.9510    8.8810 C.3   226  ILE226      0.0022
     61  CG2       93.0150   25.8350   10.1340 C.3   226  ILE226      0.0022
     62  CD1       90.6030   23.7540    9.7160 C.3   226  ILE226      0.0001
     63  N         94.3010   25.2810    3.4600 N.3   228  ASN228     -0.1225
     64  CA        95.4650   24.9210    2.6410 C.3   228  ASN228      0.1785
     65  C         95.2970   23.6250    1.8410 C.2   228  ASN228      0.2597
     66  O         95.5600   23.6360    0.6440 O.2   228  ASN228     -0.2718
     67  CB        96.7670   24.9330    3.4520 C.3   228  ASN228      0.1169
     68  CG        97.3000   26.3150    3.7840 C.2   228  ASN228      0.2627
     69  OD1       96.9700   27.3350    3.1530 O.2   228  ASN228     -0.2716
     70  ND2       98.1420   26.3820    4.8010 N.am  228  ASN228     -0.0877
     71  N         94.7860   22.5450    2.4730 N.am  229  GLU229     -0.1979
     72  CA        94.5820   21.2490    1.8100 C.3   229  GLU229      0.1602
     73  C         93.5030   21.2240    0.7150 C.2   229  GLU229      0.2287
     74  O         93.5280   20.3290   -0.1360 O.2   229  GLU229     -0.2864
     75  CB        94.4250   20.0980    2.8200 C.3   229  GLU229      0.0415
     76  CG        95.7120   19.7100    3.5390 C.3   229  GLU229      0.1163
     77  CD        96.9150   19.3360    2.6910 C.2   229  GLU229      0.3649
     78  OE1       98.0330   19.7960    3.0180 O.co2 229  GLU229     -0.2457
     79  OE2       96.7430   18.6050    1.6890 O.co2 229  GLU229     -0.2457
     80  N        102.6910   22.5590    4.5190 N.3   240  VAL240     -0.1245
     81  CA       102.8580   21.5660    5.5910 C.3   240  VAL240      0.1561
     82  C        104.2940   21.6190    6.1190 C.2   240  VAL240      0.2260
     83  O        104.5080   21.5330    7.3310 O.2   240  VAL240     -0.2867
     84  CB       102.4250   20.1220    5.2030 C.3   240  VAL240      0.0252
     85  CG1      102.1280   19.2950    6.4520 C.3   240  VAL240      0.0019
     86  CG2      101.2130   20.1260    4.2700 C.3   240  VAL240      0.0019
     87  N        104.5580   24.9150    8.2440 N.3   243  LEU243     -0.1231
     88  CA       104.0000   24.7540    9.5840 C.3   243  LEU243      0.1693
     89  C        104.9190   23.9430   10.4860 C.2   243  LEU243      0.2591
     90  O        105.1450   24.3520   11.6260 O.2   243  LEU243     -0.2718
     91  CB       102.5910   24.1470    9.5320 C.3   243  LEU243      0.0284
     92  CG       101.8120   24.1170   10.8470 C.3   243  LEU243      0.0019
     93  CD1      101.3840   25.5120   11.2930 C.3   243  LEU243      0.0001
     94  CD2      100.6220   23.2370   10.7180 C.3   243  LEU243      0.0001
     95  N        105.4790   22.8220    9.9710 N.am  244  LEU244     -0.1980
     96  CA       106.4100   21.9840   10.7330 C.3   244  LEU244      0.1596
     97  C        107.6370   22.7810   11.1580 C.2   244  LEU244      0.2287
     98  O        108.0650   22.6490   12.3010 O.2   244  LEU244     -0.2864
     99  CB       106.8230   20.7150    9.9620 C.3   244  LEU244      0.0297
    100  CG       105.8480   19.5350   10.0040 C.3   244  LEU244      0.0022
    101  CD1      106.1370   18.5600    8.8930 C.3   244  LEU244      0.0001
    102  CD2      105.8950   18.8100   11.3380 C.3   244  LEU244      0.0001
    103  N        106.5450   25.0410   14.0080 N.3   247  TYR247     -0.1241
    104  CA       106.2370   24.1900   15.1560 C.3   247  TYR247      0.1605
    105  C        107.5150   23.6720   15.8270 C.2   247  TYR247      0.2264
    106  O        107.5920   23.6730   17.0610 O.2   247  TYR247     -0.2867
    107  CB       105.3280   23.0260   14.7310 C.3   247  TYR247      0.0534
    108  CG       103.8390   23.3180   14.7330 C.ar  247  TYR247     -0.0201
    109  CD1      103.3500   24.5770   15.0740 C.ar  247  TYR247     -0.0009
    110  CD2      102.9180   22.3270   14.4120 C.ar  247  TYR247     -0.0009
    111  CE1      101.9820   24.8400   15.0960 C.ar  247  TYR247      0.0417
    112  CE2      101.5490   22.5810   14.4230 C.ar  247  TYR247      0.0417
    113  CZ       101.0840   23.8370   14.7710 C.ar  247  TYR247      0.1957
    114  OH        99.7320   24.0760   14.7880 O.3   247  TYR247     -0.2866
    115  N        102.3300   16.9140   18.7820 N.3   264  PHE264     -0.1241
    116  CA       102.2030   17.2730   17.3650 C.3   264  PHE264      0.1605
    117  C        103.2810   18.2740   16.8960 C.2   264  PHE264      0.2264
    118  O        103.3090   18.6540   15.7220 O.2   264  PHE264     -0.2867
    119  CB       100.7750   17.7480   17.0320 C.3   264  PHE264      0.0534
    120  CG       100.3700   19.0540   17.6640 C.ar  264  PHE264     -0.0203
    121  CD1      100.5590   20.2560   16.9940 C.ar  264  PHE264     -0.0042
    122  CD2       99.7760   19.0830   18.9190 C.ar  264  PHE264     -0.0042
    123  CE1      100.1820   21.4670   17.5780 C.ar  264  PHE264     -0.0003
    124  CE2       99.3920   20.2950   19.5010 C.ar  264  PHE264     -0.0003
    125  CZ        99.5980   21.4800   18.8260 C.ar  264  PHE264     -0.0000
    126  N        105.9840   13.6420   15.5590 N.3   270  VAL270     -0.1245
    127  CA       105.3030   14.0230   14.3040 C.3   270  VAL270      0.1561
    128  C        105.8530   13.4030   13.0390 C.2   270  VAL270      0.2260
    129  O        107.0610   13.2060   12.9000 O.2   270  VAL270     -0.2867
    130  CB       104.9790   15.5260   14.0600 C.3   270  VAL270      0.0252
    131  CG1      103.4840   15.7840   14.1340 C.3   270  VAL270      0.0019
    132  CG2      105.7710   16.4700   14.9560 C.3   270  VAL270      0.0019
    133  N        104.7810   14.0610    8.7810 N.3   272  LYS272     -0.1245
    134  CA       104.0460   14.9310    7.8500 C.3   272  LYS272      0.1561
    135  C        102.6910   14.3020    7.4490 C.2   272  LYS272      0.2260
    136  O        101.6650   14.9830    7.4710 O.2   272  LYS272     -0.2867
    137  CB       104.9140   15.2340    6.6110 C.3   272  LYS272      0.0271
    138  CG       104.6630   16.5920    5.9630 C.3   272  LYS272      0.0035
    139  CD       105.7690   16.9620    4.9570 C.3   272  LYS272      0.0206
    140  CE       105.4280   16.6640    3.5100 C.3   272  LYS272      0.1093
    141  NZ       104.6400   17.7590    2.8870 N.3   272  LYS272     -0.1314
    142  N        100.1030   13.5840   10.7780 N.3   275  ALA275     -0.1231
    143  CA        99.5810   14.8850   11.1870 C.3   275  ALA275      0.1694
    144  C         98.4430   15.3180   10.2580 C.2   275  ALA275      0.2591
    145  O         97.3700   15.6940   10.7430 O.2   275  ALA275     -0.2718
    146  CB       100.6950   15.9230   11.1820 C.3   275  ALA275      0.0304
    147  N         98.6660   15.2190    8.9310 N.am  276  GLN276     -0.1979
    148  CA        97.6670   15.5800    7.9290 C.3   276  GLN276      0.1601
    149  C         96.4870   14.6270    7.8850 C.2   276  GLN276      0.2287
    150  O         95.3580   15.1010    7.7790 O.2   276  GLN276     -0.2864
    151  CB        98.2800   15.8030    6.5390 C.3   276  GLN276      0.0394
    152  CG        99.2020   17.0170    6.4350 C.3   276  GLN276      0.0908
    153  CD        98.5520   18.3190    6.8180 C.2   276  GLN276      0.2608
    154  OE1       98.4120   18.6490    7.9990 O.2   276  GLN276     -0.2717
    155  NE2       98.1800   19.1040    5.8300 N.am  276  GLN276     -0.0878
    156  N         94.3400   15.6600   10.8110 N.3   279  PHE279     -0.1241
    157  CA        93.8010   17.0040   10.5910 C.3   279  PHE279      0.1605
    158  C         92.7080   17.0330    9.5230 C.2   279  PHE279      0.2264
    159  O         91.6490   17.6180    9.7570 O.2   279  PHE279     -0.2867
    160  CB        94.9160   18.0070   10.2650 C.3   279  PHE279      0.0534
    161  CG        94.5090   19.4550   10.4130 C.ar  279  PHE279     -0.0203
    162  CD1       94.4740   20.0610   11.6650 C.ar  279  PHE279     -0.0042
    163  CD2       94.1910   20.2220    9.3000 C.ar  279  PHE279     -0.0042
    164  CE1       94.1130   21.4040   11.8020 C.ar  279  PHE279     -0.0003
    165  CE2       93.8340   21.5690    9.4360 C.ar  279  PHE279     -0.0003
    166  CZ        93.8020   22.1500   10.6870 C.ar  279  PHE279     -0.0000
    167  N         89.3000   19.2220    9.1920 N.3   284  LEU284     -0.1245
    168  CA        88.9540   19.7520    7.8750 C.3   284  LEU284      0.1561
    169  C         87.6790   19.2000    7.2470 C.2   284  LEU284      0.2260
    170  O         86.7840   19.9860    6.9260 O.2   284  LEU284     -0.2867
    171  CB        90.1330   19.6510    6.8980 C.3   284  LEU284      0.0270
    172  CG        91.1430   20.7920    6.9290 C.3   284  LEU284      0.0019
    173  CD1       92.3920   20.4130    6.1700 C.3   284  LEU284      0.0001
    174  CD2       90.5610   22.0700    6.3220 C.3   284  LEU284      0.0001
@<TRIPOS>BOND
     1    74    73    2
     2    66    65    2
     3    73    72    1
     4    79    77   ar
     5    72    71    1
     6    72    75    1
     7    65    71   am
     8    65    64    1
     9    64    67    1
    10    64    63    1
    11    77    78   ar
    12    77    76    1
    13    75    76    1
    14   141   140    1
    15    69    68    2
    16    67    68    1
    17   140   139    1
    18    68    70   am
    19    22    23    1
    20    86    84    1
    21    25    24    2
    22    80    81    1
    23    23    24    1
    24    23    26    1
    25   139   138    1
    26    84    81    1
    27    84    85    1
    28    81    82    1
    29   155   153   am
    30   138   137    1
    31    58    57    2
    32    82    83    2
    33   173   172    1
    34    26    27    1
    35    57    56    1
    36   174   172    1
    37   152   151    1
    38   152   153    1
    39   151   148    1
    40   137   134    1
    41    28    27   ar
    42    28    30   ar
    43   153   154    2
    44   171   172    1
    45   171   168    1
    46   170   169    2
    47    27    29   ar
    48    47    48    1
    49   169   168    1
    50     9     7   ar
    51     9    11   ar
    52   135   136    2
    53   135   134    1
    54    56    55    1
    55    56    59    1
    56     4     3    2
    57    55    49   am
    58    30    31   ar
    59     7     6   ar
    60   150   149    2
    61   134   133    1
    62    49    50    2
    63    49    48    1
    64   168   167    1
    65   149   148    1
    66   148   147    1
    67    11    10   ar
    68    48    51    1
    69    29    31   ar
    70    87    88    1
    71     2     3    1
    72     2     1    1
    73     2     5    1
    74     3    12   am
    75     6     5    1
    76     6     8   ar
    77    59    60    1
    78    59    61    1
    79    60    62    1
    80   101   100    1
    81   147   144   am
    82    10     8   ar
    83   163   165   ar
    84   163   161   ar
    85   165   166   ar
    86    51    52    1
    87   158   159    2
    88   158   157    1
    89    91    88    1
    90    91    92    1
    91    14    13    1
    92    14    15    2
    93    88    89    1
    94    12    13    1
    95    53    52   ar
    96    99   100    1
    97    99    96    1
    98    95    89   am
    99    95    96    1
   100   100   102    1
   101    13    16    1
   102   144   145    2
   103   144   143    1
   104   160   161    1
   105   160   157    1
   106    52    54   ar
   107   161   162   ar
   108    89    90    2
   109   157   156    1
   110   166   164   ar
   111    94    92    1
   112    96    97    1
   113   142   143    1
   114    92    93    1
   115    97    98    2
   116   146   143    1
   117    16    17    1
   118    19    17   ar
   119    19    21   ar
   120   162   164   ar
   121    17    18   ar
   122    21    20   ar
   123    18    20   ar
   124    38    36    1
   125   129   128    2
   126   128   127    1
   127    36    37    1
   128    36    33    1
   129   103   104    1
   130   130   131    1
   131   130   127    1
   132   130   132    1
   133   127   126    1
   134   110   112   ar
   135   110   108   ar
   136   112   113   ar
   137    45    46    1
   138    45    44    1
   139    33    32    1
   140    33    34    1
   141   107   108    1
   142   107   104    1
   143   108   109   ar
   144   113   114    1
   145   113   111   ar
   146   109   111   ar
   147   104   105    1
   148    35    34    2
   149    44    43    1
   150   118   117    2
   151   105   106    2
   152    43    40    1
   153   117   116    1
   154   121   123   ar
   155   121   120   ar
   156   119   116    1
   157   119   120    1
   158   116   115    1
   159   123   125   ar
   160    40    39    1
   161    40    41    1
   162   120   122   ar
   163   125   124   ar
   164    42    41    2
   165   122   124   ar
