@<TRIPOS>MOLECULE
tmp/3jsqA00.pdb
 171 158 0 0 0
SMALL
GASTEIGER

@<TRIPOS>ATOM
      1  N         18.8810   22.2100    1.4770 N.3    16  PHE16      -0.1241
      2  CA        19.6860   21.7100    2.6120 C.3    16  PHE16       0.1605
      3  C         18.8740   21.6550    3.9160 C.2    16  PHE16       0.2264
      4  O         19.0200   20.7300    4.7190 O.2    16  PHE16      -0.2867
      5  CB        20.9400   22.5620    2.7880 C.3    16  PHE16       0.0534
      6  CG        21.9780   21.9290    3.6550 C.ar   16  PHE16      -0.0203
      7  CD1       22.2360   20.5560    3.5690 C.ar   16  PHE16      -0.0042
      8  CD2       22.7220   22.6970    4.5500 C.ar   16  PHE16      -0.0042
      9  CE1       23.1920   19.9760    4.3570 C.ar   16  PHE16      -0.0003
     10  CE2       23.6790   22.1160    5.3460 C.ar   16  PHE16      -0.0003
     11  CZ        23.9280   20.7590    5.2500 C.ar   16  PHE16      -0.0000
     12  N         16.5860   18.5400    3.9130 N.3    19  TYR19      -0.1227
     13  CA        17.4550   17.3900    4.0990 C.3    19  TYR19       0.1736
     14  C         17.8110   17.2930    5.5750 C.2    19  TYR19       0.2595
     15  O         17.6910   16.2460    6.1630 O.2    19  TYR19      -0.2718
     16  CB        18.7290   17.4810    3.2730 C.3    19  TYR19       0.0548
     17  CG        19.7200   16.3900    3.6400 C.ar   19  TYR19      -0.0200
     18  CD1       19.4820   15.0770    3.2800 C.ar   19  TYR19      -0.0009
     19  CD2       20.8880   16.6790    4.3520 C.ar   19  TYR19      -0.0009
     20  CE1       20.3450   14.0880    3.6120 C.ar   19  TYR19       0.0417
     21  CE2       21.7630   15.6920    4.7000 C.ar   19  TYR19       0.0417
     22  CZ        21.4900   14.3890    4.3320 C.ar   19  TYR19       0.1957
     23  OH        22.3610   13.3650    4.6630 O.3    19  TYR19      -0.2866
     24  N         18.2750   18.3930    6.1520 N.am   20  MET20      -0.1979
     25  CA        18.5620   18.4200    7.5920 C.3    20  MET20       0.1605
     26  C         17.3090   18.0670    8.4340 C.2    20  MET20       0.2287
     27  O         17.3620   17.1720    9.2920 O.2    20  MET20      -0.2864
     28  CB        19.1600   19.7450    7.9950 C.3    20  MET20       0.0413
     29  CG        20.5980   19.9050    7.5500 C.3    20  MET20       0.0598
     30  SD        21.4240   21.3080    8.2760 S.3    20  MET20      -0.1393
     31  CE        20.6120   22.6870    7.4610 C.3    20  MET20       0.0692
     32  N         16.9110   14.4100    8.3990 N.3    23  VAL23      -0.1245
     33  CA        17.9480   13.7160    9.1600 C.3    23  VAL23       0.1561
     34  C         17.6610   13.7860   10.6580 C.2    23  VAL23       0.2260
     35  O         18.0460   12.9050   11.4100 O.2    23  VAL23      -0.2867
     36  CB        19.3710   14.2960    8.8380 C.3    23  VAL23       0.0252
     37  CG1       20.3730   13.8650    9.8670 C.3    23  VAL23       0.0019
     38  CG2       19.8060   13.8600    7.4630 C.3    23  VAL23       0.0019
     39  N         18.0960   16.9010   12.3320 N.3    25  VAL25      -0.1245
     40  CA        18.8660   18.0340   12.8660 C.3    25  VAL25       0.1561
     41  C         17.8990   19.1130   13.3860 C.2    25  VAL25       0.2260
     42  O         16.9340   19.4850   12.6880 O.2    25  VAL25      -0.2867
     43  CB        19.7960   18.6630   11.7820 C.3    25  VAL25       0.0252
     44  CG1       20.6290   19.7690   12.3720 C.3    25  VAL25       0.0019
     45  CG2       20.6850   17.5930   11.1200 C.3    25  VAL25       0.0019
     46  N         20.7170   24.3370   15.0850 N.3    29  THR29      -0.1218
     47  CA        21.8090   23.8650   14.2840 C.3    29  THR29       0.1862
     48  C         21.5200   24.0940   12.7830 C.2    29  THR29       0.2287
     49  O         22.3910   24.5350   12.0600 O.2    29  THR29      -0.2866
     50  CB        22.1400   22.3770   14.5910 C.3    29  THR29       0.1770
     51  OG1       22.3840   22.2370   15.9870 O.3    29  THR29      -0.2211
     52  CG2       23.4030   21.9460   13.8580 C.3    29  THR29       0.0375
     53  N         24.1380   25.8060   10.5210 N.3    33  ALA33      -0.1245
     54  CA        24.6610   24.9600    9.4250 C.3    33  ALA33       0.1562
     55  C         24.3260   25.5290    8.0320 C.2    33  ALA33       0.2260
     56  O         25.1550   25.4870    7.1230 O.2    33  ALA33      -0.2867
     57  CB        24.1520   23.5110    9.5570 C.3    33  ALA33       0.0290
     58  N         35.9460   22.4420    2.1280 N.3    40  MET40      -0.1245
     59  CA        36.0440   21.0230    2.2660 C.3    40  MET40       0.1570
     60  C         37.4100   20.6300    1.7360 C.2    40  MET40       0.2261
     61  O         37.7360   20.9090    0.5750 O.2    40  MET40      -0.2867
     62  CB        34.9500   20.3680    1.4590 C.3    40  MET40       0.0387
     63  CG        34.8880   18.9080    1.5700 C.3    40  MET40       0.0595
     64  SD        33.6560   18.3060    0.4470 S.3    40  MET40      -0.1393
     65  CE        33.7830   16.5720    0.6550 C.3    40  MET40       0.0692
     66  N         30.5780   27.1350   11.5210 N.3    57  PHE57      -0.1241
     67  CA        29.7580   26.2300   12.2710 C.3    57  PHE57       0.1605
     68  C         30.6010   25.2500   13.0980 C.2    57  PHE57       0.2264
     69  O         30.6410   25.3820   14.3020 O.2    57  PHE57      -0.2867
     70  CB        28.7710   25.5620   11.3200 C.3    57  PHE57       0.0534
     71  CG        28.0030   24.4570   11.9080 C.ar   57  PHE57      -0.0203
     72  CD1       28.0050   23.2390   11.3230 C.ar   57  PHE57      -0.0042
     73  CD2       27.2670   24.6360   13.0280 C.ar   57  PHE57      -0.0042
     74  CE1       27.3060   22.2170   11.8570 C.ar   57  PHE57      -0.0003
     75  CE2       26.5830   23.6060   13.5670 C.ar   57  PHE57      -0.0003
     76  CZ        26.6020   22.4000   12.9750 C.ar   57  PHE57      -0.0000
     77  N         29.0280   12.8700   13.5100 N.3    74  THR74      -0.1203
     78  CA        28.7760   13.8820   12.4820 C.3    74  THR74       0.1994
     79  C         28.8220   15.2790   13.0740 C.2    74  THR74       0.2618
     80  O         28.8500   15.4400   14.2910 O.2    74  THR74      -0.2717
     81  CB        27.4300   13.6530   11.7620 C.3    74  THR74       0.1784
     82  OG1       26.3660   13.6710   12.7250 O.3    74  THR74      -0.2211
     83  CG2       27.4390   12.3180   11.0360 C.3    74  THR74       0.0376
     84  N         28.8420   16.2890   12.2120 N.am   75  ALA75      -0.1965
     85  CA        28.8710   17.6860   12.6680 C.3    75  ALA75       0.1728
     86  C         27.6580   18.0750   13.5320 C.2    75  ALA75       0.2616
     87  O         27.7690   18.9050   14.4280 O.2    75  ALA75      -0.2715
     88  CB        29.0380   18.6550   11.4580 C.3    75  ALA75       0.0334
     89  N         26.5110   17.4690   13.2640 N.am   76  ASP76      -0.1971
     90  CA        25.3100   17.7060   14.0800 C.3    76  ASP76       0.1709
     91  C         25.2430   16.7400   15.2870 C.2    76  ASP76       0.2293
     92  O         24.2240   16.6600   15.9720 O.2    76  ASP76      -0.2864
     93  CB        24.0360   17.6100   13.2300 C.3    76  ASP76       0.1436
     94  CG        23.8900   16.2760   12.5600 C.2    76  ASP76       0.3671
     95  OD1       24.7160   15.9620   11.6590 O.co2  76  ASP76      -0.2456
     96  OD2       22.9470   15.5300   12.9260 O.co2  76  ASP76      -0.2456
     97  N         25.4530   13.2610   15.5970 N.3    78  ARG78      -0.1245
     98  CA        25.0240   11.8760   15.5460 C.3    78  ARG78       0.1563
     99  C         26.2710   10.9490   15.5450 C.2    78  ARG78       0.2260
    100  O         27.2920   11.2430   14.9190 O.2    78  ARG78      -0.2867
    101  CB        24.2230   11.5900   14.2780 C.3    78  ARG78       0.0307
    102  CG        22.7920   12.0800   14.2340 C.3    78  ARG78       0.0489
    103  CD        22.2680   11.9700   12.7670 C.3    78  ARG78       0.2205
    104  NE        23.0060   12.8850   11.9150 N.pl3  78  ARG78      -0.0865
    105  CZ        23.5880   12.5770   10.7540 C.cat  78  ARG78       0.5346
    106  NH1       23.4740   11.3660   10.2240 N.pl3  78  ARG78       0.1354
    107  NH2       24.2610   13.5130   10.1080 N.pl3  78  ARG78       0.1354
    108  N         25.8010    6.5560    5.7180 N.3    95  GLN95      -0.1245
    109  CA        25.7870    6.6580    7.1730 C.3    95  GLN95       0.1566
    110  C         24.5430    5.9820    7.7210 C.2    95  GLN95       0.2260
    111  O         23.4470    6.2170    7.2500 O.2    95  GLN95      -0.2867
    112  CB        25.7830    8.1050    7.6310 C.3    95  GLN95       0.0367
    113  CG        26.8860    8.9430    7.1270 C.3    95  GLN95       0.0905
    114  CD        26.7490   10.3530    7.6010 C.2    95  GLN95       0.2608
    115  OE1       25.6470   10.8240    7.8450 O.2    95  GLN95      -0.2717
    116  NE2       27.8690   11.0510    7.7350 N.am   95  GLN95      -0.0878
    117  N         25.4380   10.0500    0.9190 N.3   104  ILE104     -0.1245
    118  CA        26.1050   11.2850    0.5450 C.3   104  ILE104      0.1561
    119  C         27.0350   10.9740   -0.6560 C.2   104  ILE104      0.2260
    120  O         28.0430   10.2820   -0.5200 O.2   104  ILE104     -0.2867
    121  CB        26.8900   11.8680    1.7440 C.3   104  ILE104      0.0252
    122  CG1       25.9640   11.9980    2.9820 C.3   104  ILE104      0.0019
    123  CG2       27.5480   13.2140    1.3930 C.3   104  ILE104      0.0019
    124  CD1       26.6450   12.4190    4.2040 C.3   104  ILE104      0.0001
    125  N         29.5200   12.2190   -3.5030 N.3   106  ARG106     -0.1245
    126  CA        30.3760   13.3040   -3.9630 C.3   106  ARG106      0.1563
    127  C         30.8700   12.9740   -5.3510 C.2   106  ARG106      0.2260
    128  O         31.4680   11.9490   -5.5620 O.2   106  ARG106     -0.2867
    129  CB        31.5680   13.5290   -3.0240 C.3   106  ARG106      0.0307
    130  CG        31.2040   14.0780   -1.6220 C.3   106  ARG106      0.0489
    131  CD        32.3900   13.8920   -0.6630 C.3   106  ARG106      0.2205
    132  NE        32.1970   14.5560    0.6260 N.pl3 106  ARG106     -0.0865
    133  CZ        31.7400   13.9520    1.7270 C.cat 106  ARG106      0.5346
    134  NH1       31.4390   12.6420    1.7090 N.pl3 106  ARG106      0.1354
    135  NH2       31.6080   14.6460    2.8540 N.pl3 106  ARG106      0.1354
    136  N         28.0040   17.6050   -4.2330 N.3   115  VAL115     -0.1245
    137  CA        27.5990   16.7160   -3.1500 C.3   115  VAL115      0.1561
    138  C         26.0720   16.5510   -3.0940 C.2   115  VAL115      0.2260
    139  O         25.3500   17.5070   -2.8680 O.2   115  VAL115     -0.2867
    140  CB        28.1360   17.2000   -1.7910 C.3   115  VAL115      0.0252
    141  CG1       27.8920   16.1660   -0.7350 C.3   115  VAL115      0.0019
    142  CG2       29.6190   17.5160   -1.8960 C.3   115  VAL115      0.0019
    143  N         23.0190   14.6870   -1.1660 N.3   117  CYS117     -0.1235
    144  CA        22.6840   13.9980    0.0710 C.3   117  CYS117      0.1677
    145  C         21.2370   13.5320    0.0190 C.2   117  CYS117      0.2270
    146  O         20.3500   14.3410   -0.1180 O.2   117  CYS117     -0.2867
    147  CB        22.8650   14.9280    1.2680 C.3   117  CYS117      0.0956
    148  SG        24.4340   15.7690    1.3970 S.3   117  CYS117     -0.0801
    149  N         24.7720   20.2330   -2.7450 N.3   126  ARG126     -0.1245
    150  CA        25.7100   21.2920   -2.5430 C.3   126  ARG126      0.1563
    151  C         26.8150   21.2270   -3.5670 C.2   126  ARG126      0.2260
    152  O         27.3490   20.1570   -3.8580 O.2   126  ARG126     -0.2867
    153  CB        26.2400   21.2570   -1.1190 C.3   126  ARG126      0.0307
    154  CG        25.1560   21.6850   -0.1260 C.3   126  ARG126      0.0489
    155  CD        25.2640   20.9850    1.1700 C.3   126  ARG126      0.2205
    156  NE        26.2090   21.6190    2.0700 N.pl3 126  ARG126     -0.0865
    157  CZ        26.0180   22.7920    2.6550 C.cat 126  ARG126      0.5346
    158  NH1       24.9360   23.5190    2.3760 N.pl3 126  ARG126      0.1354
    159  NH2       26.9310   23.2590    3.4950 N.pl3 126  ARG126      0.1354
    160  N         30.5340   22.6250   -4.8650 N.3   128  TYR128     -0.1241
    161  CA        31.7990   23.2290   -4.4690 C.3   128  TYR128      0.1605
    162  C         32.6640   23.4790   -5.6980 C.2   128  TYR128      0.2264
    163  O         32.5450   22.7720   -6.6980 O.2   128  TYR128     -0.2867
    164  CB        32.5800   22.2840   -3.5130 C.3   128  TYR128      0.0534
    165  CG        31.9310   22.0560   -2.1830 C.ar  128  TYR128     -0.0201
    166  CD1       30.8070   21.2380   -2.0640 C.ar  128  TYR128     -0.0009
    167  CD2       32.4750   22.6060   -1.0240 C.ar  128  TYR128     -0.0009
    168  CE1       30.1910   21.0330   -0.8150 C.ar  128  TYR128      0.0417
    169  CE2       31.8880   22.3920    0.2300 C.ar  128  TYR128      0.0417
    170  CZ        30.7480   21.6090    0.3220 C.ar  128  TYR128      0.1957
    171  OH        30.1700   21.4000    1.5400 O.3   128  TYR128     -0.2866
@<TRIPOS>BOND
     1   163   162    2
     2   162   161    1
     3   128   127    2
     4   127   126    1
     5   160   161    1
     6   161   164    1
     7   136   137    1
     8   126   125    1
     9   126   129    1
    10   152   151    2
    11   151   150    1
    12   164   165    1
    13   137   138    1
    14   137   140    1
    15   138   139    2
    16   129   130    1
    17   149   150    1
    18   150   153    1
    19   165   166   ar
    20   165   167   ar
    21   166   168   ar
    22   142   140    1
    23   140   141    1
    24   130   131    1
    25   143   144    1
    26   153   154    1
    27   167   169   ar
    28   168   170   ar
    29   131   132    1
    30   119   120    2
    31   119   118    1
    32   154   155    1
    33   146   145    2
    34   145   144    1
    35   144   147    1
    36   169   170   ar
    37   170   171    1
    38    64    65    1
    39    64    63    1
    40   118   117    1
    41   118   121    1
    42    61    60    2
    43   132   133    2
    44   155   156    1
    45   147   148    1
    46   123   121    1
    47    62    63    1
    48    62    59    1
    49     1     2    1
    50   134   133    1
    51   133   135    1
    52    60    59    1
    53   121   122    1
    54   156   157    2
    55    58    59    1
    56   158   157    1
    57     2     5    1
    58     2     3    1
    59   157   159    1
    60     5     6    1
    61   122   124    1
    62    16    17    1
    63    16    13    1
    64    18    20   ar
    65    18    17   ar
    66     7     6   ar
    67     7     9   ar
    68    20    22   ar
    69    17    19   ar
    70     6     8   ar
    71    12    13    1
    72     3     4    2
    73    13    14    1
    74    22    23    1
    75    22    21   ar
    76    19    21   ar
    77     9    11   ar
    78     8    10   ar
    79    11    10   ar
    80    14    24   am
    81    14    15    2
    82   108   109    1
    83    24    25    1
    84    56    55    2
    85   113   114    1
    86   113   112    1
    87   109   112    1
    88   109   110    1
    89   111   110    2
    90    31    30    1
    91    38    36    1
    92    29    28    1
    93    29    30    1
    94    25    28    1
    95    25    26    1
    96   114   116   am
    97   114   115    2
    98    55    54    1
    99    32    33    1
   100    26    27    2
   101    36    33    1
   102    36    37    1
   103    33    34    1
   104    54    57    1
   105    54    53    1
   106   107   105    1
   107   106   105    1
   108    34    35    2
   109   105   104    2
   110    83    81    1
   111    45    43    1
   112    70    71    1
   113    70    67    1
   114    72    74   ar
   115    72    71   ar
   116    88    85    1
   117    66    67    1
   118    95    94   ar
   119    81    78    1
   120    81    82    1
   121    43    44    1
   122    43    40    1
   123    74    76   ar
   124    71    73   ar
   125   104   103    1
   126    49    48    2
   127    84    85    1
   128    84    79   am
   129    67    68    1
   130    39    40    1
   131    78    79    1
   132    78    77    1
   133    94    96   ar
   134    94    93    1
   135    85    86    1
   136    42    41    2
   137   103   102    1
   138    48    47    1
   139    40    41    1
   140    76    75   ar
   141    73    75   ar
   142    79    80    2
   143    68    69    2
   144    93    90    1
   145    89    86   am
   146    89    90    1
   147    86    87    2
   148    52    50    1
   149    90    91    1
   150   102   101    1
   151   101    98    1
   152    47    50    1
   153    47    46    1
   154    50    51    1
   155   100    99    2
   156    91    92    2
   157    99    98    1
   158    98    97    1
