@<TRIPOS>MOLECULE
tmp/3jsuB00.pdb
 184 178 0 0 0
SMALL
GASTEIGER

@<TRIPOS>ATOM
      1  N         24.1970  -28.4540   14.1790 N.3    13  ILE13      -0.1231
      2  CA        24.9380  -27.3490   13.5870 C.3    13  ILE13       0.1692
      3  C         24.8730  -27.4640   12.0650 C.2    13  ILE13       0.2592
      4  O         25.1050  -28.5360   11.5060 O.2    13  ILE13      -0.2718
      5  CB        26.4100  -27.3520   14.0590 C.3    13  ILE13       0.0266
      6  CG1       27.0890  -26.0510   13.6420 C.3    13  ILE13       0.0019
      7  CG2       27.1560  -28.5360   13.4680 C.3    13  ILE13       0.0020
      8  CD1       28.5150  -25.9370   14.1150 C.3    13  ILE13       0.0001
      9  N         24.5450  -26.3620   11.3930 N.am   14  CYS14      -0.1956
     10  CA        24.4340  -26.3710    9.9380 C.3    14  CYS14       0.1843
     11  C         24.6650  -25.0110    9.3010 C.2    14  CYS14       0.2625
     12  O         24.8740  -24.0110    9.9860 O.2    14  CYS14      -0.2714
     13  CB        23.0490  -26.8670    9.5200 C.3    14  CYS14       0.0997
     14  SG        21.7070  -25.7110    9.8890 S.3    14  CYS14      -0.0797
     15  N         24.6070  -24.9990    7.9720 N.am   15  ALA15      -0.1977
     16  CA        24.7940  -23.7990    7.1670 C.3    15  ALA15       0.1597
     17  C         23.8920  -23.9170    5.9450 C.2    15  ALA15       0.2287
     18  O         24.0420  -24.8400    5.1530 O.2    15  ALA15      -0.2864
     19  CB        26.2540  -23.6780    6.7300 C.3    15  ALA15       0.0319
     20  N         27.6940  -32.6210   -2.8300 N.3    44  VAL44      -0.1231
     21  CA        28.6120  -31.6160   -2.3130 C.3    44  VAL44       0.1692
     22  C         27.8570  -30.4120   -1.7640 C.2    44  VAL44       0.2591
     23  O         26.6190  -30.3820   -1.7580 O.2    44  VAL44      -0.2718
     24  CB        29.5940  -31.1310   -3.4050 C.3    44  VAL44       0.0266
     25  CG1       30.7920  -32.0600   -3.4790 C.3    44  VAL44       0.0020
     26  CG2       28.8860  -31.0730   -4.7530 C.3    44  VAL44       0.0020
     27  N         28.6150  -29.4240   -1.2950 N.am   45  LEU45      -0.1980
     28  CA        28.0440  -28.1990   -0.7500 C.3    45  LEU45       0.1596
     29  C         27.5620  -27.3140   -1.8990 C.2    45  LEU45       0.2287
     30  O         28.1660  -27.2950   -2.9710 O.2    45  LEU45      -0.2864
     31  CB        29.0970  -27.4630    0.0880 C.3    45  LEU45       0.0297
     32  CG        29.5260  -28.1830    1.3720 C.3    45  LEU45       0.0022
     33  CD1       30.7250  -27.4920    1.9930 C.3    45  LEU45       0.0001
     34  CD2       28.3530  -28.2140    2.3420 C.3    45  LEU45       0.0001
     35  N         27.9070  -24.3620   -2.3470 N.3    47  TRP47      -0.1241
     36  CA        28.8810  -23.3160   -2.6380 C.3    47  TRP47       0.1605
     37  C         30.3120  -23.8080   -2.7520 C.2    47  TRP47       0.2264
     38  O         30.6580  -24.8760   -2.2510 O.2    47  TRP47      -0.2867
     39  CB        28.7990  -22.2310   -1.5640 C.3    47  TRP47       0.0550
     40  CG        28.8240  -22.7780   -0.1770 C.ar   47  TRP47       0.0003
     41  CD1       29.9260  -23.0510    0.5820 C.ar   47  TRP47       0.0946
     42  CD2       27.6870  -23.1480    0.6130 C.ar   47  TRP47       0.0152
     43  NE1       29.5430  -23.5650    1.7980 N.ar   47  TRP47      -0.2442
     44  CE2       28.1750  -23.6350    1.8430 C.ar   47  TRP47       0.0810
     45  CE3       26.3030  -23.1140    0.4000 C.ar   47  TRP47       0.0012
     46  CZ2       27.3260  -24.0860    2.8600 C.ar   47  TRP47       0.0191
     47  CZ3       25.4580  -23.5620    1.4110 C.ar   47  TRP47       0.0001
     48  CH2       25.9740  -24.0410    2.6240 C.ar   47  TRP47       0.0015
     49  N         32.5700  -19.9190    7.7070 N.3    53  ASP53      -0.1225
     50  CA        31.6310  -20.8880    8.2650 C.3    53  ASP53       0.1805
     51  C         32.4010  -22.1290    8.6780 C.2    53  ASP53       0.2597
     52  O         32.0840  -22.7550    9.6870 O.2    53  ASP53      -0.2718
     53  CB        30.5780  -21.2800    7.2440 C.3    53  ASP53       0.1424
     54  CG        29.7580  -22.4560    7.6960 C.2    53  ASP53       0.3668
     55  OD1       28.9650  -22.3090    8.6510 O.co2  53  ASP53      -0.2456
     56  OD2       29.9190  -23.5340    7.0980 O.co2  53  ASP53      -0.2456
     57  N         33.4070  -22.4770    7.8750 N.am   54  MET54      -0.1979
     58  CA        34.2670  -23.6280    8.1460 C.3    54  MET54       0.1605
     59  C         34.9390  -23.4190    9.4940 C.2    54  MET54       0.2287
     60  O         34.9870  -24.3280   10.3180 O.2    54  MET54      -0.2864
     61  CB        35.3570  -23.7670    7.0760 C.3    54  MET54       0.0413
     62  CG        34.8970  -24.3150    5.7310 C.3    54  MET54       0.0598
     63  SD        34.2200  -25.9900    5.8170 S.3    54  MET54      -0.1393
     64  CE        32.7020  -25.7390    4.8880 C.3    54  MET54       0.0692
     65  N         33.9170  -21.5090   11.8750 N.3    56  TYR56      -0.1227
     66  CA        32.8840  -21.5020   12.9080 C.3    56  TYR56       0.1736
     67  C         32.5200  -22.9410   13.2230 C.2    56  TYR56       0.2595
     68  O         32.4400  -23.3350   14.3830 O.2    56  TYR56      -0.2718
     69  CB        31.6390  -20.7570   12.4150 C.3    56  TYR56       0.0548
     70  CG        30.5670  -20.5630   13.4700 C.ar   56  TYR56      -0.0200
     71  CD1       30.7760  -19.7110   14.5550 C.ar   56  TYR56      -0.0009
     72  CD2       29.3380  -21.2160   13.3750 C.ar   56  TYR56      -0.0009
     73  CE1       29.7890  -19.5130   15.5170 C.ar   56  TYR56       0.0417
     74  CE2       28.3400  -21.0240   14.3330 C.ar   56  TYR56       0.0417
     75  CZ        28.5750  -20.1720   15.3990 C.ar   56  TYR56       0.1957
     76  OH        27.6060  -19.9780   16.3530 O.3    56  TYR56      -0.2866
     77  N         32.2960  -23.7150   12.1690 N.am   57  PHE57      -0.1962
     78  CA        31.9470  -25.1250   12.2870 C.3    57  PHE57       0.1771
     79  C         32.9220  -25.8470   13.2180 C.2    57  PHE57       0.2619
     80  O         32.5220  -26.3810   14.2540 O.2    57  PHE57      -0.2715
     81  CB        31.9680  -25.7620   10.8940 C.3    57  PHE57       0.0574
     82  CG        31.7910  -27.2540   10.8930 C.ar   57  PHE57      -0.0200
     83  CD1       30.6280  -27.8340   11.3820 C.ar   57  PHE57      -0.0042
     84  CD2       32.7830  -28.0790   10.3660 C.ar   57  PHE57      -0.0042
     85  CE1       30.4510  -29.2160   11.3450 C.ar   57  PHE57      -0.0003
     86  CE2       32.6180  -29.4570   10.3230 C.ar   57  PHE57      -0.0003
     87  CZ        31.4490  -30.0280   10.8130 C.ar   57  PHE57      -0.0000
     88  N         34.1990  -25.8470   12.8430 N.am   58  ARG58      -0.1977
     89  CA        35.2450  -26.4930   13.6280 C.3    58  ARG58       0.1597
     90  C         35.2920  -25.9800   15.0710 C.2    58  ARG58       0.2287
     91  O         35.2080  -26.7610   16.0200 O.2    58  ARG58      -0.2864
     92  CB        36.6000  -26.2790   12.9420 C.3    58  ARG58       0.0334
     93  CG        37.8200  -26.8130   13.6880 C.3    58  ARG58       0.0492
     94  CD        39.0820  -26.4880   12.8970 C.3    58  ARG58       0.2205
     95  NE        40.3070  -26.5910   13.6890 N.pl3  58  ARG58      -0.0865
     96  CZ        41.4610  -26.0080   13.3620 C.cat  58  ARG58       0.5346
     97  NH1       41.5530  -25.2780   12.2560 N.pl3  58  ARG58       0.1354
     98  NH2       42.5280  -26.1470   14.1430 N.pl3  58  ARG58       0.1354
     99  N         26.9510  -37.6110    4.0990 N.3    96  ASN96      -0.1240
    100  CA        27.7490  -36.5220    4.6500 C.3    96  ASN96       0.1653
    101  C         29.1830  -36.9510    4.9390 C.2    96  ASN96       0.2266
    102  O         30.1260  -36.2030    4.6830 O.2    96  ASN96      -0.2867
    103  CB        27.1060  -35.9880    5.9340 C.3    96  ASN96       0.1155
    104  CG        27.8810  -34.8300    6.5340 C.2    96  ASN96       0.2627
    105  OD1       28.1200  -33.8220    5.8710 O.2    96  ASN96      -0.2716
    106  ND2       28.2770  -34.9700    7.7930 N.am   96  ASN96      -0.0877
    107  N         31.0620  -37.3640    1.6380 N.3    99  SER99      -0.1202
    108  CA        31.3210  -36.0660    1.0170 C.3    99  SER99       0.2020
    109  C         32.4840  -35.2810    1.6220 C.2    99  SER99       0.2619
    110  O         32.9090  -34.2720    1.0650 O.2    99  SER99      -0.2717
    111  CB        30.0590  -35.2060    1.0700 C.3    99  SER99       0.2103
    112  OG        29.6670  -34.9680    2.4090 O.3    99  SER99      -0.2182
    113  N         33.0010  -35.7380    2.7550 N.am  100  ILE100     -0.1966
    114  CA        34.1110  -35.0470    3.4010 C.3   100  ILE100      0.1712
    115  C         35.4620  -35.5140    2.8610 C.2   100  ILE100      0.2458
    116  O         35.6970  -36.7130    2.7050 O.2   100  ILE100     -0.2730
    117  CB        34.0980  -35.2750    4.9290 C.3   100  ILE100      0.0289
    118  CG1       32.7260  -34.9070    5.4960 C.3   100  ILE100      0.0022
    119  CG2       35.1930  -34.4410    5.5930 C.3   100  ILE100      0.0023
    120  CD1       32.5920  -35.1360    6.9860 C.3   100  ILE100      0.0001
    121  N         36.3670  -34.5680    2.5600 N.am  101  PRO101     -0.2727
    122  CA        37.6880  -34.9340    2.0440 C.3   101  PRO101      0.1402
    123  C         38.3830  -35.9450    2.9630 C.2   101  PRO101      0.2269
    124  O         38.1940  -35.9300    4.1820 O.2   101  PRO101     -0.2865
    125  CB        38.4160  -33.5940    1.9920 C.3   101  PRO101      0.0296
    126  CG        37.3220  -32.6480    1.6420 C.3   101  PRO101      0.0237
    127  CD        36.1910  -33.1040    2.5490 C.3   101  PRO101      0.0939
    128  N         40.9710  -34.7600    5.8110 N.3   104  PHE104     -0.1241
    129  CA        40.4340  -34.2680    7.0550 C.3   104  PHE104      0.1605
    130  C         39.7390  -35.3860    7.7780 C.2   104  PHE104      0.2264
    131  O         39.2980  -35.1810    8.9340 O.2   104  PHE104     -0.2867
    132  CB        39.3360  -33.2070    6.7980 C.3   104  PHE104      0.0534
    133  CG        39.8220  -32.0310    6.0260 C.ar  104  PHE104     -0.0203
    134  CD1       40.8020  -31.1940    6.5590 C.ar  104  PHE104     -0.0042
    135  CD2       39.3270  -31.7670    4.7600 C.ar  104  PHE104     -0.0042
    136  CE1       41.2700  -30.1120    5.8360 C.ar  104  PHE104     -0.0003
    137  CE2       39.7860  -30.6890    4.0260 C.ar  104  PHE104     -0.0003
    138  CZ        40.7610  -29.8560    4.5660 C.ar  104  PHE104     -0.0000
    139  N         37.3230  -36.5810   11.8610 N.3   107  LEU107     -0.1245
    140  CA        37.3140  -35.1850   12.2990 C.3   107  LEU107      0.1561
    141  C         38.0960  -34.9650   13.5790 C.2   107  LEU107      0.2260
    142  O         37.5930  -35.2280   14.6700 O.2   107  LEU107     -0.2867
    143  CB        35.8710  -34.7320   12.5280 C.3   107  LEU107      0.0270
    144  CG        34.9440  -34.4870   11.3370 C.3   107  LEU107      0.0019
    145  CD1       33.5450  -34.1580   11.8390 C.3   107  LEU107      0.0001
    146  CD2       35.4860  -33.3430   10.4930 C.3   107  LEU107      0.0001
    147  N         37.2910  -34.8070   17.6490 N.3   110  ARG110     -0.1245
    148  CA        35.8550  -35.0530   17.7180 C.3   110  ARG110      0.1563
    149  C         35.5250  -36.5370   17.6170 C.2   110  ARG110      0.2260
    150  O         35.8640  -37.2000   16.6320 O.2   110  ARG110     -0.2867
    151  CB        35.1390  -34.2900   16.5990 C.3   110  ARG110      0.0307
    152  CG        34.9460  -32.8080   16.8820 C.3   110  ARG110      0.0489
    153  CD        34.7560  -32.0070   15.6040 C.3   110  ARG110      0.2205
    154  NE        36.0220  -31.8160   14.9020 N.pl3 110  ARG110     -0.0865
    155  CZ        36.1600  -31.1180   13.7800 C.cat 110  ARG110      0.5346
    156  NH1       35.1060  -30.5400   13.2220 N.pl3 110  ARG110      0.1354
    157  NH2       37.3520  -30.9940   13.2150 N.pl3 110  ARG110      0.1354
    158  N         26.1470  -33.0740   12.7950 N.3   152  LEU152     -0.1245
    159  CA        26.6120  -32.4380   11.5580 C.3   152  LEU152      0.1561
    160  C         25.6410  -32.8880   10.4770 C.2   152  LEU152      0.2260
    161  O         25.5540  -32.3160    9.3910 O.2   152  LEU152     -0.2867
    162  CB        28.0210  -32.9130   11.2120 C.3   152  LEU152      0.0270
    163  CG        28.9930  -33.0000   12.3900 C.3   152  LEU152      0.0019
    164  CD1       30.3700  -33.3640   11.8700 C.3   152  LEU152      0.0001
    165  CD2       29.0280  -31.6790   13.1440 C.3   152  LEU152      0.0001
    166  N         19.0500  -34.6850    9.8230 N.3   158  TYR158     -0.1241
    167  CA        18.4030  -33.5350   10.4540 C.3   158  TYR158      0.1605
    168  C         16.9110  -33.7900   10.6170 C.2   158  TYR158      0.2264
    169  O         16.3800  -33.7380   11.7200 O.2   158  TYR158     -0.2867
    170  CB        18.5830  -32.2500    9.6260 C.3   158  TYR158      0.0534
    171  CG        19.9960  -31.7000    9.5280 C.ar  158  TYR158     -0.0201
    172  CD1       20.8020  -31.5610   10.6570 C.ar  158  TYR158     -0.0009
    173  CD2       20.5160  -31.2870    8.2980 C.ar  158  TYR158     -0.0009
    174  CE1       22.0940  -31.0230   10.5610 C.ar  158  TYR158      0.0417
    175  CE2       21.8000  -30.7500    8.1940 C.ar  158  TYR158      0.0417
    176  CZ        22.5810  -30.6220    9.3260 C.ar  158  TYR158      0.1957
    177  OH        23.8450  -30.0930    9.2200 O.3   158  TYR158     -0.2866
    178  N         23.8270  -21.3030   10.3210 N.3   173  THR173     -0.1218
    179  CA        24.6220  -20.2930    9.6270 C.3   173  THR173      0.1862
    180  C         23.7940  -19.8380    8.4270 C.2   173  THR173      0.2287
    181  O         23.3880  -20.6580    7.6100 O.2   173  THR173     -0.2866
    182  CB        25.9670  -20.8590    9.0980 C.3   173  THR173      0.1770
    183  OG1       26.7560  -21.3580   10.1850 O.3   173  THR173     -0.2211
    184  CG2       26.7480  -19.7690    8.3780 C.3   173  THR173      0.0375
@<TRIPOS>BOND
     1    26    24    1
     2    25    24    1
     3    24    21    1
     4    30    29    2
     5    20    21    1
     6    37    36    1
     7    37    38    2
     8    36    35    1
     9    36    39    1
    10    21    22    1
    11    29    28    1
    12    22    23    2
    13    22    27   am
    14    39    40    1
    15    27    28    1
    16    28    31    1
    17    40    41   ar
    18    40    42   ar
    19    31    32    1
    20    45    42   ar
    21    45    47   ar
    22    41    43   ar
    23    42    44   ar
    24   108   111    1
    25   108   109    1
    26   108   107    1
    27   110   109    2
    28   111   112    1
    29    32    33    1
    30    32    34    1
    31    47    48   ar
    32   109   113   am
    33   126   125    1
    34   126   127    1
    35    43    44   ar
    36    44    46   ar
    37   125   122    1
    38   122   121    1
    39   122   123    1
    40   127   121    1
    41   121   115   am
    42    48    46   ar
    43   116   115    2
    44   113   114    1
    45   115   114    1
    46   123   124    2
    47   114   117    1
    48   137   138   ar
    49   137   135   ar
    50    99   100    1
    51   138   136   ar
    52   100   101    1
    53   100   103    1
    54   102   101    2
    55   135   133   ar
    56    64    63    1
    57   117   118    1
    58   117   119    1
    59    18    17    2
    60   118   120    1
    61    62    63    1
    62    62    61    1
    63   128   129    1
    64   136   134   ar
    65   105   104    2
    66   103   104    1
    67    17    16    1
    68   133   134   ar
    69   133   132    1
    70   104   106   am
    71    19    16    1
    72   132   129    1
    73   129   130    1
    74    61    58    1
    75    56    54   ar
    76    16    15    1
    77    53    54    1
    78    53    50    1
    79   181   180    2
    80    54    55   ar
    81    49    50    1
    82   130   131    2
    83    57    58    1
    84    57    51   am
    85    15    11   am
    86    58    59    1
    87   175   173   ar
    88   175   176   ar
    89    50    51    1
    90   173   171   ar
    91   184   182    1
    92   180   179    1
    93    51    52    2
    94   182   179    1
    95   182   183    1
    96   177   176    1
    97    11    10    1
    98    11    12    2
    99   176   174   ar
   100   161   160    2
   101    59    60    2
   102    13    14    1
   103    13    10    1
   104   171   170    1
   105   171   172   ar
   106   170   167    1
   107   179   178    1
   108   166   167    1
   109    10     9    1
   110    86    84   ar
   111    86    87   ar
   112    84    82   ar
   113   167   168    1
   114   160   159    1
   115   146   144    1
   116   174   172   ar
   117   168   169    2
   118    87    85   ar
   119    82    81    1
   120    82    83   ar
   121    81    78    1
   122   162   159    1
   123   162   163    1
   124   144   145    1
   125   144   143    1
   126    85    83   ar
   127     9     3   am
   128     4     3    2
   129   159   158    1
   130   139   140    1
   131   164   163    1
   132    65    66    1
   133     3     2    1
   134    77    78    1
   135    77    67   am
   136    97    96    1
   137    78    79    1
   138   140   143    1
   139   140   141    1
   140   163   165    1
   141    69    66    1
   142    69    70    1
   143    88    79   am
   144    88    89    1
   145    94    93    1
   146    94    95    1
   147    66    67    1
   148    92    89    1
   149    92    93    1
   150   157   155    1
   151    79    80    2
   152   156   155    1
   153    67    68    2
   154    96    95    2
   155    96    98    1
   156    72    70   ar
   157    72    74   ar
   158     7     5    1
   159    70    71   ar
   160   141   142    2
   161     2     5    1
   162     2     1    1
   163    89    90    1
   164     6     5    1
   165     6     8    1
   166   155   154    2
   167    74    75   ar
   168    71    73   ar
   169   154   153    1
   170    90    91    2
   171    75    73   ar
   172    75    76    1
   173   153   152    1
   174   151   152    1
   175   151   148    1
   176   150   149    2
   177   149   148    1
   178   147   148    1
