@<TRIPOS>MOLECULE
tmp/3jswA00.pdb
 155 150 0 0 0
SMALL
GASTEIGER

@<TRIPOS>ATOM
      1  N         85.5550   57.4310   43.7860 N.3    74  PHE74      -0.1227
      2  CA        84.9660   56.1900   44.2310 C.3    74  PHE74       0.1736
      3  C         85.8540   54.9770   44.0330 C.2    74  PHE74       0.2595
      4  O         86.0390   54.1900   44.9770 O.2    74  PHE74      -0.2718
      5  CB        83.6830   55.9550   43.4350 C.3    74  PHE74       0.0547
      6  CG        82.8580   54.7840   43.9340 C.ar   74  PHE74      -0.0202
      7  CD1       81.8690   54.9730   44.8700 C.ar   74  PHE74      -0.0042
      8  CD2       83.0540   53.5130   43.4410 C.ar   74  PHE74      -0.0042
      9  CE1       81.0720   53.8790   45.2760 C.ar   74  PHE74      -0.0003
     10  CE2       82.2730   52.4560   43.8570 C.ar   74  PHE74      -0.0003
     11  CZ        81.3080   52.6400   44.7950 C.ar   74  PHE74      -0.0000
     12  N         86.3910   54.8140   42.8170 N.am   75  HIS75      -0.1975
     13  CA        87.1480   53.5590   42.4170 C.3    75  HIS75       0.1656
     14  C         88.5900   53.7270   42.8140 C.2    75  HIS75       0.2291
     15  O         89.5140   53.9570   41.9830 O.2    75  HIS75      -0.2864
     16  CB        86.9620   53.2100   40.9290 C.3    75  HIS75       0.0771
     17  CG        85.6290   52.6120   40.6470 C.ar   75  HIS75       0.0820
     18  ND1       84.5930   53.3290   40.1000 N.ar   75  HIS75      -0.2267
     19  CD2       85.1310   51.3720   40.9390 C.ar   75  HIS75       0.1154
     20  CE1       83.5310   52.5410   39.9900 C.ar   75  HIS75       0.1986
     21  NE2       83.8200   51.3620   40.5340 N.ar   75  HIS75      -0.2212
     22  N         79.1950   44.6720   35.6560 N.3   188  MET188     -0.1245
     23  CA        77.7410   44.7480   35.8830 C.3   188  MET188      0.1570
     24  C         76.9610   44.5540   34.6300 C.2   188  MET188      0.2261
     25  O         75.7960   44.2640   34.7170 O.2   188  MET188     -0.2867
     26  CB        77.3530   46.0650   36.5310 C.3   188  MET188      0.0387
     27  CG        77.6450   46.0630   38.0240 C.3   188  MET188      0.0595
     28  SD        76.5820   44.9240   39.0200 S.3   188  MET188     -0.1393
     29  CE        74.9310   45.5450   38.7800 C.3   188  MET188      0.0692
     30  N         81.2180   43.7780   46.2500 N.3   225  ASP225     -0.1225
     31  CA        81.5370   44.8810   45.4150 C.3   225  ASP225      0.1805
     32  C         80.4750   45.9830   45.4730 C.2   225  ASP225      0.2597
     33  O         80.8080   47.1510   45.5130 O.2   225  ASP225     -0.2718
     34  CB        81.7300   44.3590   43.9870 C.3   225  ASP225      0.1424
     35  CG        82.2580   45.4190   43.0350 C.2   225  ASP225      0.3668
     36  OD1       82.7870   46.4100   43.5290 O.co2 225  ASP225     -0.2456
     37  OD2       82.1240   45.2930   41.8130 O.co2 225  ASP225     -0.2456
     38  N         79.1990   45.6110   45.4570 N.am  226  ILE226     -0.1980
     39  CA        78.1220   46.6000   45.4100 C.3   226  ILE226      0.1595
     40  C         77.3660   46.7500   46.7280 C.2   226  ILE226      0.2287
     41  O         76.3460   47.3300   46.7690 O.2   226  ILE226     -0.2864
     42  CB        77.1870   46.3420   44.2140 C.3   226  ILE226      0.0276
     43  CG1       76.4310   45.0360   44.3730 C.3   226  ILE226      0.0022
     44  CG2       78.0350   46.4220   42.8450 C.3   226  ILE226      0.0022
     45  CD1       75.4130   44.8290   43.2860 C.3   226  ILE226      0.0001
     46  N         77.8090   48.6020   49.5170 N.3   228  ASN228     -0.1225
     47  CA        77.9690   49.7600   50.3940 C.3   228  ASN228      0.1785
     48  C         76.7340   49.9730   51.1940 C.2   228  ASN228      0.2597
     49  O         76.8270   50.3120   52.3720 O.2   228  ASN228     -0.2718
     50  CB        78.2340   51.0750   49.5950 C.3   228  ASN228      0.1169
     51  CG        79.6840   51.1930   49.0570 C.2   228  ASN228      0.2627
     52  OD1       80.6870   50.6980   49.6740 O.2   228  ASN228     -0.2716
     53  ND2       79.8120   51.8770   47.9160 N.am  228  ASN228     -0.0877
     54  N         75.5570   49.8410   50.5480 N.am  229  GLU229     -0.1979
     55  CA        74.2720   50.0960   51.2470 C.3   229  GLU229      0.1602
     56  C         73.8570   49.0960   52.3680 C.2   229  GLU229      0.2287
     57  O         72.9030   49.3370   53.1470 O.2   229  GLU229     -0.2864
     58  CB        73.1480   50.2830   50.2240 C.3   229  GLU229      0.0415
     59  CG        73.2950   51.5960   49.4100 C.3   229  GLU229      0.1163
     60  CD        72.9930   52.8830   50.1680 C.2   229  GLU229      0.3649
     61  OE1       73.3470   53.9620   49.6370 O.co2 229  GLU229     -0.2457
     62  OE2       72.4180   52.7900   51.2910 O.co2 229  GLU229     -0.2457
     63  N         77.6760   57.1060   47.8590 N.3   240  VAL240     -0.1245
     64  CA        76.8380   57.4100   46.6850 C.3   240  VAL240      0.1561
     65  C         77.2920   58.7300   46.0010 C.2   240  VAL240      0.2260
     66  O         77.3700   58.8290   44.7810 O.2   240  VAL240     -0.2867
     67  CB        75.3030   57.5140   46.9660 C.3   240  VAL240      0.0252
     68  CG1       74.5280   57.2880   45.6300 C.3   240  VAL240      0.0019
     69  CG2       74.8230   56.5200   47.9810 C.3   240  VAL240      0.0019
     70  N         80.4630   58.1870   44.0450 N.3   243  LEU243     -0.1231
     71  CA        80.0980   57.5730   42.7750 C.3   243  LEU243      0.1693
     72  C         79.4990   58.5570   41.7820 C.2   243  LEU243      0.2591
     73  O         79.9320   58.6200   40.6120 O.2   243  LEU243     -0.2718
     74  CB        79.1570   56.3540   42.9990 C.3   243  LEU243      0.0284
     75  CG        78.8520   55.5240   41.7470 C.3   243  LEU243      0.0019
     76  CD1       80.1760   55.0570   41.0600 C.3   243  LEU243      0.0001
     77  CD2       77.8490   54.3820   42.0550 C.3   243  LEU243      0.0001
     78  N         78.5300   59.3430   42.2420 N.am  244  LEU244     -0.1980
     79  CA        78.0240   60.4300   41.4190 C.3   244  LEU244      0.1596
     80  C         79.0810   61.4330   40.9770 C.2   244  LEU244      0.2287
     81  O         79.0450   61.9170   39.8270 O.2   244  LEU244     -0.2864
     82  CB        76.8030   61.0920   42.0590 C.3   244  LEU244      0.0297
     83  CG        75.5580   60.1620   42.1580 C.3   244  LEU244      0.0022
     84  CD1       74.3800   60.8270   43.0350 C.3   244  LEU244      0.0001
     85  CD2       75.0400   59.8080   40.8120 C.3   244  LEU244      0.0001
     86  N         80.7050   59.6500   38.0610 N.3   247  TYR247     -0.1241
     87  CA        79.7600   59.5880   36.9790 C.3   247  TYR247      0.1605
     88  C         79.5410   60.9430   36.3270 C.2   247  TYR247      0.2264
     89  O         79.3120   61.0080   35.1120 O.2   247  TYR247     -0.2867
     90  CB        78.4230   59.0730   37.5480 C.3   247  TYR247      0.0534
     91  CG        78.3050   57.6010   37.7660 C.ar  247  TYR247     -0.0201
     92  CD1       79.4060   56.7310   37.6340 C.ar  247  TYR247     -0.0009
     93  CD2       77.0620   57.0350   38.0400 C.ar  247  TYR247     -0.0009
     94  CE1       79.2550   55.3500   37.8100 C.ar  247  TYR247      0.0417
     95  CE2       76.9100   55.6100   38.1920 C.ar  247  TYR247      0.0417
     96  CZ        78.0100   54.7930   38.0570 C.ar  247  TYR247      0.1957
     97  OH        77.8510   53.4080   38.1760 O.3   247  TYR247     -0.2866
     98  N         71.4390   57.7830   34.2430 N.3   264  PHE264     -0.1241
     99  CA        71.9070   57.6610   35.6280 C.3   264  PHE264      0.1605
    100  C         73.2520   58.3640   35.8790 C.2   264  PHE264      0.2264
    101  O         73.7330   58.3900   37.0100 O.2   264  PHE264     -0.2867
    102  CB        71.9090   56.2130   36.1130 C.3   264  PHE264      0.0534
    103  CG        72.8950   55.3270   35.4150 C.ar  264  PHE264     -0.0203
    104  CD1       74.2400   55.3160   35.7850 C.ar  264  PHE264     -0.0042
    105  CD2       72.4950   54.4630   34.4290 C.ar  264  PHE264     -0.0042
    106  CE1       75.1600   54.4520   35.1450 C.ar  264  PHE264     -0.0003
    107  CE2       73.3860   53.6400   33.8090 C.ar  264  PHE264     -0.0003
    108  CZ        74.7310   53.6400   34.1600 C.ar  264  PHE264     -0.0000
    109  N         68.0920   57.0210   42.4600 N.3   275  ALA275     -0.1231
    110  CA        69.0640   56.0200   42.0120 C.3   275  ALA275      0.1694
    111  C         69.2330   54.8180   43.0150 C.2   275  ALA275      0.2591
    112  O         69.1980   53.6240   42.6320 O.2   275  ALA275     -0.2718
    113  CB        70.3850   56.6870   41.7100 C.3   275  ALA275      0.0304
    114  N         69.3940   55.1430   44.3000 N.am  276  GLN276     -0.1979
    115  CA        69.5100   54.1390   45.3440 C.3   276  GLN276      0.1601
    116  C         68.2440   53.3060   45.6110 C.2   276  GLN276      0.2287
    117  O         68.2930   52.0880   45.8020 O.2   276  GLN276     -0.2864
    118  CB        70.0230   54.7850   46.6210 C.3   276  GLN276      0.0394
    119  CG        71.4580   55.3690   46.4860 C.3   276  GLN276      0.0908
    120  CD        72.4630   54.3380   45.9770 C.2   276  GLN276      0.2608
    121  OE1       72.5630   54.1470   44.7940 O.2   276  GLN276     -0.2717
    122  NE2       73.1450   53.6350   46.8800 N.am  276  GLN276     -0.0878
    123  N         66.1100   52.4800   43.3810 N.3   278  GLY278     -0.1210
    124  CA        66.0840   51.5560   42.2830 C.3   278  GLY278      0.1956
    125  C         67.1010   50.4380   42.4800 C.2   278  GLY278      0.2611
    126  O         66.8160   49.2450   42.3300 O.2   278  GLY278     -0.2717
    127  N         68.3180   50.8220   42.7830 N.am  279  PHE279     -0.1976
    128  CA        69.4040   49.8320   42.9050 C.3   279  PHE279      0.1639
    129  C         69.1980   48.8450   44.0640 C.2   279  PHE279      0.2290
    130  O         69.5290   47.6620   43.9620 O.2   279  PHE279     -0.2864
    131  CB        70.6780   50.6210   43.0860 C.3   279  PHE279      0.0560
    132  CG        71.9040   49.8450   42.9770 C.ar  279  PHE279     -0.0200
    133  CD1       72.3340   49.4020   41.7470 C.ar  279  PHE279     -0.0042
    134  CD2       72.7610   49.6890   44.0880 C.ar  279  PHE279     -0.0042
    135  CE1       73.5310   48.7530   41.6210 C.ar  279  PHE279     -0.0003
    136  CE2       73.9890   48.9940   43.9130 C.ar  279  PHE279     -0.0003
    137  CZ        74.3510   48.5520   42.7050 C.ar  279  PHE279     -0.0000
    138  N         65.8410   46.6290   43.1120 N.3   282  PHE282     -0.1227
    139  CA        65.9440   45.8140   41.9130 C.3   282  PHE282      0.1736
    140  C         67.2470   45.0690   41.6820 C.2   282  PHE282      0.2595
    141  O         67.2430   44.1050   40.9420 O.2   282  PHE282     -0.2718
    142  CB        65.5140   46.6610   40.7030 C.3   282  PHE282      0.0547
    143  CG        64.1140   47.1330   40.8440 C.ar  282  PHE282     -0.0202
    144  CD1       63.8210   48.4460   41.1110 C.ar  282  PHE282     -0.0042
    145  CD2       63.0640   46.1880   40.8370 C.ar  282  PHE282     -0.0042
    146  CE1       62.5000   48.8580   41.3400 C.ar  282  PHE282     -0.0003
    147  CE2       61.7100   46.5840   41.0670 C.ar  282  PHE282     -0.0003
    148  CZ        61.4430   47.9360   41.3100 C.ar  282  PHE282     -0.0000
    149  N         68.3280   45.4710   42.3390 N.am  283  VAL283     -0.1980
    150  CA        69.6100   44.7410   42.2600 C.3   283  VAL283      0.1595
    151  C         70.0280   44.0880   43.6220 C.2   283  VAL283      0.2287
    152  O         70.2240   42.8970   43.7190 O.2   283  VAL283     -0.2864
    153  CB        70.7290   45.7040   41.8300 C.3   283  VAL283      0.0276
    154  CG1       72.1000   44.9780   41.6960 C.3   283  VAL283      0.0022
    155  CG2       70.2580   46.4930   40.6040 C.3   283  VAL283      0.0022
@<TRIPOS>BOND
     1   107   108   ar
     2   107   105   ar
     3   108   106   ar
     4    98    99    1
     5   105   103   ar
     6    24    25    2
     7    24    23    1
     8    89    88    2
     9   106   104   ar
    10   103   104   ar
    11   103   102    1
    12    99   100    1
    13    99   102    1
    14    22    23    1
    15   100   101    2
    16    23    26    1
    17    88    87    1
    18    26    27    1
    19    87    90    1
    20    87    86    1
    21    90    91    1
    22    92    91   ar
    23    92    94   ar
    24    91    93   ar
    25    94    96   ar
    26    27    28    1
    27    93    95   ar
    28    96    97    1
    29    96    95   ar
    30    29    28    1
    31    81    80    2
    32    20    18   ar
    33    20    21   ar
    34    18    17   ar
    35    21    19   ar
    36   155   153    1
    37    73    72    2
    38    17    16    1
    39    17    19   ar
    40   142   143    1
    41   142   139    1
    42    85    83    1
    43   145   143   ar
    44   145   147   ar
    45   143   144   ar
    46    16    13    1
    47   141   140    2
    48    80    79    1
    49    76    75    1
    50   147   148   ar
    51   144   146   ar
    52   148   146   ar
    53    79    82    1
    54    79    78    1
    55   135   133   ar
    56   135   137   ar
    57   140   139    1
    58   140   149   am
    59   154   153    1
    60   113   110    1
    61    75    77    1
    62    75    74    1
    63   133   132   ar
    64    72    78   am
    65    72    71    1
    66    37    35   ar
    67   153   150    1
    68   139   138    1
    69    15    14    2
    70   110   109    1
    71   110   111    1
    72    82    83    1
    73    83    84    1
    74   150   149    1
    75   150   151    1
    76   124   125    1
    77   124   123    1
    78   126   125    2
    79    13    14    1
    80    13    12    1
    81   125   127   am
    82   112   111    2
    83   137   136   ar
    84    71    74    1
    85    71    70    1
    86   127   128    1
    87    12     3   am
    88    44    42    1
    89   128   131    1
    90   128   129    1
    91   132   131    1
    92   132   134   ar
    93   111   114   am
    94    35    36   ar
    95    35    34    1
    96    45    43    1
    97     5     6    1
    98     5     2    1
    99     8    10   ar
   100     8     6   ar
   101   151   152    2
   102     1     2    1
   103    10    11   ar
   104   136   134   ar
   105     6     7   ar
   106   130   129    2
   107    34    31    1
   108     3     2    1
   109     3     4    2
   110    42    43    1
   111    42    39    1
   112   114   115    1
   113    66    65    2
   114   121   120    2
   115    11     9   ar
   116     7     9   ar
   117   115   116    1
   118   115   118    1
   119    39    38    1
   120    39    40    1
   121    31    32    1
   122    31    30    1
   123    38    32   am
   124    32    33    2
   125   116   117    2
   126    68    67    1
   127   120   119    1
   128   120   122   am
   129    65    64    1
   130   119   118    1
   131    64    67    1
   132    64    63    1
   133    40    41    2
   134    67    69    1
   135    53    51   am
   136    51    50    1
   137    51    52    2
   138    59    60    1
   139    59    58    1
   140    46    47    1
   141    50    47    1
   142    61    60   ar
   143    60    62   ar
   144    58    55    1
   145    47    48    1
   146    54    48   am
   147    54    55    1
   148    48    49    2
   149    55    56    1
   150    56    57    2
