@<TRIPOS>MOLECULE
tmp/3jszA00.pdb
 212 206 0 0 0
SMALL
GASTEIGER

@<TRIPOS>ATOM
      1  N         44.3090    2.0970   -7.8350 N.3   132  ILE132     -0.1231
      2  CA        44.6840    3.2200   -8.6710 C.3   132  ILE132      0.1692
      3  C         45.7850    4.0320   -7.9960 C.2   132  ILE132      0.2592
      4  O         45.6780    4.3320   -6.8020 O.2   132  ILE132     -0.2718
      5  CB        43.4600    4.1420   -8.9150 C.3   132  ILE132      0.0266
      6  CG1       42.3240    3.3670   -9.6060 C.3   132  ILE132      0.0019
      7  CG2       43.8750    5.3920   -9.6910 C.3   132  ILE132      0.0020
      8  CD1       41.0180    4.1130   -9.6680 C.3   132  ILE132      0.0001
      9  N         46.8450    4.3710   -8.7330 N.am  133  TRP133     -0.1962
     10  CA        47.8450    5.3050   -8.2030 C.3   133  TRP133      0.1771
     11  C         48.3560    6.2660   -9.2510 C.2   133  TRP133      0.2619
     12  O         49.0670    5.8670  -10.1730 O.2   133  TRP133     -0.2715
     13  CB        49.0410    4.5990   -7.5360 C.3   133  TRP133      0.0590
     14  CG        49.8310    5.6180   -6.7500 C.ar  133  TRP133      0.0006
     15  CD1       50.9890    6.2260   -7.1200 C.ar  133  TRP133      0.0946
     16  CD2       49.4520    6.2000   -5.5070 C.ar  133  TRP133      0.0152
     17  NE1       51.3740    7.1380   -6.1670 N.ar  133  TRP133     -0.2442
     18  CE2       50.4370    7.1460   -5.1690 C.ar  133  TRP133      0.0810
     19  CE3       48.3690    6.0140   -4.6410 C.ar  133  TRP133      0.0012
     20  CZ2       50.3790    7.8860   -3.9910 C.ar  133  TRP133      0.0191
     21  CZ3       48.3070    6.7560   -3.4800 C.ar  133  TRP133      0.0001
     22  CH2       49.3040    7.6850   -3.1720 C.ar  133  TRP133      0.0015
     23  N         47.9750    7.5310   -9.0970 N.am  134  PHE134     -0.1974
     24  CA        48.4590    8.6110   -9.9380 C.3   134  PHE134      0.1639
     25  C         49.4950    9.4100   -9.1540 C.2   134  PHE134      0.2290
     26  O         49.1670    9.9790   -8.1120 O.2   134  PHE134     -0.2864
     27  CB        47.3050    9.5180  -10.3290 C.3   134  PHE134      0.0560
     28  CG        46.2260    8.8330  -11.1360 C.ar  134  PHE134     -0.0200
     29  CD1       46.5570    8.0720  -12.2400 C.ar  134  PHE134     -0.0042
     30  CD2       44.8810    8.9650  -10.7950 C.ar  134  PHE134     -0.0042
     31  CE1       45.5790    7.4460  -12.9790 C.ar  134  PHE134     -0.0003
     32  CE2       43.8910    8.3330  -11.5280 C.ar  134  PHE134     -0.0003
     33  CZ        44.2460    7.5780  -12.6250 C.ar  134  PHE134     -0.0000
     34  N         51.9170   12.3960   -8.0590 N.3   136  ILE136     -0.1245
     35  CA        52.1180   13.8430   -8.1810 C.3   136  ILE136      0.1561
     36  C         53.6080   14.2340   -8.2050 C.2   136  ILE136      0.2260
     37  O         53.9400   15.4120   -8.3470 O.2   136  ILE136     -0.2867
     38  CB        51.3430   14.6480   -7.0940 C.3   136  ILE136      0.0252
     39  CG1       51.8880   14.4030   -5.6830 C.3   136  ILE136      0.0019
     40  CG2       49.8560   14.3280   -7.1390 C.3   136  ILE136      0.0019
     41  CD1       51.2880   15.3380   -4.6340 C.3   136  ILE136      0.0001
     42  N         52.6460    2.3460   -0.3950 N.3   145  GLN145     -0.1245
     43  CA        51.7420    1.7700   -1.3890 C.3   145  GLN145      0.1566
     44  C         52.3430    0.5230   -2.0420 C.2   145  GLN145      0.2260
     45  O         51.6240   -0.4510   -2.2720 O.2   145  GLN145     -0.2867
     46  CB        51.3480    2.8230   -2.4280 C.3   145  GLN145      0.0367
     47  CG        50.3400    3.8620   -1.9390 C.3   145  GLN145      0.0905
     48  CD        50.8990    4.8990   -0.9560 C.2   145  GLN145      0.2608
     49  OE1       52.1070    5.1250   -0.8800 O.2   145  GLN145     -0.2717
     50  NE2       50.0050    5.5520   -0.2190 N.am  145  GLN145     -0.0878
     51  N         44.5440   14.3050   -7.6830 N.3   216  PRO216     -0.2102
     52  CA        44.6820   12.9070   -8.1040 C.3   216  PRO216      0.1504
     53  C         43.6590   11.9480   -7.4620 C.2   216  PRO216      0.2575
     54  O         43.3140   10.9190   -8.0510 O.2   216  PRO216     -0.2718
     55  CB        46.0970   12.5550   -7.6670 C.3   216  PRO216      0.0282
     56  CG        46.2900   13.3810   -6.4070 C.3   216  PRO216      0.0208
     57  CD        45.5820   14.6810   -6.7010 C.3   216  PRO216      0.0893
     58  N         43.2050   12.2430   -6.2470 N.am  217  ALA217     -0.1980
     59  CA        42.1090   11.4910   -5.6490 C.3   217  ALA217      0.1597
     60  C         40.7950   11.6630   -6.4220 C.2   217  ALA217      0.2287
     61  O         40.0330   10.7130   -6.5670 O.2   217  ALA217     -0.2864
     62  CB        41.9090   11.8460   -4.1730 C.3   217  ALA217      0.0319
     63  N         41.0640    9.5130   -9.4390 N.3   220  SER220     -0.1202
     64  CA        40.8720    8.1330   -9.0030 C.3   220  SER220      0.2020
     65  C         39.4000    7.8240   -8.7690 C.2   220  SER220      0.2618
     66  O         38.9080    6.7600   -9.1630 O.2   220  SER220     -0.2717
     67  CB        41.6780    7.8930   -7.7210 C.3   220  SER220      0.2103
     68  OG        41.4570    6.5860   -7.2190 O.3   220  SER220     -0.2182
     69  N         38.6930    8.7670   -8.1420 N.am  221  ASP221     -0.1973
     70  CA        37.2500    8.6560   -7.8790 C.3   221  ASP221      0.1709
     71  C         36.4530    8.4060   -9.1700 C.2   221  ASP221      0.2293
     72  O         35.5510    7.5780   -9.2090 O.2   221  ASP221     -0.2864
     73  CB        36.7200    9.9460   -7.2470 C.3   221  ASP221      0.1436
     74  CG        37.0390   10.0700   -5.7740 C.2   221  ASP221      0.3671
     75  OD1       37.4360    9.0580   -5.1440 O.co2 221  ASP221     -0.2456
     76  OD2       36.8620   11.1960   -5.2470 O.co2 221  ASP221     -0.2456
     77  N         36.4360    4.9180  -11.3220 N.3   224  ARG224     -0.1245
     78  CA        35.6510    3.8140  -10.8020 C.3   224  ARG224      0.1563
     79  C         34.2840    3.6490  -11.4680 C.2   224  ARG224      0.2260
     80  O         33.5790    2.6890  -11.2040 O.2   224  ARG224     -0.2867
     81  CB        35.4770    4.0000   -9.2920 C.3   224  ARG224      0.0307
     82  CG        36.8080    4.0030   -8.5780 C.3   224  ARG224      0.0489
     83  CD        36.7160    4.5140   -7.1400 C.3   224  ARG224      0.2205
     84  NE        37.9220    5.2370   -6.7750 N.pl3 224  ARG224     -0.0865
     85  CZ        38.1750    5.7410   -5.5700 C.cat 224  ARG224      0.5346
     86  NH1       37.3070    5.5810   -4.5830 N.pl3 224  ARG224      0.1354
     87  NH2       39.3070    6.4010   -5.3580 N.pl3 224  ARG224      0.1354
     88  N         36.8550   -2.7160   -6.8560 N.3   235  TYR235     -0.1241
     89  CA        37.7560   -1.5920   -6.6240 C.3   235  TYR235      0.1605
     90  C         38.0770   -1.5910   -5.1280 C.2   235  TYR235      0.2264
     91  O         37.1700   -1.7170   -4.2950 O.2   235  TYR235     -0.2867
     92  CB        37.1620   -0.2080   -7.0230 C.3   235  TYR235      0.0534
     93  CG        38.0450    0.8800   -6.4680 C.ar  235  TYR235     -0.0201
     94  CD1       37.7780    1.4570   -5.2230 C.ar  235  TYR235     -0.0009
     95  CD2       39.2350    1.2080   -7.0910 C.ar  235  TYR235     -0.0009
     96  CE1       38.6390    2.3870   -4.6750 C.ar  235  TYR235      0.0417
     97  CE2       40.1090    2.1350   -6.5490 C.ar  235  TYR235      0.0417
     98  CZ        39.8130    2.7060   -5.3240 C.ar  235  TYR235      0.1957
     99  OH        40.6960    3.6090   -4.7850 O.3   235  TYR235     -0.2866
    100  N         40.7310    0.7910   -2.3850 N.3   237  ASP237     -0.1225
    101  CA        41.8070    1.7330   -2.1470 C.3   237  ASP237      0.1805
    102  C         43.0970    0.9220   -2.0250 C.2   237  ASP237      0.2598
    103  O         43.1250   -0.1340   -1.3890 O.2   237  ASP237     -0.2718
    104  CB        41.6020    2.5530   -0.8650 C.3   237  ASP237      0.1424
    105  CG        40.7150    3.7730   -1.0450 C.2   237  ASP237      0.3668
    106  OD1       40.1380    4.0360   -2.1340 O.co2 237  ASP237     -0.2456
    107  OD2       40.5960    4.5220   -0.0430 O.co2 237  ASP237     -0.2456
    108  N         44.1600    1.4460   -2.6110 N.am  238  ILE238     -0.1966
    109  CA        45.4210    0.7330   -2.7360 C.3   238  ILE238      0.1727
    110  C         45.9540    0.1920   -1.4040 C.2   238  ILE238      0.2616
    111  O         46.5770   -0.8740   -1.3730 O.2   238  ILE238     -0.2715
    112  CB        46.4610    1.6190   -3.4460 C.3   238  ILE238      0.0290
    113  CG1       47.6990    0.8210   -3.8460 C.3   238  ILE238      0.0022
    114  CG2       46.7900    2.8400   -2.6080 C.3   238  ILE238      0.0023
    115  CD1       48.5060    1.4780   -4.9720 C.3   238  ILE238      0.0001
    116  N         45.6710    0.8950   -0.3180 N.am  239  ASP239     -0.1971
    117  CA        46.2250    0.5230    0.9900 C.3   239  ASP239      0.1709
    118  C         45.2920   -0.2410    1.9340 C.2   239  ASP239      0.2293
    119  O         45.6480   -0.4430    3.1030 O.2   239  ASP239     -0.2864
    120  CB        46.7560    1.7730    1.7000 C.3   239  ASP239      0.1436
    121  CG        45.6740    2.7640    2.0340 C.2   239  ASP239      0.3671
    122  OD1       45.8780    3.5590    2.9790 O.co2 239  ASP239     -0.2456
    123  OD2       44.6220    2.7670    1.3540 O.co2 239  ASP239     -0.2456
    124  N         33.2750    4.8090   -0.9690 N.3   282  THR282     -0.1203
    125  CA        33.6950    4.2960   -2.2620 C.3   282  THR282      0.1994
    126  C         35.1100    3.7190   -2.2300 C.2   282  THR282      0.2617
    127  O         35.7060    3.4790   -3.2860 O.2   282  THR282     -0.2717
    128  CB        33.6590    5.4380   -3.2790 C.3   282  THR282      0.1784
    129  OG1       34.4050    6.5370   -2.7440 O.3   282  THR282     -0.2211
    130  CG2       32.2270    5.8460   -3.5310 C.3   282  THR282      0.0376
    131  N         35.6360    3.4650   -1.0290 N.am  283  ASP283     -0.1973
    132  CA        36.9260    2.8090   -0.8800 C.3   283  ASP283      0.1709
    133  C         36.8820    1.3120   -1.1860 C.2   283  ASP283      0.2293
    134  O         37.9220    0.7190   -1.4400 O.2   283  ASP283     -0.2864
    135  CB        37.5540    3.0860    0.5040 C.3   283  ASP283      0.1436
    136  CG        36.7070    2.6120    1.6560 C.2   283  ASP283      0.3671
    137  OD1       37.3080    2.2920    2.7090 O.co2 283  ASP283     -0.2456
    138  OD2       35.4680    2.5800    1.5410 O.co2 283  ASP283     -0.2456
    139  N         36.2810   17.8190   -3.5510 N.3   428  VAL428     -0.1231
    140  CA        36.4480   16.4430   -4.0270 C.3   428  VAL428      0.1692
    141  C         35.2680   15.5680   -3.5830 C.2   428  VAL428      0.2591
    142  O         34.6170   14.9150   -4.4030 O.2   428  VAL428     -0.2718
    143  CB        37.7960   15.8770   -3.5670 C.3   428  VAL428      0.0266
    144  CG1       37.9440   14.3940   -3.9280 C.3   428  VAL428      0.0020
    145  CG2       38.9480   16.6880   -4.1910 C.3   428  VAL428      0.0020
    146  N         34.9570   15.5830   -2.2900 N.am  429  GLU429     -0.1979
    147  CA        33.9280   14.7150   -1.7160 C.3   429  GLU429      0.1602
    148  C         32.5540   14.8370   -2.3700 C.2   429  GLU429      0.2287
    149  O         31.8750   13.8220   -2.5660 O.2   429  GLU429     -0.2864
    150  CB        33.7820   15.0040   -0.2170 C.3   429  GLU429      0.0415
    151  CG        32.7010   14.1940    0.5030 C.3   429  GLU429      0.1163
    152  CD        33.2380   13.2000    1.5010 C.2   429  GLU429      0.3649
    153  OE1       32.4580   12.7990    2.4000 O.co2 429  GLU429     -0.2457
    154  OE2       34.4260   12.8240    1.4060 O.co2 429  GLU429     -0.2457
    155  N         33.5050   12.2900   -5.1770 N.3   433  GLY433     -0.1210
    156  CA        33.6630   11.3950   -4.0510 C.3   433  GLY433      0.1940
    157  C         32.3670   10.8180   -3.5280 C.2   433  GLY433      0.2453
    158  O         31.3270   10.8720   -4.1920 O.2   433  GLY433     -0.2732
    159  N         32.4130   10.2600   -2.3090 N.am  434  PRO434     -0.2728
    160  CA        31.2280    9.5830   -1.7880 C.3   434  PRO434      0.1401
    161  C         29.9820   10.4620   -1.6460 C.2   434  PRO434      0.2269
    162  O         28.8670    9.9430   -1.6910 O.2   434  PRO434     -0.2865
    163  CB        31.6980    9.0380   -0.4220 C.3   434  PRO434      0.0296
    164  CG        32.9710    9.7170   -0.1370 C.3   434  PRO434      0.0237
    165  CD        33.5850   10.0700   -1.4360 C.3   434  PRO434      0.0939
    166  N         36.7080    3.9700    6.8680 N.3   482  ASN482     -0.1240
    167  CA        36.2450    5.2280    6.3010 C.3   482  ASN482      0.1653
    168  C         34.9660    5.7420    6.9160 C.2   482  ASN482      0.2266
    169  O         34.7790    6.9470    7.0120 O.2   482  ASN482     -0.2867
    170  CB        35.9930    5.1090    4.7980 C.3   482  ASN482      0.1155
    171  CG        37.2090    5.4250    3.9760 C.2   482  ASN482      0.2627
    172  OD1       38.3400    5.2180    4.4160 O.2   482  ASN482     -0.2716
    173  ND2       36.9830    5.8980    2.7470 N.am  482  ASN482     -0.0877
    174  N         41.4730   12.2750    9.8550 N.3   498  ARG498     -0.1245
    175  CA        42.8960   12.5850    9.7080 C.3   498  ARG498      0.1563
    176  C         43.1340   13.9840    9.1410 C.2   498  ARG498      0.2260
    177  O         42.3570   14.4730    8.3120 O.2   498  ARG498     -0.2867
    178  CB        43.5840   11.5450    8.8180 C.3   498  ARG498      0.0307
    179  CG        43.6530   10.1590    9.4340 C.3   498  ARG498      0.0489
    180  CD        44.4130    9.1930    8.5370 C.3   498  ARG498      0.2205
    181  NE        44.3650    7.8200    9.0370 N.pl3 498  ARG498     -0.0865
    182  CZ        43.3130    7.0030    8.9410 C.cat 498  ARG498      0.5346
    183  NH1       42.1800    7.4010    8.3660 N.pl3 498  ARG498      0.1354
    184  NH2       43.3930    5.7720    9.4310 N.pl3 498  ARG498      0.1354
    185  N         45.8940   14.7360    4.7760 N.3   501  LEU501     -0.1231
    186  CA        45.4690   13.9040    3.6560 C.3   501  LEU501      0.1693
    187  C         46.4350   14.0500    2.4840 C.2   501  LEU501      0.2593
    188  O         46.9590   15.1400    2.2100 O.2   501  LEU501     -0.2718
    189  CB        44.0360   14.2390    3.2140 C.3   501  LEU501      0.0284
    190  CG        42.9270   14.0640    4.2560 C.3   501  LEU501      0.0019
    191  CD1       41.5770   14.3190    3.6070 C.3   501  LEU501      0.0001
    192  CD2       42.9610   12.6820    4.9010 C.3   501  LEU501      0.0001
    193  N         46.6530   12.9360    1.7960 N.am  502  SER502     -0.1938
    194  CA        47.5730   12.8630    0.6690 C.3   502  SER502      0.2055
    195  C         47.2010   13.8200   -0.4540 C.2   502  SER502      0.2643
    196  O         48.0670   14.2570   -1.2140 O.2   502  SER502     -0.2714
    197  CB        47.5500   11.4560    0.0930 C.3   502  SER502      0.2130
    198  OG        46.2820   11.1890   -0.4840 O.3   502  SER502     -0.2179
    199  N         45.9090   14.1210   -0.5640 N.am  503  TRP503     -0.1973
    200  CA        45.3910   14.8810   -1.6990 C.3   503  TRP503      0.1640
    201  C         44.9780   16.3120   -1.3680 C.2   503  TRP503      0.2290
    202  O         44.4750   17.0160   -2.2370 O.2   503  TRP503     -0.2864
    203  CB        44.2270   14.1310   -2.3570 C.3   503  TRP503      0.0576
    204  CG        43.0990   13.7290   -1.4410 C.ar  503  TRP503      0.0006
    205  CD1       42.9570   12.5390   -0.8020 C.ar  503  TRP503      0.0946
    206  CD2       41.9310   14.5000   -1.1150 C.ar  503  TRP503      0.0152
    207  NE1       41.7860   12.5210   -0.0830 N.ar  503  TRP503     -0.2442
    208  CE2       41.1330   13.7080   -0.2660 C.ar  503  TRP503      0.0810
    209  CE3       41.4840   15.7790   -1.4570 C.ar  503  TRP503      0.0012
    210  CZ2       39.9080   14.1490    0.2480 C.ar  503  TRP503      0.0191
    211  CZ3       40.2600   16.2200   -0.9370 C.ar  503  TRP503      0.0001
    212  CH2       39.4910   15.4060   -0.1010 C.ar  503  TRP503      0.0015
@<TRIPOS>BOND
     1    31    33   ar
     2    31    29   ar
     3    33    32   ar
     4    29    28   ar
     5    32    30   ar
     6    79    80    2
     7    79    78    1
     8    77    78    1
     9    28    30   ar
    10    28    27    1
    11    78    81    1
    12    27    24    1
    13    12    11    2
    14    24    25    1
    15    24    23    1
    16     7     5    1
    17     8     6    1
    18     6     5    1
    19    63    64    1
    20    81    82    1
    21    11    23   am
    22    11    10    1
    23    72    71    2
    24    71    70    1
    25    66    65    2
    26    25    26    2
    27    64    65    1
    28    64    67    1
    29     5     2    1
    30    65    69   am
    31     9    10    1
    32     9     3   am
    33     2     3    1
    34     2     1    1
    35    82    83    1
    36    37    36    2
    37    36    35    1
    38    10    13    1
    39    35    34    1
    40    35    38    1
    41    69    70    1
    42    52    51    1
    43    52    55    1
    44    52    53    1
    45    54    53    2
    46     3     4    2
    47    70    73    1
    48    67    68    1
    49    51    57    1
    50    55    56    1
    51    13    14    1
    52    53    58   am
    53    73    74    1
    54    83    84    1
    55    40    38    1
    56    15    14   ar
    57    15    17   ar
    58    38    39    1
    59    95    97   ar
    60    95    93   ar
    61    92    89    1
    62    92    93    1
    63    88    89    1
    64    84    85    2
    65    14    16   ar
    66    57    56    1
    67    89    90    1
    68    61    60    2
    69    97    98   ar
    70    93    94   ar
    71    60    59    1
    72    58    59    1
    73    17    18   ar
    74    74    76   ar
    75    74    75   ar
    76    39    41    1
    77    59    62    1
    78    85    87    1
    79    85    86    1
    80    16    18   ar
    81    16    19   ar
    82    98    99    1
    83    98    96   ar
    84    94    96   ar
    85   155   156    1
    86    18    20   ar
    87    90    91    2
    88   115   113    1
    89    19    21   ar
    90   142   141    2
    91   158   157    2
    92   145   143    1
    93   156   157    1
    94   140   141    1
    95   140   143    1
    96   140   139    1
    97    20    22   ar
    98   144   143    1
    99   113   112    1
   100   141   146   am
   101   130   128    1
   102   157   159   am
   103    21    22   ar
   104   112   109    1
   105   112   114    1
   106   127   126    2
   107   128   129    1
   108   128   125    1
   109   109   108    1
   110   109   110    1
   111   108   102   am
   112   149   148    2
   113    46    47    1
   114    46    43    1
   115   100   101    1
   116   148   147    1
   117   203   200    1
   118   203   204    1
   119   159   160    1
   120   159   165    1
   121   146   147    1
   122    45    44    2
   123   125   126    1
   124   125   124    1
   125   202   201    2
   126   126   131   am
   127   101   102    1
   128   101   104    1
   129   106   105   ar
   130    44    43    1
   131   102   103    2
   132    47    48    1
   133   160   161    1
   134   160   163    1
   135   147   150    1
   136   200   201    1
   137   200   199    1
   138   162   161    2
   139   209   206   ar
   140   209   211   ar
   141   204   206   ar
   142   204   205   ar
   143   134   133    2
   144   165   164    1
   145   110   111    2
   146   110   116   am
   147    43    42    1
   148   196   195    2
   149   133   132    1
   150   206   208   ar
   151   105   104    1
   152   105   107   ar
   153   131   132    1
   154    48    49    2
   155    48    50   am
   156   211   212   ar
   157   132   135    1
   158   205   207   ar
   159   199   195   am
   160   198   197    1
   161   195   194    1
   162   163   164    1
   163   116   117    1
   164   208   207   ar
   165   208   210   ar
   166   150   151    1
   167   212   210   ar
   168   197   194    1
   169   151   152    1
   170   135   136    1
   171   194   193    1
   172   117   120    1
   173   117   118    1
   174   123   121   ar
   175   154   152   ar
   176   152   153   ar
   177   138   136   ar
   178   136   137   ar
   179   120   121    1
   180   193   187   am
   181   118   119    2
   182   121   122   ar
   183   188   187    2
   184   187   186    1
   185   173   171   am
   186   189   186    1
   187   189   190    1
   188   191   190    1
   189   186   185    1
   190   171   172    2
   191   171   170    1
   192   190   192    1
   193   170   167    1
   194   167   166    1
   195   167   168    1
   196   168   169    2
   197   177   176    2
   198   183   182    1
   199   180   181    1
   200   180   179    1
   201   178   179    1
   202   178   175    1
   203   182   181    2
   204   182   184    1
   205   176   175    1
   206   175   174    1
