@<TRIPOS>MOLECULE
tmp/3jt5B03.pdb
 160 158 0 0 0
SMALL
GASTEIGER

@<TRIPOS>ATOM
      1  N          7.3600    5.5240   53.6890 N.3   108  CYS108     -0.1235
      2  CA         7.0930    4.2980   54.4490 C.3   108  CYS108      0.1677
      3  C          6.0150    3.4410   53.8210 C.2   108  CYS108      0.2270
      4  O          4.8540    3.8500   53.6380 O.2   108  CYS108     -0.2867
      5  CB         6.7720    4.6040   55.9190 C.3   108  CYS108      0.0956
      6  SG         6.3820    3.1530   56.8890 S.3   108  CYS108     -0.0801
      7  N         20.2890    3.9050   64.2270 N.3   171  GLN171     -0.1245
      8  CA        19.2400    2.9690   64.6440 C.3   171  GLN171      0.1566
      9  C         19.6120    2.4670   66.0330 C.2   171  GLN171      0.2260
     10  O         20.8020    2.4150   66.3740 O.2   171  GLN171     -0.2867
     11  CB        19.1000    1.7540   63.7080 C.3   171  GLN171      0.0367
     12  CG        18.7560    2.0260   62.2080 C.3   171  GLN171      0.0905
     13  CD        18.6070    0.6930   61.4210 C.2   171  GLN171      0.2608
     14  OE1       18.3040   -0.3520   62.0040 O.2   171  GLN171     -0.2717
     15  NE2       18.8090    0.7360   60.1230 N.am  171  GLN171     -0.0878
     16  N         22.3750   -1.6240   65.6520 N.3   174  ARG174     -0.1245
     17  CA        23.1020   -1.7070   64.4090 C.3   174  ARG174      0.1563
     18  C         24.4450   -2.3490   64.6560 C.2   174  ARG174      0.2260
     19  O         24.9410   -2.3050   65.7840 O.2   174  ARG174     -0.2867
     20  CB        23.2780   -0.3070   63.8410 C.3   174  ARG174      0.0307
     21  CG        22.3690   -0.0610   62.6890 C.3   174  ARG174      0.0489
     22  CD        22.8200    1.1070   61.8290 C.3   174  ARG174      0.2205
     23  NE        22.4670    0.8730   60.4430 N.pl3 174  ARG174     -0.0865
     24  CZ        22.6140    1.7670   59.4760 C.cat 174  ARG174      0.5346
     25  NH1       23.0920    2.9730   59.7410 N.pl3 174  ARG174      0.1354
     26  NH2       22.2520    1.4670   58.2440 N.pl3 174  ARG174      0.1354
     27  N         21.1290  -11.4780   61.4220 N.3   254  TRP254     -0.1227
     28  CA        20.7070  -10.0640   61.5150 C.3   254  TRP254      0.1737
     29  C         19.8890   -9.8530   62.7880 C.2   254  TRP254      0.2595
     30  O         19.4920  -10.8130   63.4140 O.2   254  TRP254     -0.2718
     31  CB        19.9190   -9.6300   60.2690 C.3   254  TRP254      0.0564
     32  CG        19.9900   -8.1700   60.0310 C.ar  254  TRP254      0.0003
     33  CD1       18.9890   -7.2690   60.2280 C.ar  254  TRP254      0.0946
     34  CD2       21.1260   -7.4210   59.5320 C.ar  254  TRP254      0.0152
     35  NE1       19.4310   -6.0040   59.8960 N.ar  254  TRP254     -0.2442
     36  CE2       20.7350   -6.0750   59.4640 C.ar  254  TRP254      0.0810
     37  CE3       22.4290   -7.7730   59.1390 C.ar  254  TRP254      0.0012
     38  CZ2       21.5920   -5.0550   59.0130 C.ar  254  TRP254      0.0191
     39  CZ3       23.2930   -6.7610   58.6930 C.ar  254  TRP254      0.0001
     40  CH2       22.8690   -5.4160   58.6340 C.ar  254  TRP254      0.0015
     41  N         19.6540   -8.6050   63.1780 N.am  255  TYR255     -0.1976
     42  CA        18.8300   -8.3010   64.3500 C.3   255  TYR255      0.1639
     43  C         17.3570   -8.1900   63.9200 C.2   255  TYR255      0.2290
     44  O         17.0560   -7.8240   62.7860 O.2   255  TYR255     -0.2864
     45  CB        19.3280   -7.0150   65.0400 C.3   255  TYR255      0.0560
     46  CG        19.4960   -5.8290   64.0830 C.ar  255  TYR255     -0.0198
     47  CD1       18.4730   -4.8860   63.9270 C.ar  255  TYR255     -0.0009
     48  CD2       20.6790   -5.6300   63.3640 C.ar  255  TYR255     -0.0009
     49  CE1       18.6210   -3.7950   63.0880 C.ar  255  TYR255      0.0417
     50  CE2       20.8280   -4.5200   62.5040 C.ar  255  TYR255      0.0417
     51  CZ        19.7800   -3.6180   62.3760 C.ar  255  TYR255      0.1957
     52  OH        19.8820   -2.5300   61.5390 O.3   255  TYR255     -0.2866
     53  N         14.0860   -3.2120   63.6990 N.3   258  PRO258     -0.2116
     54  CA        14.5810   -2.0280   63.0050 C.3   258  PRO258      0.1372
     55  C         14.0290   -0.8090   63.7230 C.2   258  PRO258      0.2244
     56  O         12.7980   -0.6440   63.8080 O.2   258  PRO258     -0.2868
     57  CB        13.9620   -2.1420   61.6070 C.3   258  PRO258      0.0268
     58  CG        12.6490   -2.9040   61.8280 C.3   258  PRO258      0.0207
     59  CD        12.8760   -3.7780   63.0630 C.3   258  PRO258      0.0892
     60  N         14.5470    3.2860   63.9370 N.3   260  VAL260     -0.1245
     61  CA        15.2480    4.4680   63.4470 C.3   260  VAL260      0.1561
     62  C         15.3300    5.4910   64.5810 C.2   260  VAL260      0.2260
     63  O         14.3000    5.8300   65.1760 O.2   260  VAL260     -0.2867
     64  CB        14.5330    5.0450   62.2040 C.3   260  VAL260      0.0252
     65  CG1       14.9480    6.4910   61.9400 C.3   260  VAL260      0.0019
     66  CG2       14.7910    4.1180   60.9390 C.3   260  VAL260      0.0019
     67  N         11.8010    5.3260   66.8740 N.3   277  PHE277     -0.1227
     68  CA        10.6100    4.5340   66.5700 C.3   277  PHE277      0.1736
     69  C         11.0060    3.2290   65.8700 C.2   277  PHE277      0.2596
     70  O         12.0330    3.1690   65.2230 O.2   277  PHE277     -0.2718
     71  CB         9.6390    5.3460   65.7120 C.3   277  PHE277      0.0547
     72  CG        10.2810    5.9650   64.4710 C.ar  277  PHE277     -0.0202
     73  CD1       10.2220    5.3140   63.2390 C.ar  277  PHE277     -0.0042
     74  CD2       10.8740    7.2190   64.5270 C.ar  277  PHE277     -0.0042
     75  CE1       10.7940    5.8740   62.0950 C.ar  277  PHE277     -0.0003
     76  CE2       11.4640    7.7870   63.3910 C.ar  277  PHE277     -0.0003
     77  CZ        11.4080    7.0930   62.1580 C.ar  277  PHE277     -0.0000
     78  N         10.1710    2.2080   65.9820 N.am  278  SER278     -0.1938
     79  CA        10.4820    0.9130   65.4230 C.3   278  SER278      0.2055
     80  C          9.2030    0.2470   64.9170 C.2   278  SER278      0.2644
     81  O          8.1220    0.5160   65.4300 O.2   278  SER278     -0.2714
     82  CB        11.1390    0.0140   66.4950 C.3   278  SER278      0.2130
     83  OG        10.2810   -0.1490   67.6300 O.3   278  SER278     -0.2179
     84  N          9.3380   -0.5890   63.8860 N.am  279  GLY279     -0.1939
     85  CA         8.2540   -1.4400   63.4310 C.3   279  GLY279      0.2014
     86  C          8.7530   -2.8670   63.2850 C.2   279  GLY279      0.2639
     87  O          9.1920   -3.4860   64.2620 O.2   279  GLY279     -0.2714
     88  N          8.6690   -3.4160   62.0760 N.am  280  TRP280     -0.1959
     89  CA         9.3260   -4.7030   61.7960 C.3   280  TRP280      0.1771
     90  C          9.8510   -4.6690   60.3500 C.2   280  TRP280      0.2620
     91  O          9.5090   -3.7750   59.5750 O.2   280  TRP280     -0.2715
     92  CB         8.3930   -5.9050   62.0400 C.3   280  TRP280      0.0590
     93  CG         7.0640   -5.8070   61.3480 C.ar  280  TRP280      0.0006
     94  CD1        6.7980   -6.0200   60.0080 C.ar  280  TRP280      0.0946
     95  CD2        5.8160   -5.4560   61.9510 C.ar  280  TRP280      0.0152
     96  NE1        5.4530   -5.8300   59.7620 N.ar  280  TRP280     -0.2442
     97  CE2        4.8330   -5.4750   60.9330 C.ar  280  TRP280      0.0810
     98  CE3        5.4360   -5.1010   63.2530 C.ar  280  TRP280      0.0012
     99  CZ2        3.4770   -5.1820   61.1890 C.ar  280  TRP280      0.0191
    100  CZ3        4.0890   -4.8290   63.5120 C.ar  280  TRP280      0.0001
    101  CH2        3.1260   -4.8770   62.4810 C.ar  280  TRP280      0.0015
    102  N         10.6950   -5.6190   59.9940 N.am  281  TYR281     -0.1960
    103  CA        11.3560   -5.5440   58.7000 C.3   281  TYR281      0.1771
    104  C         10.5080   -6.0560   57.5560 C.2   281  TYR281      0.2619
    105  O          9.7130   -6.9980   57.7110 O.2   281  TYR281     -0.2715
    106  CB        12.6340   -6.3830   58.7070 C.3   281  TYR281      0.0574
    107  CG        13.8900   -5.6700   59.1440 C.ar  281  TYR281     -0.0198
    108  CD1       14.5440   -6.0450   60.3140 C.ar  281  TYR281     -0.0009
    109  CD2       14.4680   -4.6710   58.3510 C.ar  281  TYR281     -0.0009
    110  CE1       15.7060   -5.4180   60.7090 C.ar  281  TYR281      0.0417
    111  CE2       15.6490   -4.0420   58.7300 C.ar  281  TYR281      0.0417
    112  CZ        16.2470   -4.4180   59.9160 C.ar  281  TYR281      0.1957
    113  OH        17.3900   -3.8240   60.2840 O.3   281  TYR281     -0.2866
    114  N         10.7010   -5.4370   56.3970 N.am  282  MET282     -0.1977
    115  CA        10.3730   -6.0940   55.1380 C.3   282  MET282      0.1605
    116  C         11.6500   -6.8020   54.6920 C.2   282  MET282      0.2287
    117  O         12.7620   -6.2380   54.7840 O.2   282  MET282     -0.2864
    118  CB         9.9160   -5.0690   54.1050 C.3   282  MET282      0.0413
    119  CG         9.5010   -5.6420   52.7230 C.3   282  MET282      0.0598
    120  SD         8.7470   -4.3490   51.6780 S.3   282  MET282     -0.1393
    121  CE        10.1840   -3.3680   51.1610 C.3   282  MET282      0.0692
    122  N         14.8900   -5.2670   52.9250 N.3   285  GLU285     -0.1245
    123  CA        15.7890   -4.2930   53.5350 C.3   285  GLU285      0.1567
    124  C         17.0940   -4.9960   53.9530 C.2   285  GLU285      0.2260
    125  O         18.1810   -4.4360   53.7990 O.2   285  GLU285     -0.2867
    126  CB        15.1530   -3.6330   54.7560 C.3   285  GLU285      0.0388
    127  CG        13.7920   -2.9540   54.4790 C.3   285  GLU285      0.1160
    128  CD        13.1650   -2.4370   55.7620 C.2   285  GLU285      0.3649
    129  OE1       13.7390   -1.4660   56.2830 O.co2 285  GLU285     -0.2457
    130  OE2       12.1230   -2.9780   56.2370 O.co2 285  GLU285     -0.2457
    131  N         19.3860   -4.8920   50.4040 N.3   289  ARG289     -0.1231
    132  CA        20.2080   -3.7160   50.6970 C.3   289  ARG289      0.1694
    133  C         21.3400   -4.0070   51.6990 C.2   289  ARG289      0.2592
    134  O         22.5010   -3.8160   51.3760 O.2   289  ARG289     -0.2718
    135  CB        19.3510   -2.5430   51.2280 C.3   289  ARG289      0.0321
    136  CG        18.1280   -2.1270   50.3390 C.3   289  ARG289      0.0489
    137  CD        18.5320   -1.6230   48.9310 C.3   289  ARG289      0.2205
    138  NE        19.6590   -0.6890   48.9660 N.pl3 289  ARG289     -0.0865
    139  CZ        19.5340    0.5990   49.2950 C.cat 289  ARG289      0.5346
    140  NH1       18.3250    1.0960   49.6040 N.pl3 289  ARG289      0.1354
    141  NH2       20.6030    1.3820   49.3280 N.pl3 289  ARG289      0.1354
    142  N         20.9970   -4.4080   52.9230 N.am  290  ASP290     -0.1974
    143  CA        22.0340   -4.6610   53.9460 C.3   290  ASP290      0.1709
    144  C         23.0410   -5.7520   53.5220 C.2   290  ASP290      0.2293
    145  O         24.2310   -5.6100   53.7580 O.2   290  ASP290     -0.2864
    146  CB        21.4130   -4.9550   55.3280 C.3   290  ASP290      0.1436
    147  CG        20.3920   -3.9040   55.7310 C.2   290  ASP290      0.3671
    148  OD1       20.4440   -2.8070   55.1490 O.co2 290  ASP290     -0.2456
    149  OD2       19.4990   -4.1650   56.5830 O.co2 290  ASP290     -0.2456
    150  N         27.7640   -2.2430   51.4530 N.3   296  ARG296     -0.1245
    151  CA        27.2860   -2.8520   52.7120 C.3   296  ARG296      0.1563
    152  C         27.9650   -4.2130   52.8850 C.2   296  ARG296      0.2260
    153  O         29.1540   -4.3160   52.6320 O.2   296  ARG296     -0.2867
    154  CB        25.7380   -2.9250   52.7630 C.3   296  ARG296      0.0307
    155  CG        25.0040   -1.5520   52.6810 C.3   296  ARG296      0.0489
    156  CD        25.2140   -0.6120   53.8950 C.3   296  ARG296      0.2205
    157  NE        24.8240   -1.2020   55.2000 N.pl3 296  ARG296     -0.0865
    158  CZ        23.5650   -1.3350   55.6400 C.cat 296  ARG296      0.5346
    159  NH1       22.5300   -0.9280   54.8900 N.pl3 296  ARG296      0.1354
    160  NH2       23.3330   -1.8560   56.8420 N.pl3 296  ARG296      0.1354
@<TRIPOS>BOND
     1   137   138    1
     2   137   136    1
     3   138   139    2
     4   139   141    1
     5   139   140    1
     6   136   135    1
     7   131   132    1
     8   132   135    1
     9   132   133    1
    10   121   120    1
    11   134   133    2
    12   150   151    1
    13   120   119    1
    14   133   142   am
    15   153   152    2
    16   155   154    1
    17   155   156    1
    18   151   154    1
    19   151   152    1
    20   119   118    1
    21   142   143    1
    22   122   123    1
    23   144   145    2
    24   144   143    1
    25   123   124    1
    26   123   126    1
    27     4     3    2
    28     1     2    1
    29   125   124    2
    30     3     2    1
    31   156   157    1
    32   143   146    1
    33   118   115    1
    34     2     5    1
    35   127   126    1
    36   127   128    1
    37   116   117    2
    38   116   115    1
    39   159   158    1
    40   115   114    1
    41   148   147   ar
    42   157   158    2
    43   146   147    1
    44   158   160    1
    45   147   149   ar
    46   128   130   ar
    47   128   129   ar
    48     5     6    1
    49   114   104   am
    50   104   105    2
    51   104   103    1
    52    26    24    1
    53   109   111   ar
    54   109   107   ar
    55    40    39   ar
    56    40    38   ar
    57    39    37   ar
    58   103   106    1
    59   103   102    1
    60   106   107    1
    61   111   112   ar
    62    38    36   ar
    63    37    34   ar
    64   107   108   ar
    65    36    34   ar
    66    36    35   ar
    67    24    25    1
    68    24    23    2
    69    34    32   ar
    70    91    90    2
    71    96    94   ar
    72    96    97   ar
    73    35    33   ar
    74   112   113    1
    75   112   110   ar
    76   102    90   am
    77    94    93   ar
    78    32    33   ar
    79    32    31    1
    80    15    13   am
    81    31    28    1
    82   108   110   ar
    83    90    89    1
    84    23    22    1
    85    97    99   ar
    86    97    95   ar
    87    66    64    1
    88    99   101   ar
    89    93    95   ar
    90    93    92    1
    91    13    14    2
    92    13    12    1
    93    27    28    1
    94    28    29    1
    95    52    51    1
    96    57    58    1
    97    57    54    1
    98    89    92    1
    99    89    88    1
   100    58    59    1
   101    22    21    1
   102    65    64    1
   103    95    98   ar
   104    88    86   am
   105    75    77   ar
   106    75    73   ar
   107    77    76   ar
   108    64    61    1
   109    12    11    1
   110    51    50   ar
   111    51    49   ar
   112   101   100   ar
   113    50    48   ar
   114    21    20    1
   115    44    43    2
   116    29    41   am
   117    29    30    2
   118    54    53    1
   119    54    55    1
   120    59    53    1
   121    49    47   ar
   122    41    42    1
   123    73    72   ar
   124    98   100   ar
   125    86    85    1
   126    86    87    2
   127    48    46   ar
   128    76    74   ar
   129    85    84    1
   130    61    60    1
   131    61    62    1
   132    11     8    1
   133    55    56    2
   134    20    17    1
   135    84    80   am
   136    43    42    1
   137    47    46   ar
   138    46    45    1
   139     7     8    1
   140    42    45    1
   141    17    18    1
   142    17    16    1
   143    72    74   ar
   144    72    71    1
   145    62    63    2
   146     8     9    1
   147    18    19    2
   148    80    79    1
   149    80    81    2
   150    70    69    2
   151    79    78    1
   152    79    82    1
   153    71    68    1
   154    69    78   am
   155    69    68    1
   156     9    10    2
   157    82    83    1
   158    68    67    1
