@<TRIPOS>MOLECULE
tmp/3jt8B03.pdb
 109 106 0 0 0
SMALL
GASTEIGER

@<TRIPOS>ATOM
      1  N          7.3570    5.5650   53.6630 N.3   108  CYS108     -0.1235
      2  CA         7.0880    4.3420   54.4300 C.3   108  CYS108      0.1677
      3  C          6.0150    3.4710   53.8310 C.2   108  CYS108      0.2270
      4  O          4.8420    3.8650   53.7650 O.2   108  CYS108     -0.2867
      5  CB         6.7450    4.6300   55.9150 C.3   108  CYS108      0.0956
      6  SG         6.3370    3.1480   56.9210 S.3   108  CYS108     -0.0801
      7  N         20.4110    3.8890   64.2730 N.3   171  GLN171     -0.1245
      8  CA        19.3650    2.9480   64.7160 C.3   171  GLN171      0.1566
      9  C         19.7840    2.4570   66.1190 C.2   171  GLN171      0.2260
     10  O         20.9840    2.4420   66.4330 O.2   171  GLN171     -0.2867
     11  CB        19.2090    1.7220   63.7800 C.3   171  GLN171      0.0367
     12  CG        18.7770    1.9760   62.3390 C.3   171  GLN171      0.0905
     13  CD        18.9240    0.7150   61.4410 C.2   171  GLN171      0.2608
     14  OE1       18.6710   -0.4190   61.8740 O.2   171  GLN171     -0.2717
     15  NE2       19.3270    0.9230   60.2050 N.am  171  GLN171     -0.0878
     16  N         14.3330   -3.3770   63.9560 N.3   258  PRO258     -0.2116
     17  CA        14.7920   -2.1950   63.2420 C.3   258  PRO258      0.1372
     18  C         14.1800   -0.9530   63.8850 C.2   258  PRO258      0.2244
     19  O         12.9580   -0.8340   63.9560 O.2   258  PRO258     -0.2868
     20  CB        14.2360   -2.3950   61.8340 C.3   258  PRO258      0.0268
     21  CG        12.9770   -3.2330   62.0220 C.3   258  PRO258      0.0207
     22  CD        13.0940   -3.9290   63.3780 C.3   258  PRO258      0.0892
     23  N         14.7080    3.1550   64.0180 N.3   260  VAL260     -0.1245
     24  CA        15.3730    4.3860   63.5310 C.3   260  VAL260      0.1561
     25  C         15.4690    5.4070   64.6780 C.2   260  VAL260      0.2260
     26  O         14.4740    5.7210   65.2950 O.2   260  VAL260     -0.2867
     27  CB        14.6200    4.9600   62.3180 C.3   260  VAL260      0.0252
     28  CG1       15.0570    6.4130   61.9960 C.3   260  VAL260      0.0019
     29  CG2       14.8690    4.0520   61.0850 C.3   260  VAL260      0.0019
     30  N         16.0230   10.5900   63.5520 N.3   263  MET263     -0.1245
     31  CA        15.0940   11.5310   62.9240 C.3   263  MET263      0.1570
     32  C         14.4880   12.5220   63.9110 C.2   263  MET263      0.2261
     33  O         14.6250   12.3440   65.1210 O.2   263  MET263     -0.2867
     34  CB        14.0310   10.7820   62.1110 C.3   263  MET263      0.0387
     35  CG        14.6710   10.0560   60.9070 C.3   263  MET263      0.0595
     36  SD        13.4620    9.3820   59.7750 S.3   263  MET263     -0.1393
     37  CE        13.1130   10.8470   58.7530 C.3   263  MET263      0.0692
     38  N         11.9430    5.2050   66.9530 N.3   277  PHE277     -0.1227
     39  CA        10.7340    4.4320   66.6710 C.3   277  PHE277      0.1736
     40  C         11.1020    3.1130   65.9670 C.2   277  PHE277      0.2596
     41  O         12.1660    2.9880   65.4000 O.2   277  PHE277     -0.2718
     42  CB         9.7340    5.2560   65.8550 C.3   277  PHE277      0.0547
     43  CG        10.3120    5.8300   64.5580 C.ar  277  PHE277     -0.0202
     44  CD1       10.2500    5.1170   63.3690 C.ar  277  PHE277     -0.0042
     45  CD2       10.8830    7.0880   64.5330 C.ar  277  PHE277     -0.0042
     46  CE1       10.7540    5.6640   62.1870 C.ar  277  PHE277     -0.0003
     47  CE2       11.3970    7.6250   63.3520 C.ar  277  PHE277     -0.0003
     48  CZ        11.3250    6.9040   62.1720 C.ar  277  PHE277     -0.0000
     49  N         10.2050    2.1530   65.9950 N.am  278  SER278     -0.1938
     50  CA        10.5130    0.8160   65.5470 C.3   278  SER278      0.2055
     51  C          9.2260    0.1830   65.0690 C.2   278  SER278      0.2644
     52  O          8.1610    0.4640   65.5930 O.2   278  SER278     -0.2714
     53  CB        11.1850   -0.0310   66.6730 C.3   278  SER278      0.2130
     54  OG        10.3090   -0.2740   67.7980 O.3   278  SER278     -0.2179
     55  N          9.3370   -0.6310   64.0260 N.am  279  GLY279     -0.1939
     56  CA         8.2440   -1.4870   63.6010 C.3   279  GLY279      0.2014
     57  C          8.8140   -2.8910   63.4720 C.2   279  GLY279      0.2639
     58  O          9.2360   -3.4850   64.4670 O.2   279  GLY279     -0.2714
     59  N          8.8200   -3.4230   62.2570 N.am  280  TRP280     -0.1959
     60  CA         9.4800   -4.7020   61.9540 C.3   280  TRP280      0.1771
     61  C          9.9720   -4.7210   60.5050 C.2   280  TRP280      0.2620
     62  O          9.5710   -3.8930   59.7090 O.2   280  TRP280     -0.2715
     63  CB         8.5540   -5.9030   62.2000 C.3   280  TRP280      0.0590
     64  CG         7.2280   -5.8410   61.4860 C.ar  280  TRP280      0.0006
     65  CD1        6.9710   -6.1160   60.1540 C.ar  280  TRP280      0.0946
     66  CD2        5.9780   -5.4790   62.0670 C.ar  280  TRP280      0.0152
     67  NE1        5.6210   -5.9450   59.8920 N.ar  280  TRP280     -0.2442
     68  CE2        4.9950   -5.5560   61.0490 C.ar  280  TRP280      0.0810
     69  CE3        5.5860   -5.1030   63.3600 C.ar  280  TRP280      0.0012
     70  CZ2        3.6330   -5.2710   61.2940 C.ar  280  TRP280      0.0191
     71  CZ3        4.2430   -4.8100   63.6020 C.ar  280  TRP280      0.0001
     72  CH2        3.2800   -4.9120   62.5710 C.ar  280  TRP280      0.0015
     73  N         10.8570   -5.6520   60.1770 N.am  281  TYR281     -0.1960
     74  CA        11.5430   -5.6240   58.8890 C.3   281  TYR281      0.1771
     75  C         10.6840   -6.1310   57.7370 C.2   281  TYR281      0.2619
     76  O          9.8880   -7.0800   57.8900 O.2   281  TYR281     -0.2715
     77  CB        12.7840   -6.5050   58.9340 C.3   281  TYR281      0.0574
     78  CG        14.0710   -5.8220   59.3510 C.ar  281  TYR281     -0.0198
     79  CD1       14.7110   -6.1490   60.5550 C.ar  281  TYR281     -0.0009
     80  CD2       14.6470   -4.8430   58.5410 C.ar  281  TYR281     -0.0009
     81  CE1       15.9100   -5.5150   60.9130 C.ar  281  TYR281      0.0417
     82  CE2       15.8400   -4.2150   58.8830 C.ar  281  TYR281      0.0417
     83  CZ        16.4590   -4.5580   60.0690 C.ar  281  TYR281      0.1957
     84  OH        17.6510   -3.9510   60.3750 O.3   281  TYR281     -0.2866
     85  N         10.8660   -5.5000   56.5800 N.am  282  MET282     -0.1977
     86  CA        10.5220   -6.1170   55.3080 C.3   282  MET282      0.1605
     87  C         11.8160   -6.8180   54.8760 C.2   282  MET282      0.2287
     88  O         12.8940   -6.2240   54.9530 O.2   282  MET282     -0.2864
     89  CB        10.0980   -5.0650   54.2960 C.3   282  MET282      0.0413
     90  CG         9.7770   -5.6060   52.8700 C.3   282  MET282      0.0598
     91  SD         8.8550   -4.4100   51.8530 S.3   282  MET282     -0.1393
     92  CE        10.1920   -3.3520   51.3170 C.3   282  MET282      0.0692
     93  N         15.0120   -5.2470   53.0490 N.3   285  GLU285     -0.1245
     94  CA        15.9110   -4.3240   53.7490 C.3   285  GLU285      0.1567
     95  C         17.2220   -5.0270   54.1320 C.2   285  GLU285      0.2260
     96  O         18.3140   -4.4690   53.9280 O.2   285  GLU285     -0.2867
     97  CB        15.2510   -3.7670   55.0030 C.3   285  GLU285      0.0388
     98  CG        13.9890   -2.9510   54.7390 C.3   285  GLU285      0.1160
     99  CD        13.3500   -2.4400   56.0340 C.2   285  GLU285      0.3649
    100  OE1       13.9100   -1.4660   56.5730 O.co2 285  GLU285     -0.2457
    101  OE2       12.2930   -2.9660   56.4910 O.co2 285  GLU285     -0.2457
    102  N         21.1760   -4.5520   53.0450 N.3   290  ASP290     -0.1239
    103  CA        22.1820   -4.7570   54.1050 C.3   290  ASP290      0.1674
    104  C         23.2340   -5.7820   53.6850 C.2   290  ASP290      0.2266
    105  O         24.4230   -5.6090   53.9640 O.2   290  ASP290     -0.2867
    106  CB        21.5350   -5.1640   55.4430 C.3   290  ASP290      0.1410
    107  CG        20.6090   -4.0960   55.9990 C.2   290  ASP290      0.3668
    108  OD1       20.7840   -2.9100   55.6600 O.co2 290  ASP290     -0.2456
    109  OD2       19.6790   -4.4360   56.7690 O.co2 290  ASP290     -0.2456
@<TRIPOS>BOND
     1    92    91    1
     2    91    90    1
     3    90    89    1
     4   102   103    1
     5    93    94    1
     6     1     2    1
     7   104   105    2
     8   104   103    1
     9    94    95    1
    10    94    97    1
    11     4     3    2
    12     3     2    1
    13    96    95    2
    14   103   106    1
    15    89    86    1
    16     2     5    1
    17    98    97    1
    18    98    99    1
    19    87    88    2
    20    87    86    1
    21    86    85    1
    22   106   107    1
    23   108   107   ar
    24     5     6    1
    25   107   109   ar
    26    99   101   ar
    27    99   100   ar
    28    85    75   am
    29    75    76    2
    30    75    74    1
    31    80    82   ar
    32    80    78   ar
    33    37    36    1
    34    82    83   ar
    35    74    77    1
    36    74    73    1
    37    77    78    1
    38    78    79   ar
    39    62    61    2
    40    36    35    1
    41    67    65   ar
    42    67    68   ar
    43    83    84    1
    44    83    81   ar
    45    65    64   ar
    46    73    61   am
    47    15    13   am
    48    61    60    1
    49    79    81   ar
    50    35    34    1
    51    68    70   ar
    52    68    66   ar
    53    29    27    1
    54    70    72   ar
    55    13    14    2
    56    13    12    1
    57    64    66   ar
    58    64    63    1
    59    20    21    1
    60    20    17    1
    61    60    63    1
    62    60    59    1
    63    28    27    1
    64    21    22    1
    65    66    69   ar
    66    34    31    1
    67    48    46   ar
    68    48    47   ar
    69    46    44   ar
    70    59    57   am
    71    27    24    1
    72    12    11    1
    73    72    71   ar
    74    31    30    1
    75    31    32    1
    76    17    18    1
    77    17    16    1
    78    47    45   ar
    79    69    71   ar
    80    44    43   ar
    81    22    16    1
    82    57    56    1
    83    57    58    2
    84    24    23    1
    85    24    25    1
    86    56    55    1
    87    11     8    1
    88    18    19    2
    89    32    33    2
    90    55    51   am
    91     7     8    1
    92    45    43   ar
    93    43    42    1
    94    25    26    2
    95     8     9    1
    96    51    50    1
    97    51    52    2
    98    41    40    2
    99    50    49    1
   100    50    53    1
   101    42    39    1
   102    40    49   am
   103    40    39    1
   104     9    10    2
   105    39    38    1
   106    53    54    1
