@<TRIPOS>MOLECULE
tmp/3jtaB03.pdb
 165 164 0 0 0
SMALL
GASTEIGER

@<TRIPOS>ATOM
      1  N          7.4090    5.4300   53.5620 N.3   108  CYS108     -0.1235
      2  CA         7.2090    4.2460   54.4130 C.3   108  CYS108      0.1677
      3  C          6.1140    3.3860   53.8510 C.2   108  CYS108      0.2270
      4  O          4.9470    3.8100   53.7330 O.2   108  CYS108     -0.2867
      5  CB         6.8880    4.6130   55.9030 C.3   108  CYS108      0.0956
      6  SG         6.4100    3.1480   56.9010 S.3   108  CYS108     -0.0801
      7  N         20.5680    3.7710   64.2740 N.3   171  GLN171     -0.1245
      8  CA        19.5350    2.8560   64.7340 C.3   171  GLN171      0.1566
      9  C         19.8950    2.4230   66.1660 C.2   171  GLN171      0.2260
     10  O         21.0620    2.4630   66.5640 O.2   171  GLN171     -0.2867
     11  CB        19.2710    1.6450   63.8280 C.3   171  GLN171      0.0367
     12  CG        18.9460    1.9140   62.3640 C.3   171  GLN171      0.0905
     13  CD        18.7770    0.5920   61.5720 C.2   171  GLN171      0.2608
     14  OE1       18.7320   -0.5000   62.1480 O.2   171  GLN171     -0.2717
     15  NE2       18.6890    0.6920   60.2950 N.am  171  GLN171     -0.0878
     16  N         22.5100   -1.7290   65.7730 N.3   174  ARG174     -0.1245
     17  CA        23.1920   -1.7230   64.5610 C.3   174  ARG174      0.1563
     18  C         24.5940   -2.3050   64.8230 C.2   174  ARG174      0.2260
     19  O         25.0470   -2.3010   65.9580 O.2   174  ARG174     -0.2867
     20  CB        23.2300   -0.2990   64.0220 C.3   174  ARG174      0.0307
     21  CG        22.8490   -0.3350   62.5180 C.3   174  ARG174      0.0489
     22  CD        22.9540    1.0130   61.8700 C.3   174  ARG174      0.2205
     23  NE        22.3790    0.9350   60.5500 N.pl3 174  ARG174     -0.0865
     24  CZ        22.6090    1.7940   59.5690 C.cat 174  ARG174      0.5346
     25  NH1       23.4380    2.8240   59.7270 N.pl3 174  ARG174      0.1354
     26  NH2       21.9940    1.6100   58.4280 N.pl3 174  ARG174      0.1354
     27  N         21.3470  -11.5190   61.6020 N.3   254  TRP254     -0.1227
     28  CA        20.9040  -10.1090   61.6960 C.3   254  TRP254      0.1737
     29  C         20.0530   -9.9090   62.9690 C.2   254  TRP254      0.2595
     30  O         19.5350  -10.8540   63.5240 O.2   254  TRP254     -0.2718
     31  CB        20.1050   -9.6890   60.4600 C.3   254  TRP254      0.0564
     32  CG        20.1570   -8.2190   60.1670 C.ar  254  TRP254      0.0003
     33  CD1       19.1460   -7.3390   60.2930 C.ar  254  TRP254      0.0946
     34  CD2       21.2970   -7.4720   59.6810 C.ar  254  TRP254      0.0152
     35  NE1       19.5830   -6.0560   59.9240 N.ar  254  TRP254     -0.2442
     36  CE2       20.8910   -6.1260   59.5350 C.ar  254  TRP254      0.0810
     37  CE3       22.6160   -7.8140   59.3740 C.ar  254  TRP254      0.0012
     38  CZ2       21.7530   -5.1170   59.1030 C.ar  254  TRP254      0.0191
     39  CZ3       23.4810   -6.8120   58.9170 C.ar  254  TRP254      0.0001
     40  CH2       23.0420   -5.4790   58.7720 C.ar  254  TRP254      0.0015
     41  N         19.9310   -8.6840   63.4300 N.am  255  TYR255     -0.1976
     42  CA        19.0790   -8.3600   64.5180 C.3   255  TYR255      0.1639
     43  C         17.6290   -8.2210   64.0750 C.2   255  TYR255      0.2290
     44  O         17.3550   -7.8580   62.9380 O.2   255  TYR255     -0.2864
     45  CB        19.5670   -7.0960   65.1460 C.3   255  TYR255      0.0560
     46  CG        19.7000   -5.9410   64.2160 C.ar  255  TYR255     -0.0198
     47  CD1       18.6530   -5.0340   64.0720 C.ar  255  TYR255     -0.0009
     48  CD2       20.8980   -5.7070   63.5130 C.ar  255  TYR255     -0.0009
     49  CE1       18.7840   -3.9260   63.2750 C.ar  255  TYR255      0.0417
     50  CE2       21.0390   -4.5970   62.6890 C.ar  255  TYR255      0.0417
     51  CZ        19.9820   -3.7120   62.5720 C.ar  255  TYR255      0.1957
     52  OH        20.0640   -2.6020   61.7420 O.3   255  TYR255     -0.2866
     53  N         14.4370   -3.2640   63.8390 N.3   258  PRO258     -0.2102
     54  CA        14.8710   -2.0570   63.1900 C.3   258  PRO258      0.1504
     55  C         14.2870   -0.8580   63.9080 C.2   258  PRO258      0.2576
     56  O         13.0430   -0.7650   64.0290 O.2   258  PRO258     -0.2718
     57  CB        14.2440   -2.1650   61.7790 C.3   258  PRO258      0.0282
     58  CG        13.0540   -3.1850   61.9250 C.3   258  PRO258      0.0208
     59  CD        13.1510   -3.7830   63.3040 C.3   258  PRO258      0.0893
     60  N         15.1340    0.0540   64.3790 N.am  259  ALA259     -0.1966
     61  CA        14.6440    1.1860   65.2100 C.3   259  ALA259      0.1728
     62  C         15.4430    2.4480   64.9040 C.2   259  ALA259      0.2616
     63  O         16.6080    2.5980   65.3780 O.2   259  ALA259     -0.2715
     64  CB        14.7240    0.8440   66.6960 C.3   259  ALA259      0.0334
     65  N         14.8620    3.2920   64.0310 N.am  260  VAL260     -0.1977
     66  CA        15.5560    4.4500   63.5230 C.3   260  VAL260      0.1596
     67  C         15.5920    5.4490   64.6770 C.2   260  VAL260      0.2287
     68  O         14.5520    5.6780   65.3080 O.2   260  VAL260     -0.2864
     69  CB        14.8830    5.0180   62.2960 C.3   260  VAL260      0.0276
     70  CG1       15.3790    6.4810   61.9770 C.3   260  VAL260      0.0022
     71  CG2       15.1190    4.0470   61.0380 C.3   260  VAL260      0.0022
     72  N         12.1220    5.1820   66.8890 N.3   277  PHE277     -0.1227
     73  CA        10.8790    4.4100   66.6070 C.3   277  PHE277      0.1736
     74  C         11.2520    3.1250   65.9110 C.2   277  PHE277      0.2596
     75  O         12.2560    3.0560   65.2220 O.2   277  PHE277     -0.2718
     76  CB         9.9160    5.2380   65.7510 C.3   277  PHE277      0.0547
     77  CG        10.5880    5.8860   64.5150 C.ar  277  PHE277     -0.0202
     78  CD1       10.5860    5.2490   63.2700 C.ar  277  PHE277     -0.0042
     79  CD2       11.1420    7.1540   64.5890 C.ar  277  PHE277     -0.0042
     80  CE1       11.1750    5.8470   62.1590 C.ar  277  PHE277     -0.0003
     81  CE2       11.7130    7.7390   63.4770 C.ar  277  PHE277     -0.0003
     82  CZ        11.7330    7.0860   62.2700 C.ar  277  PHE277     -0.0000
     83  N         10.3960    2.1330   66.0120 N.am  278  SER278     -0.1938
     84  CA        10.7130    0.8280   65.5390 C.3   278  SER278      0.2055
     85  C          9.4590    0.2050   64.9870 C.2   278  SER278      0.2644
     86  O          8.3560    0.5260   65.4240 O.2   278  SER278     -0.2714
     87  CB        11.2440   -0.0340   66.7010 C.3   278  SER278      0.2130
     88  OG        10.3850    0.0280   67.8510 O.3   278  SER278     -0.2179
     89  N          9.6150   -0.6700   63.9920 N.am  279  GLY279     -0.1939
     90  CA         8.5020   -1.5050   63.6050 C.3   279  GLY279      0.2014
     91  C          9.0970   -2.8560   63.3830 C.2   279  GLY279      0.2639
     92  O          9.6580   -3.4170   64.3020 O.2   279  GLY279     -0.2714
     93  N          8.9990   -3.3840   62.1680 N.am  280  TRP280     -0.1959
     94  CA         9.7090   -4.6360   61.8620 C.3   280  TRP280      0.1771
     95  C         10.1890   -4.6390   60.4150 C.2   280  TRP280      0.2620
     96  O          9.7930   -3.7830   59.6110 O.2   280  TRP280     -0.2715
     97  CB         8.8340   -5.8430   62.0960 C.3   280  TRP280      0.0590
     98  CG         7.4770   -5.7780   61.4350 C.ar  280  TRP280      0.0006
     99  CD1        7.1800   -6.0630   60.1260 C.ar  280  TRP280      0.0946
    100  CD2        6.2230   -5.4200   62.0550 C.ar  280  TRP280      0.0152
    101  NE1        5.8190   -5.9330   59.9070 N.ar  280  TRP280     -0.2442
    102  CE2        5.2120   -5.5280   61.0670 C.ar  280  TRP280      0.0810
    103  CE3        5.8520   -5.0350   63.3480 C.ar  280  TRP280      0.0012
    104  CZ2        3.8360   -5.2820   61.3500 C.ar  280  TRP280      0.0191
    105  CZ3        4.4630   -4.7880   63.6280 C.ar  280  TRP280      0.0001
    106  CH2        3.4910   -4.9260   62.6350 C.ar  280  TRP280      0.0015
    107  N         11.0060   -5.6260   60.0720 N.am  281  TYR281     -0.1960
    108  CA        11.6610   -5.5900   58.7710 C.3   281  TYR281      0.1771
    109  C         10.7770   -6.1300   57.6880 C.2   281  TYR281      0.2619
    110  O          9.9930   -7.0970   57.9010 O.2   281  TYR281     -0.2715
    111  CB        12.8940   -6.4430   58.7850 C.3   281  TYR281      0.0574
    112  CG        14.1340   -5.7400   59.2480 C.ar  281  TYR281     -0.0198
    113  CD1       14.7420   -6.0690   60.4580 C.ar  281  TYR281     -0.0009
    114  CD2       14.7390   -4.7670   58.4500 C.ar  281  TYR281     -0.0009
    115  CE1       15.8950   -5.4350   60.8510 C.ar  281  TYR281      0.0417
    116  CE2       15.8930   -4.1600   58.8320 C.ar  281  TYR281      0.0417
    117  CZ        16.4650   -4.4860   60.0310 C.ar  281  TYR281      0.1957
    118  OH        17.6230   -3.8460   60.3790 O.3   281  TYR281     -0.2866
    119  N         10.9180   -5.4880   56.5180 N.am  282  MET282     -0.1977
    120  CA        10.5830   -6.1040   55.2550 C.3   282  MET282      0.1605
    121  C         11.8720   -6.7920   54.8320 C.2   282  MET282      0.2287
    122  O         12.9600   -6.2000   54.9390 O.2   282  MET282     -0.2864
    123  CB        10.1930   -5.0170   54.2560 C.3   282  MET282      0.0413
    124  CG         9.9270   -5.5520   52.8160 C.3   282  MET282      0.0598
    125  SD         8.9670   -4.4020   51.7990 S.3   282  MET282     -0.1393
    126  CE        10.3200   -3.3450   51.2110 C.3   282  MET282      0.0692
    127  N         15.0260   -5.3210   53.0340 N.3   285  GLU285     -0.1245
    128  CA        15.9180   -4.3800   53.6990 C.3   285  GLU285      0.1567
    129  C         17.2430   -5.0340   54.0810 C.2   285  GLU285      0.2260
    130  O         18.2870   -4.4150   53.9140 O.2   285  GLU285     -0.2867
    131  CB        15.2730   -3.7510   54.9050 C.3   285  GLU285      0.0388
    132  CG        13.9990   -2.9220   54.6080 C.3   285  GLU285      0.1160
    133  CD        13.4360   -2.4050   55.9330 C.2   285  GLU285      0.3649
    134  OE1       13.8570   -1.3180   56.3980 O.co2 285  GLU285     -0.2457
    135  OE2       12.5480   -3.0700   56.4980 O.co2 285  GLU285     -0.2457
    136  N         19.5360   -4.8750   50.5040 N.3   289  ARG289     -0.1231
    137  CA        20.3280   -3.6850   50.7990 C.3   289  ARG289      0.1694
    138  C         21.4580   -3.9920   51.8190 C.2   289  ARG289      0.2592
    139  O         22.6080   -3.7090   51.5530 O.2   289  ARG289     -0.2718
    140  CB        19.4530   -2.4960   51.3040 C.3   289  ARG289      0.0321
    141  CG        18.2060   -2.0600   50.4380 C.3   289  ARG289      0.0489
    142  CD        18.5000   -1.5870   48.9620 C.3   289  ARG289      0.2205
    143  NE        19.6490   -0.7080   48.9290 N.pl3 289  ARG289     -0.0865
    144  CZ        19.6090    0.5560   49.3460 C.cat 289  ARG289      0.5346
    145  NH1       18.4510    1.0840   49.7550 N.pl3 289  ARG289      0.1354
    146  NH2       20.7140    1.2930   49.3520 N.pl3 289  ARG289      0.1354
    147  N         21.1310   -4.5640   52.9730 N.am  290  ASP290     -0.1974
    148  CA        22.1330   -4.6860   54.0190 C.3   290  ASP290      0.1709
    149  C         23.2200   -5.7220   53.6600 C.2   290  ASP290      0.2293
    150  O         24.4120   -5.5080   53.9690 O.2   290  ASP290     -0.2864
    151  CB        21.4990   -4.9380   55.4030 C.3   290  ASP290      0.1436
    152  CG        20.5400   -3.7950   55.8210 C.2   290  ASP290      0.3671
    153  OD1       20.6640   -2.6350   55.3560 O.co2 290  ASP290     -0.2456
    154  OD2       19.6490   -4.0370   56.6400 O.co2 290  ASP290     -0.2456
    155  N         27.7320   -2.1670   51.6940 N.3   296  ARG296     -0.1245
    156  CA        27.3290   -2.8040   52.9630 C.3   296  ARG296      0.1563
    157  C         28.0810   -4.1360   53.1010 C.2   296  ARG296      0.2260
    158  O         29.2840   -4.1740   52.8530 O.2   296  ARG296     -0.2867
    159  CB        25.8080   -2.9260   53.0650 C.3   296  ARG296      0.0307
    160  CG        25.0560   -1.5670   52.8590 C.3   296  ARG296      0.0489
    161  CD        25.2150   -0.6160   54.0240 C.3   296  ARG296      0.2205
    162  NE        24.8050   -1.1990   55.3210 N.pl3 296  ARG296     -0.0865
    163  CZ        23.5430   -1.1940   55.7690 C.cat 296  ARG296      0.5346
    164  NH1       22.5540   -0.6250   55.0510 N.pl3 296  ARG296      0.1354
    165  NH2       23.2580   -1.7040   56.9580 N.pl3 296  ARG296      0.1354
@<TRIPOS>BOND
     1   143   142    1
     2   143   144    2
     3   142   141    1
     4   144   146    1
     5   144   145    1
     6   141   140    1
     7   136   137    1
     8   137   140    1
     9   137   138    1
    10   126   125    1
    11   139   138    2
    12   155   156    1
    13   125   124    1
    14   138   147   am
    15   124   123    1
    16   158   157    2
    17   160   159    1
    18   160   161    1
    19   156   159    1
    20   156   157    1
    21   147   148    1
    22   127   128    1
    23     1     2    1
    24   149   150    2
    25   149   148    1
    26   128   129    1
    27   128   131    1
    28     4     3    2
    29     3     2    1
    30   130   129    2
    31   148   151    1
    32   161   162    1
    33   123   120    1
    34     2     5    1
    35   132   131    1
    36   132   133    1
    37   121   122    2
    38   121   120    1
    39   164   163    1
    40   120   119    1
    41   162   163    2
    42   153   152   ar
    43   151   152    1
    44   163   165    1
    45   152   154   ar
    46     5     6    1
    47   133   134   ar
    48   133   135   ar
    49   119   109   am
    50   109   110    2
    51   109   108    1
    52    26    24    1
    53   114   116   ar
    54   114   112   ar
    55   108   111    1
    56   108   107    1
    57    40    39   ar
    58    40    38   ar
    59   111   112    1
    60   116   117   ar
    61    39    37   ar
    62    38    36   ar
    63   112   113   ar
    64    37    34   ar
    65    36    34   ar
    66    36    35   ar
    67    24    25    1
    68    24    23    2
    69    96    95    2
    70    34    32   ar
    71   101    99   ar
    72   101   102   ar
    73    35    33   ar
    74   117   118    1
    75   117   115   ar
    76   107    95   am
    77    99    98   ar
    78    32    33   ar
    79    32    31    1
    80    15    13   am
    81    95    94    1
    82   113   115   ar
    83    31    28    1
    84    23    22    1
    85    71    69    1
    86   102   104   ar
    87   102   100   ar
    88   104   106   ar
    89    98   100   ar
    90    98    97    1
    91    13    14    2
    92    13    12    1
    93    27    28    1
    94    28    29    1
    95    52    51    1
    96    57    58    1
    97    57    54    1
    98    94    97    1
    99    94    93    1
   100    22    21    1
   101    58    59    1
   102    70    69    1
   103   100   103   ar
   104    80    82   ar
   105    80    78   ar
   106    93    91   am
   107    82    81   ar
   108    69    66    1
   109    12    11    1
   110    21    20    1
   111    51    50   ar
   112    51    49   ar
   113   106   105   ar
   114    50    48   ar
   115    44    43    2
   116    29    41   am
   117    29    30    2
   118    54    53    1
   119    54    55    1
   120    78    77   ar
   121    49    47   ar
   122    59    53    1
   123   103   105   ar
   124    91    90    1
   125    91    92    2
   126    41    42    1
   127    81    79   ar
   128    48    46   ar
   129    66    65    1
   130    66    67    1
   131    90    89    1
   132    11     8    1
   133    55    56    2
   134    55    60   am
   135    89    85   am
   136    20    17    1
   137    65    62   am
   138    47    46   ar
   139    43    42    1
   140    46    45    1
   141     7     8    1
   142    60    61    1
   143    77    79   ar
   144    77    76    1
   145    42    45    1
   146    17    18    1
   147    17    16    1
   148    67    68    2
   149     8     9    1
   150    18    19    2
   151    62    61    1
   152    62    63    2
   153    85    86    2
   154    85    84    1
   155    61    64    1
   156    75    74    2
   157    84    83    1
   158    84    87    1
   159    76    73    1
   160    74    83   am
   161    74    73    1
   162     9    10    2
   163    73    72    1
   164    87    88    1
