@<TRIPOS>MOLECULE
tmp/3jtcB00.pdb
 81 77 0 0 0
SMALL
GASTEIGER

@<TRIPOS>ATOM
      1  N         21.4420   27.9950   51.1200 N.3     5  HIS5       -0.1226
      2  CA        21.6550   27.8770   52.5660 C.3     5  HIS5        0.1752
      3  C         22.1480   29.2410   53.0980 C.2     5  HIS5        0.2596
      4  O         22.8800   29.9590   52.4020 O.2     5  HIS5       -0.2718
      5  CB        22.6540   26.7510   52.9070 C.3     5  HIS5        0.0759
      6  CG        22.1240   25.3440   52.7250 C.ar    5  HIS5        0.0818
      7  ND1       22.8540   24.2350   53.1100 N.ar    5  HIS5       -0.2268
      8  CD2       20.9680   24.8700   52.1990 C.ar    5  HIS5        0.1154
      9  CE1       22.1540   23.1350   52.8550 C.ar    5  HIS5        0.1986
     10  NE2       20.9890   23.4980   52.3180 N.ar    5  HIS5       -0.2212
     11  N         21.6990   29.6000   54.2910 N.am    6  MET6       -0.1965
     12  CA        22.0840   30.8110   54.9770 C.3     6  MET6        0.1736
     13  C         22.5130   30.4470   56.4160 C.2     6  MET6        0.2616
     14  O         21.8690   29.6590   57.1140 O.2     6  MET6       -0.2715
     15  CB        20.8940   31.7970   54.9820 C.3     6  MET6        0.0427
     16  CG        20.6610   32.3130   53.5600 C.3     6  MET6        0.0599
     17  SD        18.8900   32.9000   53.3990 S.3     6  MET6       -0.1393
     18  CE        18.0600   31.3460   53.3070 C.3     6  MET6        0.0692
     19  N         23.5890   31.0880   56.8870 N.am    7  LEU7       -0.1977
     20  CA        24.0730   30.9390   58.2230 C.3     7  LEU7        0.1596
     21  C         24.2060   32.3160   58.8370 C.2     7  LEU7        0.2287
     22  O         24.7640   33.2630   58.1860 O.2     7  LEU7       -0.2864
     23  CB        25.4840   30.2300   58.2510 C.3     7  LEU7        0.0297
     24  CG        25.8880   29.9340   59.6710 C.3     7  LEU7        0.0022
     25  CD1       25.0370   28.9050   60.4420 C.3     7  LEU7        0.0001
     26  CD2       27.3700   29.5070   59.6930 C.3     7  LEU7        0.0001
     27  N         25.4070   34.1040   62.5080 N.3     9  ILE9       -0.1245
     28  CA        25.9030   34.0170   63.8900 C.3     9  ILE9        0.1561
     29  C         25.7450   35.3690   64.5110 C.2     9  ILE9        0.2260
     30  O         26.1580   36.3840   63.9330 O.2     9  ILE9       -0.2867
     31  CB        27.4270   33.6050   63.8990 C.3     9  ILE9        0.0252
     32  CG1       27.5560   32.3660   63.0250 C.3     9  ILE9        0.0019
     33  CG2       27.7830   33.3230   65.2990 C.3     9  ILE9        0.0019
     34  CD1       28.9460   32.2090   62.3400 C.3     9  ILE9        0.0001
     35  N         27.6900   37.9910   62.0910 N.3    21  GLN21      -0.1245
     36  CA        28.6110   37.3590   61.0630 C.3    21  GLN21       0.1566
     37  C         27.7560   36.3020   60.3420 C.2    21  GLN21       0.2260
     38  O         27.2620   35.3920   60.9980 O.2    21  GLN21      -0.2867
     39  CB        29.8510   36.7050   61.7560 C.3    21  GLN21       0.0367
     40  CG        30.8040   35.7770   60.8270 C.3    21  GLN21       0.0905
     41  CD        31.5360   34.5460   61.5440 C.2    21  GLN21       0.2608
     42  OE1       31.5170   34.3560   62.7760 O.2    21  GLN21      -0.2717
     43  NE2       32.1270   33.6940   60.7220 N.am   21  GLN21      -0.0878
     44  N         26.5580   34.4140   56.2400 N.3    23  ASN23      -0.1225
     45  CA        26.8830   34.1230   54.8300 C.3    23  ASN23       0.1785
     46  C         25.8860   33.2160   54.2130 C.2    23  ASN23       0.2597
     47  O         25.1730   32.4650   54.9490 O.2    23  ASN23      -0.2718
     48  CB        28.3700   33.5860   54.6880 C.3    23  ASN23       0.1169
     49  CG        28.7360   32.5560   55.7110 C.2    23  ASN23       0.2627
     50  OD1       28.7990   32.8570   56.9120 O.2    23  ASN23      -0.2716
     51  ND2       28.9280   31.2670   55.2600 N.am   23  ASN23      -0.0877
     52  N         25.7530   33.3190   52.8840 N.am   24  ALA24      -0.1966
     53  CA        24.8660   32.3540   52.1890 C.3    24  ALA24       0.1728
     54  C         25.6080   31.6710   51.0630 C.2    24  ALA24       0.2616
     55  O         26.4950   32.2470   50.5340 O.2    24  ALA24      -0.2715
     56  CB        23.6430   33.0670   51.5880 C.3    24  ALA24       0.0334
     57  N         25.2070   30.4240   50.7350 N.am   25  SER25      -0.1950
     58  CA        25.7710   29.7070   49.5660 C.3    25  SER25       0.1924
     59  C         24.5860   29.2420   48.7180 C.2    25  SER25       0.2314
     60  O         23.6030   28.7360   49.2370 O.2    25  SER25      -0.2863
     61  CB        26.6260   28.5340   50.0200 C.3    25  SER25       0.2116
     62  OG        27.7680   29.0110   50.7050 O.3    25  SER25      -0.2180
     63  N         29.7070   30.0270   47.8960 N.3    30  LEU30      -0.1301
     64  CA        29.4730   31.1690   48.7960 C.3    30  LEU30       0.1247
     65  C         29.1820   32.4930   48.0070 C.3    30  LEU30       0.2009
     66  O         30.1290   33.0250   47.3040 O.3    30  LEU30      -0.2188
     67  CB        30.6200   31.3400   49.8520 C.3    30  LEU30       0.0217
     68  CG        30.1930   32.0220   51.1800 C.3    30  LEU30       0.0015
     69  CD1       31.0240   31.6340   52.3500 C.3    30  LEU30       0.0000
     70  CD2       30.2640   33.5100   50.9400 C.3    30  LEU30       0.0000
     71  N         20.6150   28.6380   61.2050 N.3    91  PHE91      -0.1241
     72  CA        20.9800   27.9640   59.9690 C.3    91  PHE91       0.1605
     73  C         19.6530   27.5830   59.2420 C.2    91  PHE91       0.2264
     74  O         18.8130   26.8710   59.8130 O.2    91  PHE91      -0.2867
     75  CB        21.7170   26.6550   60.3240 C.3    91  PHE91       0.0534
     76  CG        22.0520   25.7700   59.1520 C.ar   91  PHE91      -0.0203
     77  CD1       22.6880   26.3000   58.0220 C.ar   91  PHE91      -0.0042
     78  CD2       21.7070   24.4710   59.1490 C.ar   91  PHE91      -0.0042
     79  CE1       23.0430   25.4510   56.8910 C.ar   91  PHE91      -0.0003
     80  CE2       22.0590   23.5620   58.0480 C.ar   91  PHE91      -0.0003
     81  CZ        22.7000   24.0800   56.9270 C.ar   91  PHE91      -0.0000
@<TRIPOS>BOND
     1    66    65    1
     2    63    64    1
     3    65    64    1
     4    59    60    2
     5    59    58    1
     6    64    67    1
     7    58    61    1
     8    58    57    1
     9    67    68    1
    10    61    62    1
    11    55    54    2
    12    57    54   am
    13    70    68    1
    14    54    53    1
    15     1     2    1
    16    68    69    1
    17    56    53    1
    18    53    52    1
    19     8    10   ar
    20     8     6   ar
    21    10     9   ar
    22     4     3    2
    23     2     5    1
    24     2     3    1
    25     6     5    1
    26     6     7   ar
    27     9     7   ar
    28    52    46   am
    29     3    11   am
    30    18    17    1
    31    17    16    1
    32    16    15    1
    33    46    45    1
    34    46    47    2
    35    11    12    1
    36    48    45    1
    37    48    49    1
    38    45    44    1
    39    12    15    1
    40    12    13    1
    41    51    49   am
    42    49    50    2
    43    13    19   am
    44    13    14    2
    45    19    20    1
    46    79    81   ar
    47    79    77   ar
    48    81    80   ar
    49    77    76   ar
    50    80    78   ar
    51    22    21    2
    52    20    23    1
    53    20    21    1
    54    23    24    1
    55    78    76   ar
    56    76    75    1
    57    73    74    2
    58    73    72    1
    59    24    26    1
    60    24    25    1
    61    72    75    1
    62    72    71    1
    63    37    38    2
    64    37    36    1
    65    43    41   am
    66    40    41    1
    67    40    39    1
    68    36    39    1
    69    36    35    1
    70    41    42    2
    71    34    32    1
    72    27    28    1
    73    32    31    1
    74    28    31    1
    75    28    29    1
    76    31    33    1
    77    30    29    2
