@<TRIPOS>MOLECULE
tmp/3jtfB00.pdb
 116 111 0 0 0
SMALL
GASTEIGER

@<TRIPOS>ATOM
      1  N          5.8520   27.2890   46.3850 N.3     8  VAL8       -0.1245
      2  CA         6.8770   27.5290   47.4030 C.3     8  VAL8        0.1561
      3  C          6.1810   28.0260   48.6900 C.2     8  VAL8        0.2260
      4  O          5.5690   29.0530   48.6840 O.2     8  VAL8       -0.2867
      5  CB         7.8830   28.5850   46.9310 C.3     8  VAL8        0.0252
      6  CG1        8.9390   28.9100   48.0310 C.3     8  VAL8        0.0019
      7  CG2        8.5410   28.1200   45.6400 C.3     8  VAL8        0.0019
      8  N          9.5830   29.5740   53.0410 N.3    12  ARG12      -0.1245
      9  CA        10.7150   29.4310   52.1210 C.3    12  ARG12       0.1563
     10  C         10.8720   30.6010   51.1450 C.2    12  ARG12       0.2260
     11  O         11.7960   30.6160   50.3270 O.2    12  ARG12      -0.2867
     12  CB        10.5830   28.1470   51.2860 C.3    12  ARG12       0.0307
     13  CG        10.7680   26.8360   52.0260 C.3    12  ARG12       0.0489
     14  CD        11.3660   25.7370   51.0630 C.3    12  ARG12       0.2205
     15  NE        10.7210   24.4590   51.3140 N.pl3  12  ARG12      -0.0865
     16  CZ        10.0340   23.7610   50.4210 C.cat  12  ARG12       0.5346
     17  NH1        9.9230   24.1720   49.1530 N.pl3  12  ARG12       0.1354
     18  NH2        9.4630   22.6290   50.8020 N.pl3  12  ARG12       0.1354
     19  N         12.0180   33.9930   49.5420 N.3    13  ASP13      -0.1239
     20  CA        13.0340   35.0070   49.6470 C.3    13  ASP13       0.1674
     21  C         12.3400   36.3340   49.3720 C.2    13  ASP13       0.2266
     22  O         11.8720   36.5930   48.2350 O.2    13  ASP13      -0.2867
     23  CB        14.1740   34.7830   48.6360 C.3    13  ASP13       0.1410
     24  CG        15.0180   33.5730   48.9680 C.2    13  ASP13       0.3668
     25  OD1       15.3130   33.3720   50.1560 O.co2  13  ASP13      -0.2456
     26  OD2       15.3810   32.7970   48.0550 O.co2  13  ASP13      -0.2456
     27  N         19.9340   32.9640   44.3500 N.3    32  ALA32      -0.1231
     28  CA        19.7560   32.7460   42.9320 C.3    32  ALA32       0.1694
     29  C         18.2520   32.8050   42.5530 C.2    32  ALA32       0.2592
     30  O         17.6740   31.7570   42.1540 O.2    32  ALA32      -0.2718
     31  CB        20.3940   31.3800   42.5310 C.3    32  ALA32       0.0304
     32  N         17.6180   33.9870   42.7020 N.am   33  HIS33      -0.1962
     33  CA        16.3010   34.2730   42.0980 C.3    33  HIS33       0.1787
     34  C         16.3300   35.6270   41.4150 C.2    33  HIS33       0.2621
     35  O         17.1110   36.4730   41.7780 O.2    33  HIS33      -0.2715
     36  CB        15.1790   34.2460   43.1270 C.3    33  HIS33       0.0785
     37  CG        15.0160   32.9220   43.7870 C.ar   33  HIS33       0.0821
     38  ND1       14.7950   31.7610   43.0800 N.ar   33  HIS33      -0.2267
     39  CD2       15.1020   32.5620   45.0880 C.ar   33  HIS33       0.1154
     40  CE1       14.7290   30.7430   43.9270 C.ar   33  HIS33       0.1986
     41  NE2       14.9110   31.2060   45.1530 N.ar   33  HIS33      -0.2212
     42  N         15.4940   35.8020   40.4110 N.am   34  SER34      -0.1936
     43  CA        15.4110   37.0530   39.6610 C.3    34  SER34       0.2055
     44  C         14.3240   37.9940   40.2020 C.2    34  SER34       0.2643
     45  O         14.3580   39.1790   39.9200 O.2    34  SER34      -0.2714
     46  CB        15.1130   36.7720   38.1850 C.3    34  SER34       0.2130
     47  OG        13.9670   35.9010   38.0570 O.3    34  SER34      -0.2179
     48  N         13.3500   37.4530   40.9200 N.am   35  ARG35      -0.1963
     49  CA        12.1770   38.2030   41.3570 C.3    35  ARG35       0.1729
     50  C         11.8970   37.9910   42.8540 C.2    35  ARG35       0.2616
     51  O         12.0140   36.8820   43.3510 O.2    35  ARG35      -0.2715
     52  CB        10.9590   37.7540   40.5720 C.3    35  ARG35       0.0348
     53  CG        11.0620   37.9180   39.0450 C.3    35  ARG35       0.0492
     54  CD        10.1030   36.9600   38.3610 C.3    35  ARG35       0.2205
     55  NE        10.5900   35.5990   38.5530 N.pl3  35  ARG35      -0.0865
     56  CZ        10.1490   34.5340   37.9120 C.cat  35  ARG35       0.5346
     57  NH1       10.6840   33.3620   38.1790 N.pl3  35  ARG35       0.1354
     58  NH2        9.1890   34.6400   36.9950 N.pl3  35  ARG35       0.1354
     59  N         11.5120   39.0540   43.5460 N.am   36  PHE36      -0.1960
     60  CA        11.3370   39.0350   45.0010 C.3    36  PHE36       0.1756
     61  C         10.0610   39.7320   45.3670 C.2    36  PHE36       0.2461
     62  O          9.8680   40.8940   45.0000 O.2    36  PHE36      -0.2730
     63  CB        12.5190   39.7150   45.6810 C.3    36  PHE36       0.0574
     64  CG        13.8270   39.1050   45.3200 C.ar   36  PHE36      -0.0200
     65  CD1       14.4830   39.4880   44.1520 C.ar   36  PHE36      -0.0042
     66  CD2       14.3720   38.1080   46.1060 C.ar   36  PHE36      -0.0042
     67  CE1       15.6530   38.9000   43.7760 C.ar   36  PHE36      -0.0003
     68  CE2       15.5600   37.5200   45.7690 C.ar   36  PHE36      -0.0003
     69  CZ        16.2160   37.9010   44.5820 C.ar   36  PHE36      -0.0000
     70  N          9.1670   39.0340   46.0740 N.am   37  PRO37      -0.2727
     71  CA         8.1460   39.7990   46.7780 C.3    37  PRO37       0.1402
     72  C          8.7640   40.7780   47.7680 C.2    37  PRO37       0.2269
     73  O          9.7480   40.4580   48.4060 O.2    37  PRO37      -0.2865
     74  CB         7.3180   38.7360   47.5120 C.3    37  PRO37       0.0296
     75  CG         7.7120   37.4200   46.8850 C.3    37  PRO37       0.0237
     76  CD         9.1500   37.6220   46.4720 C.3    37  PRO37       0.0939
     77  N          5.3190   35.1800   38.0270 N.3    95  LEU95      -0.1245
     78  CA         5.3910   34.8800   39.4580 C.3    95  LEU95       0.1561
     79  C          4.1350   35.4270   40.0940 C.2    95  LEU95       0.2260
     80  O          3.7610   36.5880   39.8420 O.2    95  LEU95      -0.2867
     81  CB         6.6280   35.5320   40.0850 C.3    95  LEU95       0.0270
     82  CG         6.8840   35.1420   41.5590 C.3    95  LEU95       0.0019
     83  CD1        8.3660   35.0300   41.9570 C.3    95  LEU95       0.0001
     84  CD2        6.1910   36.1300   42.4700 C.3    95  LEU95       0.0001
     85  N          4.3380   31.3260   47.1730 N.3   108  LEU108     -0.1245
     86  CA         4.5000   31.8900   45.8480 C.3   108  LEU108      0.1561
     87  C          4.6360   30.7500   44.8350 C.2   108  LEU108      0.2260
     88  O          4.9160   29.6090   45.1790 O.2   108  LEU108     -0.2867
     89  CB         5.6600   32.9040   45.7890 C.3   108  LEU108      0.0270
     90  CG         7.1160   32.4420   45.8390 C.3   108  LEU108      0.0019
     91  CD1        7.5470   31.7380   44.5610 C.3   108  LEU108      0.0001
     92  CD2        8.0440   33.6400   46.1350 C.3   108  LEU108      0.0001
     93  N          5.5490   30.0420   40.4180 N.3   110  THR110     -0.1218
     94  CA         6.0180   30.5280   39.1140 C.3   110  THR110      0.1862
     95  C          5.5940   29.6130   37.9720 C.2   110  THR110      0.2287
     96  O          5.1950   28.4650   38.1890 O.2   110  THR110     -0.2866
     97  CB         7.5620   30.7090   39.0330 C.3   110  THR110      0.1770
     98  OG1        8.2180   29.4370   38.9450 O.3   110  THR110     -0.2211
     99  CG2        8.1340   31.5450   40.2280 C.3   110  THR110      0.0375
    100  N          7.4080   28.1880   35.8040 N.3   111  GLU111     -0.1231
    101  CA         8.2790   27.0160   35.7940 C.3   111  GLU111      0.1699
    102  C          7.7650   25.9050   36.6800 C.2   111  GLU111      0.2592
    103  O          7.7410   24.7490   36.2380 O.2   111  GLU111     -0.2718
    104  CB         9.7120   27.3980   36.2010 C.3   111  GLU111      0.0402
    105  CG        10.7670   26.2670   36.1180 C.3   111  GLU111      0.1161
    106  CD        12.1300   26.7000   36.7880 C.2   111  GLU111      0.3649
    107  OE1       12.7240   27.6970   36.3050 O.co2 111  GLU111     -0.2457
    108  OE2       12.5880   26.0850   37.7970 O.co2 111  GLU111     -0.2457
    109  N          7.3380   26.2420   37.9050 N.am  112  ASP112     -0.1974
    110  CA         6.7480   25.2560   38.8240 C.3   112  ASP112      0.1709
    111  C          5.5190   24.5820   38.1900 C.2   112  ASP112      0.2293
    112  O          5.3120   23.3970   38.3280 O.2   112  ASP112     -0.2864
    113  CB         6.2960   25.8790   40.1540 C.3   112  ASP112      0.1436
    114  CG         7.4390   26.5110   40.9530 C.2   112  ASP112      0.3671
    115  OD1        8.5330   25.9180   41.0040 O.co2 112  ASP112     -0.2456
    116  OD2        7.2170   27.6270   41.4970 O.co2 112  ASP112     -0.2456
@<TRIPOS>BOND
     1   101   100    1
     2   101   104    1
     3   101   102    1
     4   105   104    1
     5   105   106    1
     6   103   102    2
     7   107   106   ar
     8   102   109   am
     9   106   108   ar
    10    58    56    1
    11   109   110    1
    12    56    57    1
    13    56    55    2
    14    95    96    2
    15    95    94    1
    16    77    78    1
    17    47    46    1
    18    46    43    1
    19   111   112    2
    20   111   110    1
    21    54    55    1
    22    54    53    1
    23   110   113    1
    24    98    97    1
    25    97    94    1
    26    97    99    1
    27    53    52    1
    28    94    93    1
    29    78    81    1
    30    78    79    1
    31    43    44    1
    32    43    42    1
    33    80    79    2
    34    45    44    2
    35    81    82    1
    36   113   114    1
    37    44    48   am
    38    42    34   am
    39    52    49    1
    40    48    49    1
    41   114   115   ar
    42   114   116   ar
    43    49    50    1
    44    34    35    2
    45    34    33    1
    46    82    83    1
    47    82    84    1
    48    33    32    1
    49    33    36    1
    50    30    29    2
    51    31    28    1
    52    29    32   am
    53    29    28    1
    54    50    51    2
    55    50    59   am
    56    28    27    1
    57    38    37   ar
    58    38    40   ar
    59    36    37    1
    60    59    60    1
    61    67    65   ar
    62    67    69   ar
    63    37    39   ar
    64    40    41   ar
    65    65    64   ar
    66    91    90    1
    67    69    68   ar
    68    87    88    2
    69    87    86    1
    70    62    61    2
    71    60    61    1
    72    60    63    1
    73    39    41   ar
    74    64    63    1
    75    64    66   ar
    76    61    70   am
    77     7     5    1
    78    68    66   ar
    79    89    90    1
    80    89    86    1
    81    90    92    1
    82    86    85    1
    83    70    76    1
    84    70    71    1
    85     1     2    1
    86    76    75    1
    87    71    74    1
    88    71    72    1
    89    75    74    1
    90     5     2    1
    91     5     6    1
    92     2     3    1
    93    72    73    2
    94    26    24   ar
    95    22    21    2
    96    23    24    1
    97    23    20    1
    98     4     3    2
    99    24    25   ar
   100    17    16    1
   101    21    20    1
   102    19    20    1
   103    11    10    2
   104    16    18    1
   105    16    15    2
   106    14    15    1
   107    14    13    1
   108    10     9    1
   109    12    13    1
   110    12     9    1
   111     9     8    1
