@<TRIPOS>MOLECULE
tmp/3jtiA00.pdb
 204 205 0 0 0
SMALL
GASTEIGER

@<TRIPOS>ATOM
      1  N        -22.4690    7.6100   10.0540 N.3     1  ASN1       -0.1225
      2  CA       -21.1270    8.1830   10.4420 C.3     1  ASN1        0.1785
      3  C        -20.0630    7.7370    9.4480 C.2     1  ASN1        0.2597
      4  O        -20.3480    6.9140    8.5430 O.2     1  ASN1       -0.2718
      5  CB       -20.7830    7.8950   11.9590 C.3     1  ASN1        0.1169
      6  CG       -20.5380    6.4000   12.2110 C.2     1  ASN1        0.2627
      7  OD1      -20.0150    5.6980   11.3340 O.2     1  ASN1       -0.2716
      8  ND2      -20.9380    5.9020   13.3980 N.am    1  ASN1       -0.0877
      9  N        -18.8610    8.3010    9.5100 N.am    2  LEU2       -0.1966
     10  CA       -17.8770    8.0160    8.4700 C.3     2  LEU2        0.1728
     11  C        -17.5070    6.5130    8.4260 C.2     2  LEU2        0.2616
     12  O        -17.2730    5.9920    7.3780 O.2     2  LEU2       -0.2715
     13  CB       -16.5730    8.8420    8.6820 C.3     2  LEU2        0.0311
     14  CG       -16.8510   10.3200    8.3570 C.3     2  LEU2        0.0022
     15  CD1      -15.5560   11.1340    8.2490 C.3     2  LEU2        0.0001
     16  CD2      -17.7140   10.5240    7.0430 C.3     2  LEU2        0.0001
     17  N        -17.3960    5.8690    9.5770 N.am    3  TYR3       -0.1974
     18  CA       -17.1290    4.4220    9.6180 C.3     3  TYR3        0.1639
     19  C        -18.2270    3.6250    8.7960 C.2     3  TYR3        0.2290
     20  O        -17.9210    2.6800    8.0510 O.2     3  TYR3       -0.2864
     21  CB       -17.1180    3.9550   11.0790 C.3     3  TYR3        0.0560
     22  CG       -17.0680    2.4480   11.2820 C.ar    3  TYR3       -0.0198
     23  CD1      -15.8790    1.7460   11.0790 C.ar    3  TYR3       -0.0009
     24  CD2      -18.2350    1.7170   11.5870 C.ar    3  TYR3       -0.0009
     25  CE1      -15.8340    0.3240   11.2190 C.ar    3  TYR3        0.0417
     26  CE2      -18.1770    0.3060   11.7650 C.ar    3  TYR3        0.0417
     27  CZ       -16.9630   -0.3430   11.5970 C.ar    3  TYR3        0.1957
     28  OH       -16.9050   -1.7220   11.7220 O.3     3  TYR3       -0.2866
     29  N        -20.2070    4.9390    6.4250 N.3     5  PHE5       -0.1227
     30  CA       -20.0370    5.2440    4.9990 C.3     5  PHE5        0.1736
     31  C        -18.8880    4.4050    4.4210 C.2     5  PHE5        0.2595
     32  O        -19.0350    3.8420    3.3240 O.2     5  PHE5       -0.2718
     33  CB       -19.7450    6.7460    4.8430 C.3     5  PHE5        0.0547
     34  CG       -19.6640    7.2420    3.4100 C.ar    5  PHE5       -0.0202
     35  CD1      -20.5800    6.8400    2.4270 C.ar    5  PHE5       -0.0042
     36  CD2      -18.6530    8.1960    3.0830 C.ar    5  PHE5       -0.0042
     37  CE1      -20.5040    7.3380    1.0980 C.ar    5  PHE5       -0.0003
     38  CE2      -18.5350    8.7000    1.7850 C.ar    5  PHE5       -0.0003
     39  CZ       -19.4330    8.2740    0.7720 C.ar    5  PHE5       -0.0000
     40  N        -17.7520    4.2950    5.1490 N.am    6  LYS6       -0.1980
     41  CA       -16.6470    3.4360    4.6990 C.3     6  LYS6        0.1596
     42  C        -17.1470    1.9850    4.4090 C.2     6  LYS6        0.2287
     43  O        -16.7960    1.3920    3.3500 O.2     6  LYS6       -0.2864
     44  CB       -15.5180    3.4780    5.7450 C.3     6  LYS6        0.0298
     45  CG       -14.4340    2.4010    5.6730 C.3     6  LYS6        0.0038
     46  CD       -13.8740    2.2240    7.0930 C.3     6  LYS6        0.0206
     47  CE       -13.1460    0.8750    7.3100 C.3     6  LYS6        0.1093
     48  NZ       -13.0340    0.4900    8.8040 N.3     6  LYS6       -0.1314
     49  N        -11.3760    1.5640    0.0950 N.3    18  TRP18      -0.1241
     50  CA       -12.0870    2.7910    0.3140 C.3    18  TRP18       0.1605
     51  C        -11.1680    4.0140    0.3510 C.2    18  TRP18       0.2264
     52  O        -11.6520    5.1310    0.1360 O.2    18  TRP18      -0.2867
     53  CB       -12.8900    2.7020    1.6250 C.3    18  TRP18       0.0550
     54  CG       -11.9990    2.5670    2.8370 C.ar   18  TRP18       0.0003
     55  CD1      -11.5760    1.3900    3.4120 C.ar   18  TRP18       0.0946
     56  CD2      -11.3980    3.6250    3.6090 C.ar   18  TRP18       0.0152
     57  NE1      -10.7560    1.6530    4.4980 N.ar   18  TRP18      -0.2442
     58  CE2      -10.6210    3.0100    4.6340 C.ar   18  TRP18       0.0810
     59  CE3      -11.4360    5.0260    3.5340 C.ar   18  TRP18       0.0012
     60  CZ2       -9.9050    3.7460    5.5810 C.ar   18  TRP18       0.0191
     61  CZ3      -10.7280    5.7590    4.4720 C.ar   18  TRP18       0.0001
     62  CH2       -9.9640    5.1120    5.4870 C.ar   18  TRP18       0.0015
     63  N        -11.0390    6.5960   -2.4560 N.3    21  PHE21      -0.1227
     64  CA       -12.0980    7.5810   -2.5680 C.3    21  PHE21       0.1736
     65  C        -11.9290    8.7120   -1.5830 C.2    21  PHE21       0.2595
     66  O        -12.7810    9.6230   -1.5340 O.2    21  PHE21      -0.2718
     67  CB       -13.4880    6.8950   -2.3650 C.3    21  PHE21       0.0547
     68  CG       -13.7830    5.7770   -3.3520 C.ar   21  PHE21      -0.0202
     69  CD1      -14.2780    6.0720   -4.6380 C.ar   21  PHE21      -0.0042
     70  CD2      -13.5710    4.4370   -3.0120 C.ar   21  PHE21      -0.0042
     71  CE1      -14.5250    5.0760   -5.5810 C.ar   21  PHE21      -0.0003
     72  CE2      -13.8240    3.4190   -3.9750 C.ar   21  PHE21      -0.0003
     73  CZ       -14.3240    3.7530   -5.2470 C.ar   21  PHE21      -0.0000
     74  N        -10.8910    8.6420   -0.7550 N.am   22  ALA22      -0.1980
     75  CA       -10.7360    9.5710    0.3640 C.3    22  ALA22       0.1597
     76  C        -10.0870   10.8780   -0.0750 C.2    22  ALA22       0.2287
     77  O        -10.1950   11.8960    0.6090 O.2    22  ALA22      -0.2864
     78  CB       -10.1670    8.8450    1.5770 C.3    22  ALA22       0.0319
     79  N        -13.6980   17.1360   -4.8830 N.3    27  TYR27      -0.1227
     80  CA       -14.7560   16.9880   -3.8700 C.3    27  TYR27       0.1736
     81  C        -14.6610   15.7350   -2.9630 C.2    27  TYR27       0.2596
     82  O        -15.2470   15.7330   -1.9050 O.2    27  TYR27      -0.2718
     83  CB       -16.1290   17.0100   -4.5600 C.3    27  TYR27       0.0548
     84  CG       -16.4690   18.4260   -5.0320 C.ar   27  TYR27      -0.0200
     85  CD1      -16.1030   18.8400   -6.3100 C.ar   27  TYR27      -0.0009
     86  CD2      -17.1070   19.3230   -4.1910 C.ar   27  TYR27      -0.0009
     87  CE1      -16.3330   20.1910   -6.7230 C.ar   27  TYR27       0.0417
     88  CE2      -17.3890   20.6210   -4.5820 C.ar   27  TYR27       0.0417
     89  CZ       -17.0020   21.0500   -5.8540 C.ar   27  TYR27       0.1957
     90  OH       -17.2830   22.3330   -6.2650 O.3    27  TYR27      -0.2866
     91  N        -14.0260   14.6710   -3.4360 N.am   28  CYS28      -0.1956
     92  CA       -13.9270   13.4250   -2.6880 C.3    28  CYS28       0.1843
     93  C        -12.9890   13.5840   -1.5020 C.2    28  CYS28       0.2626
     94  O        -11.7860   13.7810   -1.6760 O.2    28  CYS28      -0.2714
     95  CB       -13.4410   12.2920   -3.5950 C.3    28  CYS28       0.0997
     96  SG       -14.5820   11.8600   -4.9280 S.3    28  CYS28      -0.0797
     97  N        -13.4730   13.5390   -0.2760 N.am   29  GLY29      -0.1940
     98  CA       -12.6410   13.7130    0.9200 C.3    29  GLY29       0.2014
     99  C        -12.5280   15.1520    1.3390 C.2    29  GLY29       0.2639
    100  O        -13.4140   15.9520    1.0700 O.2    29  GLY29      -0.2714
    101  N        -11.4090   15.5490    1.9330 N.am   30  LYS30      -0.1963
    102  CA       -11.1800   17.0020    2.1850 C.3    30  LYS30       0.1728
    103  C        -11.8230   17.9700    1.1730 C.2    30  LYS30       0.2617
    104  O        -12.5730   18.8410    1.6000 O.2    30  LYS30      -0.2715
    105  CB        -9.6910   17.3990    2.3920 C.3    30  LYS30       0.0311
    106  CG        -9.5390   18.7060    3.2560 C.3    30  LYS30       0.0038
    107  CD        -8.0790   19.2490    3.3990 C.3    30  LYS30       0.0206
    108  CE        -8.0020   20.4160    4.4140 C.3    30  LYS30       0.1093
    109  NZ        -6.6970   20.4260    5.1750 N.3    30  LYS30      -0.1314
    110  N        -11.5690   17.8600   -0.1320 N.am   31  GLY31      -0.1940
    111  CA       -12.0080   18.9530   -1.0480 C.3    31  GLY31       0.2014
    112  C        -13.4930   19.3540   -0.8990 C.2    31  GLY31       0.2639
    113  O        -14.3390   18.4840   -0.7230 O.2    31  GLY31      -0.2714
    114  N        -13.8460   20.6430   -0.9340 N.am   32  GLY32      -0.1954
    115  CA       -15.2280   20.9920   -1.2350 C.3    32  GLY32       0.1869
    116  C        -15.3760   22.2420   -2.1360 C.2    32  GLY32       0.2309
    117  O        -16.1500   23.1110   -1.7750 O.2    32  GLY32      -0.2863
    118  N        -19.1030   12.8680   -5.6620 N.3    44  CYS44      -0.1235
    119  CA       -18.6250   13.3950   -4.3740 C.3    44  CYS44       0.1677
    120  C        -19.1080   14.8050   -4.0550 C.2    44  CYS44       0.2270
    121  O        -19.2910   15.1580   -2.8830 O.2    44  CYS44      -0.2867
    122  CB       -17.0750   13.4220   -4.3610 C.3    44  CYS44       0.0956
    123  SG       -16.5260   11.6480   -4.2650 S.3    44  CYS44      -0.0801
    124  N        -22.6840   14.4230   -2.8550 N.3    47  HIS47      -0.1226
    125  CA       -22.5810   13.9230   -1.4300 C.3    47  HIS47       0.1752
    126  C        -22.2200   15.0410   -0.4800 C.2    47  HIS47       0.2596
    127  O        -22.8440   15.1920    0.5770 O.2    47  HIS47      -0.2718
    128  CB       -21.5620   12.8120   -1.3910 C.3    47  HIS47       0.0759
    129  CG       -21.4820   12.1440   -0.0580 C.ar   47  HIS47       0.0818
    130  ND1      -20.3790   12.2620    0.7760 N.ar   47  HIS47      -0.2268
    131  CD2      -22.4010   11.4230    0.6210 C.ar   47  HIS47       0.1154
    132  CE1      -20.6030   11.5810    1.8910 C.ar   47  HIS47       0.1986
    133  NE2      -21.8070   11.0260    1.8080 N.ar   47  HIS47      -0.2212
    134  N        -21.2120   15.8530   -0.8180 N.am   48  ASP48      -0.1974
    135  CA       -20.8810   16.9960    0.0170 C.3    48  ASP48       0.1709
    136  C        -22.0540   18.0050    0.2100 C.2    48  ASP48       0.2293
    137  O        -22.2950   18.5060    1.2960 O.2    48  ASP48      -0.2864
    138  CB       -19.6990   17.7650   -0.6050 C.3    48  ASP48       0.1436
    139  CG       -18.4010   16.9550   -0.6380 C.2    48  ASP48       0.3671
    140  OD1      -18.2430   15.9350    0.0800 O.co2  48  ASP48      -0.2456
    141  OD2      -17.5170   17.3560   -1.4080 O.co2  48  ASP48      -0.2456
    142  N        -24.6500   16.5420    2.5660 N.3    51  TYR51      -0.1227
    143  CA       -24.2900   16.7810    3.9920 C.3    51  TYR51       0.1736
    144  C        -24.5520   18.1590    4.4560 C.2    51  TYR51       0.2595
    145  O        -24.9500   18.3650    5.5970 O.2    51  TYR51      -0.2718
    146  CB       -22.8330   16.4780    4.2120 C.3    51  TYR51       0.0548
    147  CG       -22.4900   14.9970    4.5260 C.ar   51  TYR51      -0.0200
    148  CD1      -23.3910   13.9390    4.2670 C.ar   51  TYR51      -0.0009
    149  CD2      -21.2330   14.6780    5.0790 C.ar   51  TYR51      -0.0009
    150  CE1      -23.0560   12.5870    4.5290 C.ar   51  TYR51       0.0417
    151  CE2      -20.8970   13.3070    5.3140 C.ar   51  TYR51       0.0417
    152  CZ       -21.7830   12.3080    5.0730 C.ar   51  TYR51       0.1957
    153  OH       -21.3270   11.0230    5.3750 O.3    51  TYR51      -0.2866
    154  N        -24.2870   19.1420    3.5840 N.am   52  ASN52      -0.1974
    155  CA       -24.5070   20.5000    3.9650 C.3    52  ASN52       0.1688
    156  C        -25.9680   20.7620    4.2530 C.2    52  ASN52       0.2292
    157  O        -26.3320   21.4940    5.2020 O.2    52  ASN52      -0.2864
    158  CB       -23.9960   21.4350    2.8440 C.3    52  ASN52       0.1181
    159  CG       -22.4940   21.6260    2.9000 C.2    52  ASN52       0.2629
    160  OD1      -21.8400   21.2790    3.8680 O.2    52  ASN52      -0.2716
    161  ND2      -21.9400   22.1290    1.8410 N.am   52  ASN52      -0.0877
    162  N        -27.0150   19.1340    7.6140 N.3    55  GLU55      -0.1245
    163  CA       -26.5130   19.9400    8.7080 C.3    55  GLU55       0.1567
    164  C        -27.4350   21.0630    9.1420 C.2    55  GLU55       0.2260
    165  O        -27.2770   21.5990   10.2600 O.2    55  GLU55      -0.2867
    166  CB       -25.2100   20.5500    8.2870 C.3    55  GLU55       0.0388
    167  CG       -24.0720   19.6540    8.5370 C.3    55  GLU55       0.1160
    168  CD       -22.9080   19.8370    7.5690 C.2    55  GLU55       0.3649
    169  OE1      -22.6200   21.0120    7.1500 O.co2  55  GLU55      -0.2457
    170  OE2      -22.2630   18.7830    7.2370 O.co2  55  GLU55      -0.2457
    171  N        -20.9500   13.5600    9.8880 N.3    63  TYR63      -0.1227
    172  CA       -19.7580   12.7320   10.0180 C.3    63  TYR63       0.1736
    173  C        -19.8800   11.8080   11.2210 C.2    63  TYR63       0.2595
    174  O        -19.2310   10.7430   11.2790 O.2    63  TYR63      -0.2718
    175  CB       -18.5000   13.5760   10.2370 C.3    63  TYR63       0.0548
    176  CG       -17.6650   13.8250    9.0040 C.ar   63  TYR63      -0.0200
    177  CD1      -18.2340   14.0700    7.7750 C.ar   63  TYR63      -0.0009
    178  CD2      -16.2700   13.9850    9.1320 C.ar   63  TYR63      -0.0009
    179  CE1      -17.4530   14.3210    6.6340 C.ar   63  TYR63       0.0417
    180  CE2      -15.4670   14.2770    8.0010 C.ar   63  TYR63       0.0417
    181  CZ       -16.0900   14.4300    6.7630 C.ar   63  TYR63       0.1957
    182  OH       -15.3400   14.7180    5.6620 O.3    63  TYR63      -0.2866
    183  N        -20.6920   12.2170   12.2020 N.am   64  PHE64      -0.1976
    184  CA       -20.7650   11.4900   13.4860 C.3    64  PHE64       0.1639
    185  C        -22.0570   10.7740   13.7790 C.2    64  PHE64       0.2290
    186  O        -22.0570    9.8860   14.6140 O.2    64  PHE64      -0.2864
    187  CB       -20.5350   12.5290   14.6070 C.3    64  PHE64       0.0560
    188  CG       -19.1650   13.2180   14.4780 C.ar   64  PHE64      -0.0200
    189  CD1      -18.0390   12.5780   14.9220 C.ar   64  PHE64      -0.0042
    190  CD2      -19.0630   14.4840   13.9040 C.ar   64  PHE64      -0.0042
    191  CE1      -16.7740   13.1590   14.7700 C.ar   64  PHE64      -0.0003
    192  CE2      -17.7790   15.0900   13.7300 C.ar   64  PHE64      -0.0003
    193  CZ       -16.6420   14.4200   14.1810 C.ar   64  PHE64      -0.0000
    194  N        -20.6110    5.8150   -6.7190 N.3   100  PHE100     -0.1241
    195  CA       -19.2210    5.4260   -6.8310 C.3   100  PHE100      0.1605
    196  C        -19.1200    4.1150   -7.6030 C.2   100  PHE100      0.2264
    197  O        -18.1950    3.9450   -8.4070 O.2   100  PHE100     -0.2867
    198  CB       -18.6010    5.2030   -5.4520 C.3   100  PHE100      0.0534
    199  CG       -18.3760    6.4410   -4.6320 C.ar  100  PHE100     -0.0203
    200  CD1      -18.7780    7.7140   -5.0530 C.ar  100  PHE100     -0.0042
    201  CD2      -17.7890    6.3040   -3.3790 C.ar  100  PHE100     -0.0042
    202  CE1      -18.6120    8.8390   -4.1880 C.ar  100  PHE100     -0.0003
    203  CE2      -17.5910    7.3890   -2.5590 C.ar  100  PHE100     -0.0003
    204  CZ       -18.0140    8.6740   -2.9620 C.ar  100  PHE100     -0.0000
@<TRIPOS>BOND
     1   197   196    2
     2   196   195    1
     3   195   194    1
     4   195   198    1
     5    87    85   ar
     6    87    89   ar
     7    85    84   ar
     8    90    89    1
     9    89    88   ar
    10   118   119    1
    11    71    73   ar
    12    71    69   ar
    13   198   199    1
    14    73    72   ar
    15   200   199   ar
    16   200   202   ar
    17    84    83    1
    18    84    86   ar
    19    96   123    1
    20    96    95    1
    21    79    80    1
    22    69    68   ar
    23   199   201   ar
    24    88    86   ar
    25    83    80    1
    26   119   122    1
    27   119   120    1
    28   122   123    1
    29   202   204   ar
    30   120   121    2
    31    72    70   ar
    32    80    81    1
    33    95    92    1
    34    91    81   am
    35    91    92    1
    36   201   203   ar
    37    68    70   ar
    38    68    67    1
    39    81    82    2
    40   204   203   ar
    41   124   125    1
    42    92    93    1
    43    64    63    1
    44    64    67    1
    45    64    65    1
    46   116   117    2
    47   116   115    1
    48    94    93    2
    49    65    66    2
    50    65    74   am
    51    93    97   am
    52   125   128    1
    53   125   126    1
    54   141   139   ar
    55   128   129    1
    56   115   114    1
    57   111   112    1
    58   111   110    1
    59   114   112   am
    60   112   113    2
    61   134   126   am
    62   134   135    1
    63    74    75    1
    64   139   138    1
    65   139   140   ar
    66   138   135    1
    67   126   127    2
    68    97    98    1
    69   110   103   am
    70    76    75    1
    71    76    77    2
    72   129   131   ar
    73   129   130   ar
    74   135   136    1
    75    49    50    1
    76    52    51    2
    77   136   137    2
    78    50    51    1
    79    50    53    1
    80    75    78    1
    81   131   133   ar
    82    39    37   ar
    83    39    38   ar
    84   130   132   ar
    85    98    99    1
    86   100    99    2
    87    37    35   ar
    88   103   104    2
    89   103   102    1
    90    99   101   am
    91    53    54    1
    92    38    36   ar
    93   133   132   ar
    94   161   159   am
    95   101   102    1
    96   102   105    1
    97   105   106    1
    98    35    34   ar
    99   142   143    1
   100    54    55   ar
   101    54    56   ar
   102   158   159    1
   103   158   155    1
   104   159   160    2
   105    36    34   ar
   106   106   107    1
   107    32    31    2
   108    43    42    2
   109   107   108    1
   110    34    33    1
   111    55    57   ar
   112    59    56   ar
   113    59    61   ar
   114   154   155    1
   115   154   144   am
   116    56    58   ar
   117   155   156    1
   118   143   146    1
   119   143   144    1
   120   146   147    1
   121   156   157    2
   122   148   147   ar
   123   148   150   ar
   124    42    41    1
   125   108   109    1
   126    31    30    1
   127    31    40   am
   128   144   145    2
   129    61    62   ar
   130    57    58   ar
   131   147   149   ar
   132   150   152   ar
   133    58    60   ar
   134    41    40    1
   135    41    44    1
   136    33    30    1
   137    30    29    1
   138   152   151   ar
   139   152   153    1
   140   149   151   ar
   141    62    60   ar
   142   182   181    1
   143    45    44    1
   144    45    46    1
   145   179   181   ar
   146   179   177   ar
   147   181   180   ar
   148    16    14    1
   149    46    47    1
   150   169   168   ar
   151   170   168   ar
   152    47    48    1
   153    12    11    2
   154   168   167    1
   155   162   163    1
   156   177   176   ar
   157   180   178   ar
   158    20    19    2
   159    15    14    1
   160   166   167    1
   161   166   163    1
   162    14    13    1
   163    11    10    1
   164    11    17   am
   165    10    13    1
   166    10     9    1
   167     4     3    2
   168   163   164    1
   169    19    18    1
   170   176   178   ar
   171   176   175    1
   172   164   165    2
   173     3     9   am
   174     3     2    1
   175    17    18    1
   176    18    21    1
   177   171   172    1
   178   172   175    1
   179   172   173    1
   180     1     2    1
   181     2     5    1
   182    21    22    1
   183    23    25   ar
   184    23    22   ar
   185    25    27   ar
   186   173   174    2
   187   173   183   am
   188    22    24   ar
   189     7     6    2
   190    24    26   ar
   191    27    28    1
   192    27    26   ar
   193     5     6    1
   194   183   184    1
   195     6     8   am
   196   184   185    1
   197   184   187    1
   198   192   190   ar
   199   192   193   ar
   200   185   186    2
   201   190   188   ar
   202   193   191   ar
   203   188   187    1
   204   188   189   ar
   205   191   189   ar
