@<TRIPOS>MOLECULE
tmp/3jtkA01.pdb
 148 142 0 0 0
SMALL
GASTEIGER

@<TRIPOS>ATOM
      1  N        -15.4720   26.7790   -5.0570 N.3    67  VAL67      -0.1231
      2  CA       -15.1970   25.7080   -4.0980 C.3    67  VAL67       0.1692
      3  C        -14.4500   26.2020   -2.8640 C.2    67  VAL67       0.2592
      4  O        -13.4230   26.8700   -2.9700 O.2    67  VAL67      -0.2718
      5  CB       -14.4140   24.5370   -4.7460 C.3    67  VAL67       0.0266
      6  CG1      -14.0610   23.4700   -3.7100 C.3    67  VAL67       0.0020
      7  CG2      -15.2190   23.9120   -5.8740 C.3    67  VAL67       0.0020
      8  N        -15.0020   25.8660   -1.7010 N.am   68  GLU68      -0.1966
      9  CA       -14.3770   26.1290   -0.4130 C.3    68  GLU68       0.1733
     10  C        -14.0330   24.7950    0.2370 C.2    68  GLU68       0.2616
     11  O        -14.6200   23.7630   -0.0960 O.2    68  GLU68      -0.2715
     12  CB       -15.3320   26.9210    0.4910 C.3    68  GLU68       0.0429
     13  CG       -15.5490   28.3590    0.0450 C.3    68  GLU68       0.1163
     14  CD       -16.5240   29.1260    0.9180 C.2    68  GLU68       0.3649
     15  OE1      -17.0500   30.1520    0.4420 O.co2  68  GLU68      -0.2457
     16  OE2      -16.7640   28.7160    2.0730 O.co2  68  GLU68      -0.2457
     17  N        -13.0780   24.8060    1.1630 N.am   69  ASP69      -0.1971
     18  CA       -12.8140   23.6180    1.9650 C.3    69  ASP69       0.1709
     19  C        -13.9930   23.4250    2.9200 C.2    69  ASP69       0.2293
     20  O        -14.8460   24.3040    3.0430 O.2    69  ASP69      -0.2864
     21  CB       -11.5130   23.7790    2.7430 C.3    69  ASP69       0.1436
     22  CG       -11.6070   24.8540    3.8020 C.2    69  ASP69       0.3671
     23  OD1      -11.8500   26.0230    3.4440 O.co2  69  ASP69      -0.2456
     24  OD2      -11.4500   24.5240    4.9950 O.co2  69  ASP69      -0.2456
     25  N        -10.7100   28.4960    3.1620 N.3    74  PHE74      -0.1227
     26  CA       -10.0410   28.7810    1.8850 C.3    74  PHE74       0.1736
     27  C        -11.0190   28.6230    0.7330 C.2    74  PHE74       0.2595
     28  O        -11.8800   27.7460    0.7660 O.2    74  PHE74      -0.2718
     29  CB        -8.8510   27.8330    1.6730 C.3    74  PHE74       0.0547
     30  CG        -7.9250   27.7590    2.8560 C.ar   74  PHE74      -0.0202
     31  CD1       -6.9880   28.7600    3.0770 C.ar   74  PHE74      -0.0042
     32  CD2       -8.0070   26.6940    3.7530 C.ar   74  PHE74      -0.0042
     33  CE1       -6.1350   28.7090    4.1750 C.ar   74  PHE74      -0.0003
     34  CE2       -7.1570   26.6320    4.8600 C.ar   74  PHE74      -0.0003
     35  CZ        -6.2230   27.6440    5.0670 C.ar   74  PHE74      -0.0000
     36  N        -10.8900   29.4840   -0.2720 N.am   75  ARG75      -0.1966
     37  CA       -11.6930   29.3620   -1.4860 C.3    75  ARG75       0.1729
     38  C        -10.8000   29.5080   -2.7150 C.2    75  ARG75       0.2616
     39  O         -9.9000   30.3370   -2.7240 O.2    75  ARG75      -0.2715
     40  CB       -12.7810   30.4320   -1.5130 C.3    75  ARG75       0.0348
     41  CG       -13.8180   30.2170   -2.6080 C.3    75  ARG75       0.0492
     42  CD       -14.8320   31.3440   -2.6640 C.3    75  ARG75       0.2205
     43  NE       -15.4590   31.5770   -1.3730 N.pl3  75  ARG75      -0.0865
     44  CZ       -15.3980   32.7160   -0.6860 C.cat  75  ARG75       0.5346
     45  NH1      -14.7490   33.7690   -1.1630 N.pl3  75  ARG75       0.1354
     46  NH2      -16.0050   32.7980    0.4850 N.pl3  75  ARG75       0.1354
     47  N        -11.0440   28.7050   -3.7500 N.am   76  PHE76      -0.1974
     48  CA       -10.2540   28.8350   -4.9800 C.3    76  PHE76       0.1639
     49  C        -10.3730   30.2400   -5.5330 C.2    76  PHE76       0.2290
     50  O        -11.4510   30.8540   -5.4930 O.2    76  PHE76      -0.2864
     51  CB       -10.7080   27.8510   -6.0710 C.3    76  PHE76       0.0560
     52  CG       -10.3300   26.4190   -5.8220 C.ar   76  PHE76      -0.0200
     53  CD1      -11.2900   25.4230   -5.9250 C.ar   76  PHE76      -0.0042
     54  CD2       -9.0210   26.0560   -5.5210 C.ar   76  PHE76      -0.0042
     55  CE1      -10.9640   24.0820   -5.7060 C.ar   76  PHE76      -0.0003
     56  CE2       -8.6840   24.7160   -5.2950 C.ar   76  PHE76      -0.0003
     57  CZ        -9.6570   23.7340   -5.3860 C.ar   76  PHE76      -0.0000
     58  N         -6.0890   14.2200   -2.3780 N.3   182  TYR182     -0.1241
     59  CA        -5.1080   15.2990   -2.4820 C.3   182  TYR182      0.1605
     60  C         -4.0810   15.1870   -1.3630 C.2   182  TYR182      0.2264
     61  O         -4.4350   14.9350   -0.2080 O.2   182  TYR182     -0.2867
     62  CB        -5.7690   16.6830   -2.4430 C.3   182  TYR182      0.0534
     63  CG        -6.0740   17.2720   -3.8110 C.ar  182  TYR182     -0.0201
     64  CD1       -5.0430   17.6460   -4.6800 C.ar  182  TYR182     -0.0009
     65  CD2       -7.3900   17.4700   -4.2250 C.ar  182  TYR182     -0.0009
     66  CE1       -5.3170   18.1940   -5.9360 C.ar  182  TYR182      0.0417
     67  CE2       -7.6770   18.0210   -5.4790 C.ar  182  TYR182      0.0417
     68  CZ        -6.6360   18.3750   -6.3260 C.ar  182  TYR182      0.1957
     69  OH        -6.9170   18.9110   -7.5630 O.3   182  TYR182     -0.2866
     70  N         -0.4210   17.3170    0.0910 N.3   184  HIS184     -0.1241
     71  CA         0.1360   18.6610    0.0900 C.3   184  HIS184      0.1621
     72  C          1.5580   18.6630    0.6050 C.2   184  HIS184      0.2264
     73  O          1.8670   18.0140    1.6050 O.2   184  HIS184     -0.2867
     74  CB        -0.7270   19.5990    0.9360 C.3   184  HIS184      0.0745
     75  CG        -2.1940   19.3900    0.7400 C.ar  184  HIS184      0.0817
     76  ND1       -2.8620   19.8340   -0.3790 N.ar  184  HIS184     -0.2268
     77  CD2       -3.1130   18.7470    1.4980 C.ar  184  HIS184      0.1154
     78  CE1       -4.1330   19.4860   -0.2970 C.ar  184  HIS184      0.1986
     79  NE2       -4.3110   18.8220    0.8310 N.ar  184  HIS184     -0.2212
     80  N         -3.8140   26.1900    7.8960 N.3   197  PHE197     -0.1241
     81  CA        -3.9270   25.0890    6.9470 C.3   197  PHE197      0.1605
     82  C         -3.2620   23.8470    7.5300 C.2   197  PHE197      0.2264
     83  O         -3.8220   22.7500    7.4830 O.2   197  PHE197     -0.2867
     84  CB        -3.3160   25.4230    5.5840 C.3   197  PHE197      0.0534
     85  CG        -3.1430   24.2170    4.6980 C.ar  197  PHE197     -0.0203
     86  CD1       -4.2500   23.4680    4.2960 C.ar  197  PHE197     -0.0042
     87  CD2       -1.8770   23.8090    4.2930 C.ar  197  PHE197     -0.0042
     88  CE1       -4.0970   22.3420    3.4930 C.ar  197  PHE197     -0.0003
     89  CE2       -1.7150   22.6860    3.4870 C.ar  197  PHE197     -0.0003
     90  CZ        -2.8280   21.9520    3.0850 C.ar  197  PHE197     -0.0000
     91  N         -5.4870   30.4510   -3.6160 N.3   291  SER291     -0.1217
     92  CA        -6.7060   30.4220   -2.8450 C.3   291  SER291      0.1889
     93  C         -6.8380   31.7070   -2.0500 C.2   291  SER291      0.2288
     94  O         -5.8380   32.3310   -1.6780 O.2   291  SER291     -0.2866
     95  CB        -6.7230   29.2050   -1.9220 C.3   291  SER291      0.2089
     96  OG        -6.9740   28.0160   -2.6620 O.3   291  SER291     -0.2183
     97  N         -3.2610   32.4210   -0.5100 N.3   302  LEU302     -0.1245
     98  CA        -2.2660   31.3630   -0.4440 C.3   302  LEU302      0.1561
     99  C         -1.9440   30.9830   -1.8830 C.2   302  LEU302      0.2260
    100  O         -2.8570   30.7210   -2.6570 O.2   302  LEU302     -0.2867
    101  CB        -2.8510   30.1630    0.3010 C.3   302  LEU302      0.0270
    102  CG        -1.9500   29.1250    0.9640 C.3   302  LEU302      0.0019
    103  CD1       -1.0700   29.7740    2.0230 C.3   302  LEU302      0.0001
    104  CD2       -2.8220   28.0570    1.5890 C.3   302  LEU302      0.0001
    105  N         -0.7260   28.4090   -4.4820 N.3   304  ALA304     -0.1245
    106  CA        -0.6080   26.9610   -4.5620 C.3   304  ALA304      0.1562
    107  C         -0.2750   26.5260   -5.9780 C.2   304  ALA304      0.2260
    108  O         -0.8090   27.0790   -6.9460 O.2   304  ALA304     -0.2867
    109  CB        -1.8880   26.2870   -4.0970 C.3   304  ALA304      0.0290
    110  N         -0.2190   23.1140   -8.4860 N.3   306  TYR306     -0.1241
    111  CA        -0.8590   21.8170   -8.6290 C.3   306  TYR306      0.1605
    112  C         -0.1530   20.9760   -9.6670 C.2   306  TYR306      0.2264
    113  O         -0.0300   21.3870  -10.8220 O.2   306  TYR306     -0.2867
    114  CB        -2.3240   21.9790   -9.0230 C.3   306  TYR306      0.0534
    115  CG        -3.1900   22.4860   -7.8950 C.ar  306  TYR306     -0.0201
    116  CD1       -4.0090   21.6150   -7.1860 C.ar  306  TYR306     -0.0009
    117  CD2       -3.1780   23.8330   -7.5330 C.ar  306  TYR306     -0.0009
    118  CE1       -4.8070   22.0700   -6.1400 C.ar  306  TYR306      0.0417
    119  CE2       -3.9660   24.3000   -6.4870 C.ar  306  TYR306      0.0417
    120  CZ        -4.7760   23.4080   -5.8020 C.ar  306  TYR306      0.1957
    121  OH        -5.5630   23.8500   -4.7650 O.3   306  TYR306     -0.2866
    122  N          2.6060   26.2530   -1.1740 N.3   335  VAL335     -0.1245
    123  CA         2.2980   24.8370   -1.0480 C.3   335  VAL335      0.1561
    124  C          2.2510   24.1950   -2.4360 C.2   335  VAL335      0.2260
    125  O          1.9330   24.8660   -3.4160 O.2   335  VAL335     -0.2867
    126  CB         0.9670   24.6090   -0.2490 C.3   335  VAL335      0.0252
    127  CG1       -0.2550   25.1090   -1.0320 C.3   335  VAL335      0.0019
    128  CG2        0.7900   23.1390    0.1470 C.3   335  VAL335      0.0019
    129  N          0.5850   20.9360   -4.3850 N.3   337  ASN337     -0.1240
    130  CA        -0.4530   19.9250   -4.2870 C.3   337  ASN337      0.1653
    131  C         -0.3290   18.8700   -5.3770 C.2   337  ASN337      0.2266
    132  O          0.0080   19.1880   -6.5170 O.2   337  ASN337     -0.2867
    133  CB        -1.8280   20.5980   -4.3420 C.3   337  ASN337      0.1155
    134  CG        -2.0380   21.5820   -3.1990 C.2   337  ASN337      0.2627
    135  OD1       -1.7540   21.2700   -2.0460 O.2   337  ASN337     -0.2716
    136  ND2       -2.5310   22.7730   -3.5170 N.am  337  ASN337     -0.0877
    137  N         -4.2940   15.1040    2.5920 N.3   356  GLY356     -0.1210
    138  CA        -5.2690   16.1560    2.8470 C.3   356  GLY356      0.1956
    139  C         -6.6020   15.6100    3.3160 C.2   356  GLY356      0.2611
    140  O         -6.8100   14.3970    3.3550 O.2   356  GLY356     -0.2717
    141  N         -7.5020   16.5140    3.6840 N.am  357  ASP357     -0.1973
    142  CA        -8.8690   16.1490    4.0270 C.3   357  ASP357      0.1709
    143  C         -9.6910   16.0240    2.7510 C.2   357  ASP357      0.2293
    144  O         -9.4680   16.7600    1.7870 O.2   357  ASP357     -0.2864
    145  CB        -9.4910   17.2050    4.9460 C.3   357  ASP357      0.1436
    146  CG        -8.7430   17.3560    6.2580 C.2   357  ASP357      0.3671
    147  OD1       -8.3970   16.3260    6.8780 O.co2 357  ASP357     -0.2456
    148  OD2       -8.5090   18.5120    6.6760 O.co2 357  ASP357     -0.2456
@<TRIPOS>BOND
     1   113   112    2
     2   112   111    1
     3   114   111    1
     4   114   115    1
     5   111   110    1
     6   115   117   ar
     7   115   116   ar
     8    69    68    1
     9   117   119   ar
    10   116   118   ar
    11   108   107    2
    12   132   131    2
    13   119   120   ar
    14    68    66   ar
    15    68    67   ar
    16   118   120   ar
    17    51    52    1
    18    51    48    1
    19   107   106    1
    20    66    64   ar
    21    53    52   ar
    22    53    55   ar
    23     7     5    1
    24    52    54   ar
    25   120   121    1
    26    55    57   ar
    27    49    50    2
    28    49    48    1
    29    54    56   ar
    30    67    65   ar
    31    57    56   ar
    32   131   130    1
    33     1     2    1
    34    48    47    1
    35     5     2    1
    36     5     6    1
    37    64    63   ar
    38   106   105    1
    39   106   109    1
    40   129   130    1
    41   133   130    1
    42   133   134    1
    43    65    63   ar
    44     2     3    1
    45    63    62    1
    46    47    38   am
    47    91    92    1
    48   136   134   am
    49   125   124    2
    50   134   135    2
    51     4     3    2
    52     3     8   am
    53    92    93    1
    54    92    95    1
    55    39    38    2
    56    38    37    1
    57    42    41    1
    58    42    43    1
    59    96    95    1
    60   100    99    2
    61    41    40    1
    62    59    62    1
    63    59    58    1
    64    59    60    1
    65   124   123    1
    66    93    94    2
    67    99    98    1
    68     8     9    1
    69    40    37    1
    70    37    36    1
    71    43    44    2
    72    60    61    2
    73   122   123    1
    74    45    44    1
    75   123   126    1
    76   127   126    1
    77    44    46    1
    78    97    98    1
    79    98   101    1
    80     9    10    1
    81     9    12    1
    82    76    78   ar
    83    76    75   ar
    84    78    79   ar
    85    36    27   am
    86   126   128    1
    87    11    10    2
    88    13    12    1
    89    13    14    1
    90    71    70    1
    91    71    72    1
    92    71    74    1
    93    10    17   am
    94   101   102    1
    95    15    14   ar
    96    72    73    2
    97    27    28    2
    98    27    26    1
    99    75    74    1
   100    75    77   ar
   101    79    77   ar
   102    14    16   ar
   103   102   104    1
   104   102   103    1
   105    17    18    1
   106    29    26    1
   107    29    30    1
   108   144   143    2
   109    26    25    1
   110    18    21    1
   111    18    19    1
   112   137   138    1
   113    21    22    1
   114   143   142    1
   115   138   139    1
   116    30    31   ar
   117    30    32   ar
   118    19    20    2
   119    31    33   ar
   120    90    89   ar
   121    90    88   ar
   122   139   140    2
   123   139   141   am
   124    23    22   ar
   125    89    87   ar
   126    88    86   ar
   127   141   142    1
   128    32    34   ar
   129    22    24   ar
   130   142   145    1
   131    33    35   ar
   132    87    85   ar
   133    86    85   ar
   134    85    84    1
   135    34    35   ar
   136   145   146    1
   137    84    81    1
   138   146   148   ar
   139   146   147   ar
   140    81    82    1
   141    81    80    1
   142    83    82    2
