@<TRIPOS>MOLECULE
tmp/3jtuB00.pdb
 86 83 0 0 0
SMALL
GASTEIGER

@<TRIPOS>ATOM
      1  N         14.2340   -4.9140    1.4910 N.3     1  PRO1       -0.2102
      2  CA        15.1330   -5.9460    0.9660 C.3     1  PRO1        0.1504
      3  C         14.5750   -6.5150   -0.3280 C.2     1  PRO1        0.2575
      4  O         13.3580   -6.6530   -0.4770 O.2     1  PRO1       -0.2718
      5  CB        15.1580   -7.0070    2.0710 C.3     1  PRO1        0.0282
      6  CG        14.6310   -6.3090    3.2930 C.3     1  PRO1        0.0208
      7  CD        13.6470   -5.3090    2.7810 C.3     1  PRO1        0.0893
      8  N         15.4600   -6.8520   -1.2590 N.am    2  MET2       -0.1980
      9  CA        15.0350   -7.5600   -2.4550 C.3     2  MET2        0.1605
     10  C         16.0530   -8.6180   -2.8390 C.2     2  MET2        0.2287
     11  O         17.2580   -8.3630   -2.8450 O.2     2  MET2       -0.2864
     12  CB        14.8230   -6.5810   -3.6190 C.3     2  MET2        0.0413
     13  CG        16.0080   -5.6810   -3.9340 C.3     2  MET2        0.0598
     14  SD        15.6980   -4.6250   -5.3720 S.3     2  MET2       -0.1393
     15  CE        16.0660   -5.7360   -6.6960 C.3     2  MET2        0.0692
     16  N         12.9070   -7.0010    8.6080 N.3    32  LYS32      -0.1245
     17  CA        11.9760   -6.0960    7.9440 C.3    32  LYS32       0.1561
     18  C         10.6100   -6.7490    7.7590 C.2    32  LYS32       0.2260
     19  O         10.5000   -7.9680    7.6400 O.2    32  LYS32      -0.2867
     20  CB        12.5350   -5.6640    6.5840 C.3    32  LYS32       0.0271
     21  CG        13.8450   -4.8910    6.6650 C.3    32  LYS32       0.0035
     22  CD        13.6790   -3.5840    7.4340 C.3    32  LYS32       0.0206
     23  CE        14.9970   -2.8200    7.4980 C.3    32  LYS32       0.1093
     24  NZ        14.8950   -1.5830    8.3200 N.3    32  LYS32      -0.1314
     25  N          7.7140   -5.3210    2.8020 N.3    36  TYR36      -0.1241
     26  CA         8.8490   -4.6830    2.1260 C.3    36  TYR36       0.1605
     27  C          9.5110   -5.5980    1.0990 C.2    36  TYR36       0.2264
     28  O         10.1310   -5.1260    0.1440 O.2    36  TYR36      -0.2867
     29  CB         9.9340   -4.2940    3.1310 C.3    36  TYR36       0.0534
     30  CG         9.6120   -3.1390    4.0430 C.ar   36  TYR36      -0.0201
     31  CD1       10.6330   -2.4530    4.6930 C.ar   36  TYR36      -0.0009
     32  CD2        8.3020   -2.7380    4.2710 C.ar   36  TYR36      -0.0009
     33  CE1       10.3610   -1.4010    5.5430 C.ar   36  TYR36       0.0417
     34  CE2        8.0200   -1.6800    5.1260 C.ar   36  TYR36       0.0417
     35  CZ         9.0560   -1.0180    5.7580 C.ar   36  TYR36       0.1957
     36  OH         8.7940    0.0290    6.6170 O.3    36  TYR36      -0.2866
     37  N         19.8310   -6.9090   -2.2170 N.3    62  HIS62      -0.1226
     38  CA        19.9750   -5.4820   -1.9400 C.3    62  HIS62       0.1752
     39  C         19.2110   -5.1850   -0.6580 C.2    62  HIS62       0.2597
     40  O         18.0960   -5.6650   -0.4730 O.2    62  HIS62      -0.2718
     41  CB        19.3730   -4.6380   -3.0680 C.3    62  HIS62       0.0759
     42  CG        20.1160   -4.7280   -4.3650 C.ar   62  HIS62       0.0818
     43  ND1       20.0210   -5.8180   -5.2040 N.ar   62  HIS62      -0.2268
     44  CD2       20.9400   -3.8500   -4.9810 C.ar   62  HIS62       0.1154
     45  CE1       20.7560   -5.6070   -6.2820 C.ar   62  HIS62       0.1986
     46  NE2       21.3240   -4.4190   -6.1710 N.ar   62  HIS62      -0.2212
     47  N         19.8100   -4.3970    0.2260 N.am   63  SER63      -0.1938
     48  CA        19.1260   -3.9950    1.4460 C.3    63  SER63       0.2055
     49  C         19.6260   -2.6350    1.8960 C.2    63  SER63       0.2642
     50  O         20.8070   -2.3180    1.7520 O.2    63  SER63      -0.2714
     51  CB        19.3610   -5.0200    2.5570 C.3    63  SER63       0.2130
     52  OG        18.6700   -4.6430    3.7380 O.3    63  SER63      -0.2179
     53  N         18.7270   -1.8270    2.4400 N.am   64  ILE64      -0.1977
     54  CA        19.1430   -0.5830    3.0650 C.3    64  ILE64       0.1596
     55  C         19.5860   -0.9200    4.4840 C.2    64  ILE64       0.2287
     56  O         18.7630   -1.0530    5.3920 O.2    64  ILE64      -0.2864
     57  CB        17.9820    0.4320    3.0910 C.3    64  ILE64       0.0276
     58  CG1       17.5220    0.7140    1.6560 C.3    64  ILE64       0.0022
     59  CG2       18.4250    1.7160    3.7810 C.3    64  ILE64       0.0022
     60  CD1       16.2790    1.5790    1.5490 C.3    64  ILE64       0.0001
     61  N         22.5770   -0.6520    0.2670 N.3   101  MET101     -0.1245
     62  CA        22.1230    0.4990   -0.5020 C.3   101  MET101      0.1570
     63  C         21.8850    1.7100    0.3930 C.2   101  MET101      0.2261
     64  O         21.3360    1.5890    1.4860 O.2   101  MET101     -0.2867
     65  CB        20.8320    0.1560   -1.2490 C.3   101  MET101      0.0387
     66  CG        20.9820   -0.9580   -2.2850 C.3   101  MET101      0.0595
     67  SD        22.0730   -0.4850   -3.6460 S.3   101  MET101     -0.1393
     68  CE        21.1490    0.8750   -4.3460 C.3   101  MET101      0.0692
     69  N         17.5850    4.3120   -3.4560 N.3   106  VAL106     -0.1245
     70  CA        16.5130    3.3500   -3.6760 C.3   106  VAL106      0.1561
     71  C         15.1990    4.0790   -3.9320 C.2   106  VAL106      0.2260
     72  O         14.6640    4.7530   -3.0480 O.2   106  VAL106     -0.2867
     73  CB        16.3420    2.4050   -2.4610 C.3   106  VAL106      0.0252
     74  CG1       15.2290    1.4100   -2.7340 C.3   106  VAL106      0.0019
     75  CG2       17.6450    1.6680   -2.1870 C.3   106  VAL106      0.0019
     76  N         13.7270    6.5270   -0.4810 N.3   113  PHE113     -0.1241
     77  CA        13.5990    6.3110    0.9570 C.3   113  PHE113      0.1605
     78  C         14.4260    7.3010    1.7680 C.2   113  PHE113      0.2264
     79  O         14.4760    7.2230    2.9950 O.2   113  PHE113     -0.2867
     80  CB        13.9890    4.8740    1.3140 C.3   113  PHE113      0.0534
     81  CG        12.9620    3.8590    0.9070 C.ar  113  PHE113     -0.0203
     82  CD1       11.6820    3.9070    1.4350 C.ar  113  PHE113     -0.0042
     83  CD2       13.2640    2.8720   -0.0180 C.ar  113  PHE113     -0.0042
     84  CE1       10.7200    2.9910    1.0450 C.ar  113  PHE113     -0.0003
     85  CE2       12.3060    1.9530   -0.4120 C.ar  113  PHE113     -0.0003
     86  CZ        11.0320    2.0130    0.1210 C.ar  113  PHE113     -0.0000
@<TRIPOS>BOND
     1    15    14    1
     2    45    46   ar
     3    45    43   ar
     4    46    44   ar
     5    14    13    1
     6    43    42   ar
     7    44    42   ar
     8    42    41    1
     9    68    67    1
    10    13    12    1
    11    71    70    1
    12    71    72    2
    13    70    69    1
    14    70    73    1
    15    67    66    1
    16    12     9    1
    17    41    38    1
    18    11    10    2
    19    10     9    1
    20    74    73    1
    21    73    75    1
    22     9     8    1
    23    66    65    1
    24    37    38    1
    25    38    39    1
    26     8     3   am
    27    65    62    1
    28    39    40    2
    29    39    47   am
    30    62    61    1
    31    62    63    1
    32    76    77    1
    33     4     3    2
    34    85    83   ar
    35    85    86   ar
    36     3     2    1
    37    83    81   ar
    38    86    84   ar
    39    28    27    2
    40    47    48    1
    41    63    64    2
    42    81    80    1
    43    81    82   ar
    44    77    80    1
    45    77    78    1
    46     2     1    1
    47     2     5    1
    48    84    82   ar
    49    27    26    1
    50    48    49    1
    51    48    51    1
    52     1     7    1
    53    60    58    1
    54    58    57    1
    55    50    49    2
    56    78    79    2
    57    49    53   am
    58     5     6    1
    59    26    25    1
    60    26    29    1
    61    53    54    1
    62    51    52    1
    63     7     6    1
    64    54    57    1
    65    54    55    1
    66    57    59    1
    67    29    30    1
    68    30    32   ar
    69    30    31   ar
    70    32    34   ar
    71    55    56    2
    72    31    33   ar
    73    34    35   ar
    74    33    35   ar
    75    35    36    1
    76    20    21    1
    77    20    17    1
    78    21    22    1
    79    22    23    1
    80    23    24    1
    81    19    18    2
    82    18    17    1
    83    17    16    1
