@<TRIPOS>MOLECULE
tmp/3jtxA00.pdb
 121 117 0 0 0
SMALL
GASTEIGER

@<TRIPOS>ATOM
      1  N         19.9640   14.2130  -14.5560 N.3    11  TYR11      -0.1228
      2  CA        20.5860   13.0480  -15.1980 C.3    11  TYR11       0.1721
      3  C         19.5430   12.1020  -15.8220 C.2    11  TYR11       0.2437
      4  O         19.0540   11.1700  -15.1610 O.2    11  TYR11      -0.2733
      5  CB        21.4480   12.2640  -14.2030 C.3    11  TYR11       0.0547
      6  CG        22.5190   13.0540  -13.4590 C.ar   11  TYR11      -0.0200
      7  CD1       23.2820   14.0560  -14.0830 C.ar   11  TYR11      -0.0009
      8  CD2       22.7800   12.7700  -12.1270 C.ar   11  TYR11      -0.0009
      9  CE1       24.2640   14.7600  -13.3710 C.ar   11  TYR11       0.0417
     10  CE2       23.7500   13.4430  -11.4170 C.ar   11  TYR11       0.0417
     11  CZ        24.4930   14.4230  -12.0250 C.ar   11  TYR11       0.1957
     12  OH        25.4430   15.0540  -11.2510 O.3    11  TYR11      -0.2866
     13  N         19.2130   12.3310  -17.1080 N.am   12  PRO12      -0.2718
     14  CA        18.2430   11.4820  -17.8040 C.3    12  PRO12       0.1535
     15  C         18.5550    9.9840  -17.6740 C.2    12  PRO12       0.2598
     16  O         17.6260    9.2040  -17.4440 O.2    12  PRO12      -0.2715
     17  CB        18.3660   11.9240  -19.2650 C.3    12  PRO12       0.0310
     18  CG        18.8800   13.3370  -19.2040 C.3    12  PRO12       0.0237
     19  CD        19.7490   13.4010  -17.9760 C.3    12  PRO12       0.0939
     20  N         19.8430    9.6050  -17.7740 N.am   13  PHE13      -0.1974
     21  CA        20.2580    8.1820  -17.7360 C.3    13  PHE13       0.1639
     22  C         19.6330    7.4550  -16.5540 C.2    13  PHE13       0.2290
     23  O         19.3120    6.2640  -16.6570 O.2    13  PHE13      -0.2864
     24  CB        21.7880    8.0060  -17.7100 C.3    13  PHE13       0.0560
     25  CG        22.3690    7.8580  -16.3140 C.ar   13  PHE13      -0.0200
     26  CD1       22.3450    6.6230  -15.6580 C.ar   13  PHE13      -0.0042
     27  CD2       22.9160    8.9580  -15.6480 C.ar   13  PHE13      -0.0042
     28  CE1       22.8690    6.4850  -14.3700 C.ar   13  PHE13      -0.0003
     29  CE2       23.4420    8.8290  -14.3560 C.ar   13  PHE13      -0.0003
     30  CZ        23.4180    7.5890  -13.7170 C.ar   13  PHE13      -0.0000
     31  N         24.5350    6.1070  -21.2720 N.3    34  ILE34      -0.1231
     32  CA        25.1520    7.2100  -20.5090 C.3    34  ILE34       0.1692
     33  C         26.0560    8.0700  -21.4010 C.2    34  ILE34       0.2593
     34  O         26.7820    7.5580  -22.2160 O.2    34  ILE34      -0.2718
     35  CB        25.9570    6.6960  -19.2770 C.3    34  ILE34       0.0266
     36  CG1       25.0620    5.8680  -18.3520 C.3    34  ILE34       0.0019
     37  CG2       26.5290    7.8950  -18.4610 C.3    34  ILE34       0.0020
     38  CD1       25.8080    5.1650  -17.1830 C.3    34  ILE34       0.0001
     39  N         25.9870    9.3840  -21.2620 N.am   35  GLY35      -0.1942
     40  CA        26.7100   10.2850  -22.1670 C.3    35  GLY35       0.2014
     41  C         28.0490   10.7270  -21.5940 C.2    35  GLY35       0.2638
     42  O         28.2770   11.9220  -21.4070 O.2    35  GLY35      -0.2714
     43  N         28.9130    9.7540  -21.3200 N.am   36  GLU36      -0.1977
     44  CA        30.1870    9.9730  -20.6420 C.3    36  GLU36       0.1602
     45  C         31.1890    8.9850  -21.2040 C.2    36  GLU36       0.2287
     46  O         30.8240    7.8390  -21.4820 O.2    36  GLU36      -0.2864
     47  CB        30.0420    9.7910  -19.1200 C.3    36  GLU36       0.0415
     48  CG        28.9860   10.7340  -18.5030 C.3    36  GLU36       0.1163
     49  CD        28.7520   10.5490  -17.0000 C.2    36  GLU36       0.3649
     50  OE1       29.3950    9.6650  -16.3940 O.co2  36  GLU36      -0.2457
     51  OE2       27.9160   11.3200  -16.4440 O.co2  36  GLU36      -0.2457
     52  N         30.2950   22.7440  -17.4930 N.3    98  ARG98      -0.1245
     53  CA        29.0490   22.8110  -16.7020 C.3    98  ARG98       0.1563
     54  C         28.9570   24.0870  -15.8520 C.2    98  ARG98       0.2260
     55  O         28.0080   24.8670  -15.9980 O.2    98  ARG98      -0.2867
     56  CB        28.8980   21.5840  -15.7950 C.3    98  ARG98       0.0307
     57  CG        27.6450   21.6410  -14.9040 C.3    98  ARG98       0.0489
     58  CD        27.3670   20.3090  -14.2080 C.3    98  ARG98       0.2205
     59  NE        27.0330   19.3190  -15.2210 N.pl3  98  ARG98      -0.0865
     60  CZ        25.9050   18.6210  -15.2800 C.cat  98  ARG98       0.5346
     61  NH1       24.9680   18.7110  -14.3330 N.pl3  98  ARG98       0.1354
     62  NH2       25.7300   17.7950  -16.3030 N.pl3  98  ARG98       0.1354
     63  N         20.2410   19.5590  -23.7260 N.3   124  TYR124     -0.1227
     64  CA        21.1460   19.1270  -22.6640 C.3   124  TYR124      0.1736
     65  C         20.6480   19.7340  -21.3700 C.2   124  TYR124      0.2595
     66  O         20.3900   20.9410  -21.2940 O.2   124  TYR124     -0.2718
     67  CB        22.5830   19.5780  -22.9630 C.3   124  TYR124      0.0548
     68  CG        23.6420   19.2040  -21.9440 C.ar  124  TYR124     -0.0200
     69  CD1       23.9010   17.8770  -21.6150 C.ar  124  TYR124     -0.0009
     70  CD2       24.4420   20.1860  -21.3610 C.ar  124  TYR124     -0.0009
     71  CE1       24.9260   17.5440  -20.7040 C.ar  124  TYR124      0.0417
     72  CE2       25.4640   19.8610  -20.4460 C.ar  124  TYR124      0.0417
     73  CZ        25.6960   18.5520  -20.1180 C.ar  124  TYR124      0.1957
     74  OH        26.7050   18.2570  -19.2010 O.3   124  TYR124     -0.2866
     75  N         20.5070   18.8670  -20.3680 N.am  125  GLN125     -0.1979
     76  CA        19.9860   19.1760  -19.0180 C.3   125  GLN125      0.1601
     77  C         20.3220   20.5640  -18.4670 C.2   125  GLN125      0.2287
     78  O         19.4250   21.2880  -18.0010 O.2   125  GLN125     -0.2864
     79  CB        20.5030   18.0880  -18.0260 C.3   125  GLN125      0.0394
     80  CG        22.1140   17.9600  -17.9570 C.3   125  GLN125      0.0908
     81  CD        22.6630   16.5030  -17.9890 C.2   125  GLN125      0.2608
     82  OE1       23.6210   16.1520  -17.2710 O.2   125  GLN125     -0.2717
     83  NE2       22.0620   15.6690  -18.8140 N.am  125  GLN125     -0.0878
     84  N         24.4100   16.8140  -28.8450 N.3   173  ASN173     -0.1240
     85  CA        23.9840   15.6920  -28.0180 C.3   173  ASN173      0.1653
     86  C         22.4680   15.8490  -27.9290 C.2   173  ASN173      0.2266
     87  O         21.9940   16.8170  -27.3440 O.2   173  ASN173     -0.2867
     88  CB        24.6260   15.7970  -26.6380 C.3   173  ASN173      0.1155
     89  CG        24.2190   14.6770  -25.6910 C.2   173  ASN173      0.2627
     90  OD1       23.4080   13.8150  -26.0340 O.2   173  ASN173     -0.2716
     91  ND2       24.8020   14.6790  -24.4860 N.am  173  ASN173     -0.0877
     92  N         37.9800   18.4700  -14.6200 N.3   245  ARG245     -0.1245
     93  CA        37.1170   19.6490  -14.5090 C.3   245  ARG245      0.1563
     94  C         37.8580   20.8340  -15.1100 C.2   245  ARG245      0.2260
     95  O         38.2180   21.7680  -14.3860 O.2   245  ARG245     -0.2867
     96  CB        36.6820   19.9470  -13.0510 C.3   245  ARG245      0.0307
     97  CG        36.1430   18.7670  -12.2640 C.3   245  ARG245      0.0489
     98  CD        35.0600   17.9650  -13.0160 C.3   245  ARG245      0.2205
     99  NE        33.9690   18.8130  -13.4890 N.pl3 245  ARG245     -0.0865
    100  CZ        33.4520   18.8310  -14.7200 C.cat 245  ARG245      0.5346
    101  NH1       33.8710   18.0210  -15.6880 N.pl3 245  ARG245      0.1354
    102  NH2       32.4610   19.6740  -14.9880 N.pl3 245  ARG245      0.1354
    103  N         15.1870   13.0520  -23.2880 N.3   350  LEU350     -0.1245
    104  CA        16.1020   14.1670  -23.5690 C.3   350  LEU350      0.1561
    105  C         15.3810   15.3910  -24.1360 C.2   350  LEU350      0.2260
    106  O         16.0280   16.3630  -24.5620 O.2   350  LEU350     -0.2867
    107  CB        17.1850   13.7200  -24.5790 C.3   350  LEU350      0.0270
    108  CG        18.0720   12.5530  -24.1400 C.3   350  LEU350      0.0019
    109  CD1       19.0430   12.1400  -25.2550 C.3   350  LEU350      0.0001
    110  CD2       18.8300   12.9690  -22.8940 C.3   350  LEU350      0.0001
    111  N         18.9230    7.2040  -27.9490 N.3   365  ARG365     -0.1245
    112  CA        20.3250    7.5480  -27.9690 C.3   365  ARG365      0.1563
    113  C         21.1750    6.3320  -27.5750 C.2   365  ARG365      0.2260
    114  O         20.9540    5.7070  -26.5440 O.2   365  ARG365     -0.2867
    115  CB        20.6310    8.7410  -27.0570 C.3   365  ARG365      0.0307
    116  CG        21.9950    9.3330  -27.3260 C.3   365  ARG365      0.0489
    117  CD        22.3820   10.3280  -26.2980 C.3   365  ARG365      0.2205
    118  NE        22.5810    9.7490  -24.9860 N.pl3 365  ARG365     -0.0865
    119  CZ        22.8210   10.4580  -23.8840 C.cat 365  ARG365      0.5346
    120  NH1       22.9110   11.7790  -23.9410 N.pl3 365  ARG365      0.1354
    121  NH2       23.0000    9.8480  -22.7210 N.pl3 365  ARG365      0.1354
@<TRIPOS>BOND
     1    84    85    1
     2    85    86    1
     3    85    88    1
     4   112   111    1
     5   112   113    1
     6   112   115    1
     7    86    87    2
     8   113   114    2
     9   116   115    1
    10   116   117    1
    11    88    89    1
    12   117   118    1
    13    90    89    2
    14    89    91   am
    15   109   108    1
    16   118   119    2
    17   107   108    1
    18   107   104    1
    19   106   105    2
    20   108   110    1
    21   105   104    1
    22   120   119    1
    23   119   121    1
    24    63    64    1
    25   104   103    1
    26    67    64    1
    27    67    68    1
    28    64    65    1
    29    34    33    2
    30    40    41    1
    31    40    39    1
    32    68    69   ar
    33    68    70   ar
    34    69    71   ar
    35    41    42    2
    36    41    43   am
    37    46    45    2
    38    33    39   am
    39    33    32    1
    40    65    66    2
    41    65    75   am
    42    70    72   ar
    43    43    44    1
    44    31    32    1
    45    45    44    1
    46    71    73   ar
    47    44    47    1
    48    32    35    1
    49    72    73   ar
    50    75    76    1
    51    73    74    1
    52    35    37    1
    53    35    36    1
    54    17    18    1
    55    17    14    1
    56    18    19    1
    57    47    48    1
    58    76    77    1
    59    76    79    1
    60    83    81   am
    61    48    49    1
    62    77    78    2
    63    36    38    1
    64    79    80    1
    65    81    80    1
    66    81    82    2
    67    19    13    1
    68    14    15    1
    69    14    13    1
    70    20    21    1
    71    20    15   am
    72    21    24    1
    73    21    22    1
    74    24    25    1
    75    15    16    2
    76    52    53    1
    77    13     3   am
    78    49    51   ar
    79    49    50   ar
    80    53    54    1
    81    53    56    1
    82    23    22    2
    83    25    26   ar
    84    25    27   ar
    85    62    60    1
    86    55    54    2
    87     3     2    1
    88     3     4    2
    89    56    57    1
    90   101   100    1
    91    26    28   ar
    92    27    29   ar
    93    60    59    2
    94    60    61    1
    95    59    58    1
    96     2     1    1
    97     2     5    1
    98    94    93    1
    99    94    95    2
   100   102   100    1
   101    57    58    1
   102   100    99    2
   103    92    93    1
   104    93    96    1
   105    28    30   ar
   106    29    30   ar
   107     5     6    1
   108     7     6   ar
   109     7     9   ar
   110    99    98    1
   111     6     8   ar
   112     9    11   ar
   113    96    97    1
   114    98    97    1
   115     8    10   ar
   116    11    10   ar
   117    11    12    1
