@<TRIPOS>MOLECULE
tmp/3ju6A00.pdb
 130 125 0 0 0
SMALL
GASTEIGER

@<TRIPOS>ATOM
      1  N          5.8580   33.6440   16.8350 N.3    52  ASN52      -0.1240
      2  CA         5.3420   33.1420   15.5650 C.3    52  ASN52       0.1653
      3  C          5.6900   34.0420   14.3770 C.2    52  ASN52       0.2266
      4  O          6.0110   33.5640   13.2950 O.2    52  ASN52      -0.2867
      5  CB         3.8170   32.9400   15.6990 C.3    52  ASN52       0.1155
      6  CG         3.1150   32.7640   14.3800 C.2    52  ASN52       0.2627
      7  OD1        2.7740   33.7330   13.7070 O.2    52  ASN52      -0.2716
      8  ND2        2.8960   31.5140   13.9990 N.am   52  ASN52      -0.0877
      9  N          4.6060   35.5490    7.3080 N.3    59  PHE59      -0.1227
     10  CA         3.2990   35.5270    7.9560 C.3    59  PHE59       0.1736
     11  C          2.6930   36.9140    7.8910 C.2    59  PHE59       0.2595
     12  O          3.4130   37.9020    7.7970 O.2    59  PHE59      -0.2718
     13  CB         3.4240   35.0650    9.4110 C.3    59  PHE59       0.0547
     14  CG         3.6940   33.5930    9.5540 C.ar   59  PHE59      -0.0202
     15  CD1        3.7620   32.7640    8.4280 C.ar   59  PHE59      -0.0042
     16  CD2        3.8770   33.0250   10.8200 C.ar   59  PHE59      -0.0042
     17  CE1        4.0060   31.3870    8.5680 C.ar   59  PHE59      -0.0003
     18  CE2        4.1220   31.6500   10.9730 C.ar   59  PHE59      -0.0003
     19  CZ         4.1890   30.8290    9.8490 C.ar   59  PHE59      -0.0000
     20  N          1.3710   36.9890    7.9520 N.am   60  HIS60      -0.1961
     21  CA         0.7010   38.2750    7.8660 C.3    60  HIS60       0.1787
     22  C          0.3180   38.9130    9.2010 C.2    60  HIS60       0.2620
     23  O          0.1990   40.1280    9.3120 O.2    60  HIS60      -0.2715
     24  CB        -0.5400   38.1480    6.9720 C.3    60  HIS60       0.0785
     25  CG        -1.2680   39.4410    6.7710 C.ar   60  HIS60       0.0821
     26  ND1       -2.4740   39.7150    7.3790 N.ar   60  HIS60      -0.2267
     27  CD2       -0.9080   40.5700    6.1180 C.ar   60  HIS60       0.1154
     28  CE1       -2.8180   40.9640    7.1200 C.ar   60  HIS60       0.1986
     29  NE2       -1.8840   41.5070    6.3600 N.ar   60  HIS60      -0.2212
     30  N          0.1300   38.0920   10.2170 N.am   61  LEU61      -0.1963
     31  CA        -0.2560   38.5770   11.5360 C.3    61  LEU61       0.1728
     32  C          0.9540   38.5470   12.4730 C.2    61  LEU61       0.2617
     33  O          1.4340   39.5940   12.9080 O.2    61  LEU61      -0.2715
     34  CB        -1.3930   37.7000   12.0600 C.3    61  LEU61       0.0311
     35  CG        -2.4420   38.2270   13.0330 C.3    61  LEU61       0.0022
     36  CD1       -2.8380   39.6370   12.7080 C.3    61  LEU61       0.0001
     37  CD2       -3.6560   37.3360   12.9490 C.3    61  LEU61       0.0001
     38  N          1.4400   37.3470   12.7750 N.am   62  GLY62      -0.1940
     39  CA         2.6110   37.2300   13.6210 C.3    62  GLY62       0.2014
     40  C          2.4150   37.0650   15.1230 C.2    62  GLY62       0.2639
     41  O          3.3970   36.9810   15.8560 O.2    62  GLY62      -0.2714
     42  N          1.1770   37.0570   15.6030 N.am   63  LEU63      -0.1963
     43  CA         0.9810   36.9250   17.0210 C.3    63  LEU63       0.1728
     44  C         -0.0510   35.8910   17.4580 C.2    63  LEU63       0.2616
     45  O         -1.0680   35.7010   16.7960 O.2    63  LEU63      -0.2715
     46  CB         0.7500   38.2850   17.6840 C.3    63  LEU63       0.0311
     47  CG        -0.2430   39.3050   17.2150 C.3    63  LEU63       0.0022
     48  CD1       -1.6300   38.8520   17.4070 C.3    63  LEU63       0.0001
     49  CD2       -0.0740   40.6000   17.9670 C.3    63  LEU63       0.0001
     50  N          0.2380   35.2190   18.5760 N.am   64  LEU64      -0.1977
     51  CA        -0.6270   34.2110   19.1640 C.3    64  LEU64       0.1596
     52  C         -0.8580   34.5140   20.6410 C.2    64  LEU64       0.2287
     53  O          0.0500   34.9740   21.3190 O.2    64  LEU64      -0.2864
     54  CB        -0.0160   32.8220   18.9910 C.3    64  LEU64       0.0297
     55  CG         0.0800   32.2590   17.5710 C.3    64  LEU64       0.0022
     56  CD1        0.7960   30.9240   17.6030 C.3    64  LEU64       0.0001
     57  CD2       -1.3170   32.1060   17.0150 C.3    64  LEU64       0.0001
     58  N         -6.5450   44.1600   10.7770 N.3    85  TYR85      -0.1241
     59  CA        -6.9300   42.8600   10.2430 C.3    85  TYR85       0.1605
     60  C         -8.4460   42.7350   10.0570 C.2    85  TYR85       0.2264
     61  O         -8.9210   42.3380    9.0000 O.2    85  TYR85      -0.2867
     62  CB        -6.4360   41.7240   11.1520 C.3    85  TYR85       0.0534
     63  CG        -6.5920   40.3470   10.5390 C.ar   85  TYR85      -0.0201
     64  CD1       -5.6400   39.8510    9.6610 C.ar   85  TYR85      -0.0009
     65  CD2       -7.7220   39.5700   10.7850 C.ar   85  TYR85      -0.0009
     66  CE1       -5.8090   38.6140    9.0320 C.ar   85  TYR85       0.0417
     67  CE2       -7.9000   38.3340   10.1610 C.ar   85  TYR85       0.0417
     68  CZ        -6.9420   37.8700    9.2850 C.ar   85  TYR85       0.1957
     69  OH        -7.1260   36.6850    8.6360 O.3    85  TYR85      -0.2866
     70  N        -17.4010   25.4170   11.2240 N.3   120  ARG120     -0.1245
     71  CA       -16.5290   25.1130   12.3420 C.3   120  ARG120      0.1563
     72  C        -16.2860   26.3940   13.0740 C.2   120  ARG120      0.2260
     73  O        -16.3210   27.4740   12.4740 O.2   120  ARG120     -0.2867
     74  CB       -15.1850   24.5450   11.8620 C.3   120  ARG120      0.0307
     75  CG       -14.2430   25.5560   11.1860 C.3   120  ARG120      0.0489
     76  CD       -13.4490   26.4670   12.1320 C.3   120  ARG120      0.2205
     77  NE       -12.2340   26.9670   11.4750 N.pl3 120  ARG120     -0.0865
     78  CZ       -11.5350   28.0400   11.8380 C.cat 120  ARG120      0.5346
     79  NH1      -11.9210   28.7590   12.8730 N.pl3 120  ARG120      0.1354
     80  NH2      -10.4470   28.3940   11.1570 N.pl3 120  ARG120      0.1354
     81  N          3.9830   27.7030   11.5720 N.3   185  HIS185     -0.1241
     82  CA         3.0280   28.4440   12.3900 C.3   185  HIS185      0.1621
     83  C          2.8570   27.7810   13.7700 C.2   185  HIS185      0.2264
     84  O          2.8860   28.4530   14.8010 O.2   185  HIS185     -0.2867
     85  CB         1.7000   28.5420   11.6190 C.3   185  HIS185      0.0745
     86  CG         0.5160   28.9040   12.4570 C.ar  185  HIS185      0.0817
     87  ND1        0.3490   30.1470   13.0280 N.ar  185  HIS185     -0.2268
     88  CD2       -0.5880   28.1920   12.7790 C.ar  185  HIS185      0.1154
     89  CE1       -0.8070   30.1850   13.6650 C.ar  185  HIS185      0.1986
     90  NE2       -1.3940   29.0100   13.5300 N.ar  185  HIS185     -0.2212
     91  N         -5.1870   24.0020   17.6450 N.3   215  GLU215     -0.1245
     92  CA        -4.9190   25.4310   17.7430 C.3   215  GLU215      0.1567
     93  C         -5.6700   25.9710   18.9470 C.2   215  GLU215      0.2260
     94  O         -5.1220   26.7200   19.7530 O.2   215  GLU215     -0.2867
     95  CB        -5.3720   26.1770   16.4880 C.3   215  GLU215      0.0388
     96  CG        -4.9450   27.6420   16.5150 C.3   215  GLU215      0.1160
     97  CD        -4.9070   28.2840   15.1510 C.2   215  GLU215      0.3649
     98  OE1       -4.2360   27.7300   14.2500 O.co2 215  GLU215     -0.2457
     99  OE2       -5.5350   29.3530   14.9830 O.co2 215  GLU215     -0.2457
    100  N        -12.4490   22.5320   18.5570 N.3   219  ARG219     -0.1245
    101  CA       -12.8200   22.9730   17.2250 C.3   219  ARG219      0.1563
    102  C        -14.0750   22.1660   16.9470 C.2   219  ARG219      0.2260
    103  O        -14.0080   20.9570   16.7110 O.2   219  ARG219     -0.2867
    104  CB       -11.7450   22.6110   16.1960 C.3   219  ARG219      0.0307
    105  CG       -10.6320   23.6230   16.0570 C.3   219  ARG219      0.0489
    106  CD       -11.2110   24.9750   15.6660 C.3   219  ARG219      0.2205
    107  NE       -10.2060   26.0380   15.6330 N.pl3 219  ARG219     -0.0865
    108  CZ        -9.4350   26.3170   14.5850 C.cat 219  ARG219      0.5346
    109  NH1       -9.5420   25.6110   13.4650 N.pl3 219  ARG219      0.1354
    110  NH2       -8.5730   27.3200   14.6520 N.pl3 219  ARG219      0.1354
    111  N         -5.4000   32.4560   17.8530 N.3   263  CYS263     -0.1235
    112  CA        -4.9600   33.3550   16.8010 C.3   263  CYS263      0.1677
    113  C         -6.0100   34.4440   16.7290 C.2   263  CYS263      0.2270
    114  O         -7.2060   34.1610   16.7200 O.2   263  CYS263     -0.2867
    115  CB        -4.8430   32.6440   15.4380 C.3   263  CYS263      0.0956
    116  SG        -4.4420   33.7880   14.0670 S.3   263  CYS263     -0.0801
    117  N         -6.9050   36.1040   14.3480 N.3   265  SER265     -0.1202
    118  CA        -7.5550   36.1250   13.0450 C.3   265  SER265      0.2020
    119  C         -8.9440   35.5120   13.2270 C.2   265  SER265      0.2618
    120  O         -9.8380   35.7550   12.4360 O.2   265  SER265     -0.2717
    121  CB        -6.7540   35.2910   12.0410 C.3   265  SER265      0.2103
    122  OG        -6.9520   33.9060   12.2690 O.3   265  SER265     -0.2182
    123  N         -9.1050   34.7280   14.2900 N.am  266  ASN266     -0.1974
    124  CA       -10.3630   34.0300   14.5670 C.3   266  ASN266      0.1688
    125  C        -11.2790   34.5740   15.6610 C.2   266  ASN266      0.2292
    126  O        -12.1370   33.8440   16.1330 O.2   266  ASN266     -0.2864
    127  CB       -10.0840   32.5560   14.9020 C.3   266  ASN266      0.1181
    128  CG        -9.6200   31.7510   13.7020 C.2   266  ASN266      0.2629
    129  OD1       -8.8960   30.7660   13.8560 O.2   266  ASN266     -0.2716
    130  ND2      -10.0430   32.1540   12.5000 N.am  266  ASN266     -0.0877
@<TRIPOS>BOND
     1    27    29   ar
     2    27    25   ar
     3    29    28   ar
     4    25    24    1
     5    25    26   ar
     6    24    21    1
     7    28    26   ar
     8     9    10    1
     9    12    11    2
    10    21    20    1
    11    21    22    1
    12    11    20   am
    13    11    10    1
    14    10    13    1
    15    15    17   ar
    16    15    14   ar
    17    17    19   ar
    18    69    68    1
    19    61    60    2
    20    66    68   ar
    21    66    64   ar
    22    22    23    2
    23    22    30   am
    24    68    67   ar
    25    13    14    1
    26    14    16   ar
    27    64    63   ar
    28    19    18   ar
    29    60    59    1
    30    67    65   ar
    31    30    31    1
    32    59    58    1
    33    59    62    1
    34    63    65   ar
    35    63    62    1
    36    16    18   ar
    37    80    78    1
    38    75    74    1
    39    75    76    1
    40    70    71    1
    41    77    78    2
    42    77    76    1
    43    31    34    1
    44    31    32    1
    45    81    82    1
    46    85    82    1
    47    85    86    1
    48    78    79    1
    49    74    71    1
    50   121   122    1
    51   121   118    1
    52    34    35    1
    53    71    72    1
    54    82    83    1
    55   120   119    2
    56    86    88   ar
    57    86    87   ar
    58    32    38   am
    59    32    33    2
    60    73    72    2
    61   130   128   am
    62    36    35    1
    63    38    39    1
    64    88    90   ar
    65    37    35    1
    66    87    89   ar
    67   118   119    1
    68   118   117    1
    69   119   123   am
    70     4     3    2
    71   109   108    1
    72    90    89   ar
    73    39    40    1
    74   128   129    2
    75   128   127    1
    76     7     6    2
    77    83    84    2
    78     8     6   am
    79   116   115    1
    80    98    97   ar
    81   123   124    1
    82     3     2    1
    83     6     5    1
    84   124   127    1
    85   124   125    1
    86   108   110    1
    87   108   107    2
    88    99    97   ar
    89    40    42   am
    90    40    41    2
    91    97    96    1
    92   115   112    1
    93     2     5    1
    94     2     1    1
    95    42    43    1
    96   107   106    1
    97   125   126    2
    98   106   105    1
    99   105   104    1
   100   104   101    1
   101    95    96    1
   102    95    92    1
   103   103   102    2
   104   114   113    2
   105   113   112    1
   106    45    44    2
   107   112   111    1
   108   102   101    1
   109    57    55    1
   110    43    44    1
   111    43    46    1
   112    47    48    1
   113    47    46    1
   114    47    49    1
   115   101   100    1
   116    44    50   am
   117    55    56    1
   118    55    54    1
   119    91    92    1
   120    92    93    1
   121    50    51    1
   122    93    94    2
   123    54    51    1
   124    51    52    1
   125    52    53    2
