@<TRIPOS>MOLECULE
tmp/3ju6A01.pdb
 177 168 0 0 0
SMALL
GASTEIGER

@<TRIPOS>ATOM
      1  N        -19.3860   19.5270   -0.6230 N.3   116  SER116     -0.1202
      2  CA       -19.6980   19.4320    0.8030 C.3   116  SER116      0.2020
      3  C        -19.7610   20.7800    1.4930 C.2   116  SER116      0.2619
      4  O        -19.1100   21.7210    1.0610 O.2   116  SER116     -0.2717
      5  CB       -18.6750   18.5300    1.5050 C.3   116  SER116      0.2103
      6  OG       -17.3880   18.7080    0.9640 O.3   116  SER116     -0.2182
      7  N        -20.5450   20.8470    2.5680 N.am  117  SER117     -0.1937
      8  CA       -20.7340   22.0610    3.3470 C.3   117  SER117      0.2055
      9  C        -20.1770   21.8460    4.7410 C.2   117  SER117      0.2642
     10  O        -20.3630   20.7770    5.3290 O.2   117  SER117     -0.2714
     11  CB       -22.2130   22.3800    3.4220 C.3   117  SER117      0.2130
     12  OG       -22.7090   22.6020    2.1120 O.3   117  SER117     -0.2179
     13  N        -19.5320   22.8800    5.2810 N.am  118  ARG118     -0.1977
     14  CA       -18.9020   22.7990    6.5870 C.3   118  ARG118      0.1597
     15  C        -18.9970   24.0870    7.3930 C.2   118  ARG118      0.2287
     16  O        -18.9470   25.1900    6.8470 O.2   118  ARG118     -0.2864
     17  CB       -17.4310   22.4110    6.4050 C.3   118  ARG118      0.0334
     18  CG       -16.7030   21.9410    7.6440 C.3   118  ARG118      0.0492
     19  CD       -15.2850   21.5360    7.2660 C.3   118  ARG118      0.2205
     20  NE       -14.4230   21.2570    8.4080 N.pl3 118  ARG118     -0.0865
     21  CZ       -13.5700   22.1190    8.9570 C.cat 118  ARG118      0.5346
     22  NH1      -13.4310   23.3520    8.4840 N.pl3 118  ARG118      0.1354
     23  NH2      -12.8530   21.7350    9.9960 N.pl3 118  ARG118      0.1354
     24  N        -17.4010   25.4170   11.2240 N.3   120  ARG120     -0.1245
     25  CA       -16.5290   25.1130   12.3420 C.3   120  ARG120      0.1563
     26  C        -16.2860   26.3940   13.0740 C.2   120  ARG120      0.2260
     27  O        -16.3210   27.4740   12.4740 O.2   120  ARG120     -0.2867
     28  CB       -15.1850   24.5450   11.8620 C.3   120  ARG120      0.0307
     29  CG       -14.2430   25.5560   11.1860 C.3   120  ARG120      0.0489
     30  CD       -13.4490   26.4670   12.1320 C.3   120  ARG120      0.2205
     31  NE       -12.2340   26.9670   11.4750 N.pl3 120  ARG120     -0.0865
     32  CZ       -11.5350   28.0400   11.8380 C.cat 120  ARG120      0.5346
     33  NH1      -11.9210   28.7590   12.8730 N.pl3 120  ARG120      0.1354
     34  NH2      -10.4470   28.3940   11.1570 N.pl3 120  ARG120      0.1354
     35  N         -7.5000   12.3390    7.7650 N.3   172  ILE172     -0.1245
     36  CA        -7.0110   13.6020    7.2220 C.3   172  ILE172      0.1561
     37  C         -7.3110   13.7100    5.7400 C.2   172  ILE172      0.2260
     38  O         -7.7460   14.7640    5.2600 O.2   172  ILE172     -0.2867
     39  CB        -5.4860   13.7740    7.4030 C.3   172  ILE172      0.0252
     40  CG1       -5.1540   14.0690    8.8610 C.3   172  ILE172      0.0019
     41  CG2       -4.9790   14.9040    6.5420 C.3   172  ILE172      0.0019
     42  CD1       -3.6630   14.0510    9.1730 C.3   172  ILE172      0.0001
     43  N        -10.8610   14.6650    5.0460 N.3   175  HIS175     -0.1241
     44  CA       -11.2960   15.9450    5.5900 C.3   175  HIS175      0.1621
     45  C        -11.9720   15.9780    6.9640 C.2   175  HIS175      0.2264
     46  O        -12.7320   16.9050    7.2560 O.2   175  HIS175     -0.2867
     47  CB       -12.2080   16.6220    4.5650 C.3   175  HIS175      0.0745
     48  CG       -11.7410   16.4620    3.1500 C.ar  175  HIS175      0.0817
     49  ND1      -10.6330   17.1110    2.6550 N.ar  175  HIS175     -0.2268
     50  CD2      -12.2140   15.7010    2.1340 C.ar  175  HIS175      0.1154
     51  CE1      -10.4410   16.7610    1.3960 C.ar  175  HIS175      0.1986
     52  NE2      -11.3870   15.9060    1.0550 N.ar  175  HIS175     -0.2212
     53  N        -10.1510   14.7900   10.2430 N.3   177  LEU177     -0.1231
     54  CA        -9.1140   15.0800   11.2450 C.3   177  LEU177      0.1693
     55  C         -8.0980   16.1360   10.8030 C.2   177  LEU177      0.2592
     56  O         -7.7830   16.2610    9.6230 O.2   177  LEU177     -0.2718
     57  CB        -8.4010   13.7810   11.6220 C.3   177  LEU177      0.0284
     58  CG        -7.1350   13.7950   12.4840 C.3   177  LEU177      0.0019
     59  CD1       -7.3330   14.6150   13.6980 C.3   177  LEU177      0.0001
     60  CD2       -6.7680   12.3810   12.8430 C.3   177  LEU177      0.0001
     61  N         -7.5620   16.8690   11.7770 N.am  178  PHE178     -0.1976
     62  CA        -6.5880   17.9330   11.5080 C.3   178  PHE178      0.1639
     63  C         -5.1830   17.4740   11.1440 C.2   178  PHE178      0.2290
     64  O         -4.7430   16.3940   11.5500 O.2   178  PHE178     -0.2864
     65  CB        -6.4780   18.8800   12.7040 C.3   178  PHE178      0.0560
     66  CG        -6.0920   18.1970   13.9960 C.ar  178  PHE178     -0.0200
     67  CD1       -7.0620   17.8660   14.9470 C.ar  178  PHE178     -0.0042
     68  CD2       -4.7620   17.8800   14.2650 C.ar  178  PHE178     -0.0042
     69  CE1       -6.7140   17.2290   16.1530 C.ar  178  PHE178     -0.0003
     70  CE2       -4.3990   17.2420   15.4600 C.ar  178  PHE178     -0.0003
     71  CZ        -5.3770   16.9170   16.4060 C.ar  178  PHE178     -0.0000
     72  N        -12.3330   18.6940   17.2760 N.3   211  TRP211     -0.1241
     73  CA       -10.9050   18.4670   17.4650 C.3   211  TRP211      0.1605
     74  C        -10.5630   18.9170   18.8710 C.2   211  TRP211      0.2264
     75  O        -10.9810   19.9900   19.3000 O.2   211  TRP211     -0.2867
     76  CB       -10.1080   19.3090   16.4600 C.3   211  TRP211      0.0550
     77  CG       -10.3650   18.9920   15.0190 C.ar  211  TRP211      0.0003
     78  CD1      -10.9720   17.8740   14.5170 C.ar  211  TRP211      0.0946
     79  CD2       -9.9430   19.7580   13.8840 C.ar  211  TRP211      0.0152
     80  NE1      -10.9520   17.8960   13.1460 N.ar  211  TRP211     -0.2442
     81  CE2      -10.3280   19.0400   12.7290 C.ar  211  TRP211      0.0810
     82  CE3       -9.2760   20.9840   13.7280 C.ar  211  TRP211      0.0012
     83  CZ2      -10.0710   19.4990   11.4340 C.ar  211  TRP211      0.0191
     84  CZ3       -9.0180   21.4460   12.4310 C.ar  211  TRP211      0.0001
     85  CH2       -9.4200   20.6990   11.3030 C.ar  211  TRP211      0.0015
     86  N         -5.1870   24.0020   17.6450 N.3   215  GLU215     -0.1245
     87  CA        -4.9190   25.4310   17.7430 C.3   215  GLU215      0.1567
     88  C         -5.6700   25.9710   18.9470 C.2   215  GLU215      0.2260
     89  O         -5.1220   26.7200   19.7530 O.2   215  GLU215     -0.2867
     90  CB        -5.3720   26.1770   16.4880 C.3   215  GLU215      0.0388
     91  CG        -4.9450   27.6420   16.5150 C.3   215  GLU215      0.1160
     92  CD        -4.9070   28.2840   15.1510 C.2   215  GLU215      0.3649
     93  OE1       -4.2360   27.7300   14.2500 O.co2 215  GLU215     -0.2457
     94  OE2       -5.5350   29.3530   14.9830 O.co2 215  GLU215     -0.2457
     95  N        -12.4490   22.5320   18.5570 N.3   219  ARG219     -0.1245
     96  CA       -12.8200   22.9730   17.2250 C.3   219  ARG219      0.1563
     97  C        -14.0750   22.1660   16.9470 C.2   219  ARG219      0.2260
     98  O        -14.0080   20.9570   16.7110 O.2   219  ARG219     -0.2867
     99  CB       -11.7450   22.6110   16.1960 C.3   219  ARG219      0.0307
    100  CG       -10.6320   23.6230   16.0570 C.3   219  ARG219      0.0489
    101  CD       -11.2110   24.9750   15.6660 C.3   219  ARG219      0.2205
    102  NE       -10.2060   26.0380   15.6330 N.pl3 219  ARG219     -0.0865
    103  CZ        -9.4350   26.3170   14.5850 C.cat 219  ARG219      0.5346
    104  NH1       -9.5420   25.6110   13.4650 N.pl3 219  ARG219      0.1354
    105  NH2       -8.5730   27.3200   14.6520 N.pl3 219  ARG219      0.1354
    106  N         -9.1050   34.7280   14.2900 N.3   266  ASN266     -0.1240
    107  CA       -10.3630   34.0300   14.5670 C.3   266  ASN266      0.1653
    108  C        -11.2790   34.5740   15.6610 C.2   266  ASN266      0.2266
    109  O        -12.1370   33.8440   16.1330 O.2   266  ASN266     -0.2867
    110  CB       -10.0840   32.5560   14.9020 C.3   266  ASN266      0.1155
    111  CG        -9.6200   31.7510   13.7020 C.2   266  ASN266      0.2627
    112  OD1       -8.8960   30.7660   13.8560 O.2   266  ASN266     -0.2716
    113  ND2      -10.0430   32.1540   12.5000 N.am  266  ASN266     -0.0877
    114  N        -15.8190   29.5470   10.3660 N.3   272  ARG272     -0.1245
    115  CA       -15.3900   29.4270    8.9870 C.3   272  ARG272      0.1563
    116  C        -16.4390   28.5260    8.3290 C.2   272  ARG272      0.2260
    117  O        -16.4530   27.3000    8.5030 O.2   272  ARG272     -0.2867
    118  CB       -13.9920   28.8050    8.8510 C.3   272  ARG272      0.0307
    119  CG       -13.3750   29.0830    7.4820 C.3   272  ARG272      0.0489
    120  CD       -11.8870   28.7110    7.3910 C.3   272  ARG272      0.2205
    121  NE       -11.6650   27.3320    6.9540 N.pl3 272  ARG272     -0.0865
    122  CZ       -11.9170   26.8650    5.7360 C.cat 272  ARG272      0.5346
    123  NH1      -12.4010   27.6520    4.8010 N.pl3 272  ARG272      0.1354
    124  NH2      -11.6920   25.5920    5.4600 N.pl3 272  ARG272      0.1354
    125  N        -17.7440   27.0160    5.1220 N.3   274  SER274     -0.1202
    126  CA       -17.1730   26.7140    3.8130 C.3   274  SER274      0.2020
    127  C        -17.8560   25.5920    3.0510 C.2   274  SER274      0.2619
    128  O        -18.5540   24.7590    3.6340 O.2   274  SER274     -0.2717
    129  CB       -15.7130   26.3250    3.9730 C.3   274  SER274      0.2103
    130  OG       -15.6410   25.0510    4.5830 O.3   274  SER274     -0.2182
    131  N        -17.5830   25.5740    1.7450 N.am  275  VAL275     -0.1965
    132  CA       -18.0750   24.5680    0.8180 C.3   275  VAL275      0.1727
    133  C        -16.9100   24.2350   -0.0940 C.2   275  VAL275      0.2616
    134  O        -15.9960   25.0480   -0.2650 O.2   275  VAL275     -0.2715
    135  CB       -19.2090   25.0890   -0.0910 C.3   275  VAL275      0.0290
    136  CG1      -20.4620   25.3230    0.7150 C.3   275  VAL275      0.0023
    137  CG2      -18.7500   26.3600   -0.8200 C.3   275  VAL275      0.0023
    138  N        -16.9270   23.0320   -0.6570 N.am  276  HIS276     -0.1973
    139  CA       -15.9040   22.6190   -1.6070 C.3   276  HIS276      0.1656
    140  C        -16.7200   22.6400   -2.8860 C.2   276  HIS276      0.2291
    141  O        -17.5240   21.7430   -3.1390 O.2   276  HIS276     -0.2864
    142  CB       -15.3920   21.2000   -1.3190 C.3   276  HIS276      0.0771
    143  CG       -14.2610   21.1480   -0.3380 C.ar  276  HIS276      0.0820
    144  ND1      -13.5250   20.0060   -0.1220 N.ar  276  HIS276     -0.2267
    145  CD2      -13.7600   22.0830    0.5010 C.ar  276  HIS276      0.1154
    146  CE1      -12.6210   20.2370    0.8120 C.ar  276  HIS276      0.1986
    147  NE2      -12.7410   21.4890    1.2090 N.ar  276  HIS276     -0.2212
    148  N         -9.5410   29.3680   -1.5350 N.3   298  ARG298     -0.1245
    149  CA        -8.2670   28.6690   -1.4550 C.3   298  ARG298      0.1563
    150  C         -8.5060   27.3500   -2.1670 C.2   298  ARG298      0.2260
    151  O         -9.4240   26.6010   -1.8110 O.2   298  ARG298     -0.2867
    152  CB        -7.8140   28.4400    0.0000 C.3   298  ARG298      0.0307
    153  CG        -8.7830   27.7120    0.9070 C.3   298  ARG298      0.0489
    154  CD        -9.0480   28.5850    2.1150 C.3   298  ARG298      0.2205
    155  NE        -9.0260   27.8860    3.4000 N.pl3 298  ARG298     -0.0865
    156  CZ        -8.8130   28.4930    4.5610 C.cat 298  ARG298      0.5346
    157  NH1       -8.6110   29.7990    4.5860 N.pl3 298  ARG298      0.1354
    158  NH2       -8.7810   27.7950    5.6850 N.pl3 298  ARG298      0.1354
    159  N        -12.2840   25.8980   -2.0800 N.3   305  ASP305     -0.1239
    160  CA       -12.8500   25.9900   -0.7450 C.3   305  ASP305      0.1674
    161  C        -13.3070   27.4420   -0.7130 C.2   305  ASP305      0.2266
    162  O        -12.4890   28.3540   -0.8480 O.2   305  ASP305     -0.2867
    163  CB       -11.7720   25.7740    0.3230 C.3   305  ASP305      0.1410
    164  CG       -12.2810   26.0440    1.7220 C.2   305  ASP305      0.3668
    165  OD1      -12.6040   25.0790    2.4500 O.co2 305  ASP305     -0.2456
    166  OD2      -12.3790   27.2310    2.1020 O.co2 305  ASP305     -0.2456
    167  N        -15.0800   37.5590   10.3920 N.3   311  ARG311     -0.1245
    168  CA       -15.1700   36.8180   11.6360 C.3   311  ARG311      0.1563
    169  C        -15.6670   37.6890   12.7880 C.2   311  ARG311      0.2260
    170  O        -16.6130   37.3540   13.4730 O.2   311  ARG311     -0.2867
    171  CB       -13.7860   36.2980   12.0170 C.3   311  ARG311      0.0307
    172  CG       -13.0880   35.4380   10.9860 C.3   311  ARG311      0.0489
    173  CD       -13.4570   33.9820   11.1910 C.3   311  ARG311      0.2205
    174  NE       -12.4690   33.0750   10.6080 N.pl3 311  ARG311     -0.0865
    175  CZ       -12.4750   32.6340    9.3520 C.cat 311  ARG311      0.5346
    176  NH1      -13.4200   33.0060    8.4990 N.pl3 311  ARG311      0.1354
    177  NH2      -11.5330   31.7970    8.9510 N.pl3 311  ARG311      0.1354
@<TRIPOS>BOND
     1   141   140    2
     2   140   139    1
     3   150   151    2
     4   150   149    1
     5   159   160    1
     6   139   142    1
     7   139   138    1
     8   148   149    1
     9   149   152    1
    10   142   143    1
    11   162   161    2
    12   137   135    1
    13   160   161    1
    14   160   163    1
    15   138   133   am
    16     1     2    1
    17   143   144   ar
    18   143   145   ar
    19   134   133    2
    20   144   146   ar
    21   133   132    1
    22   135   136    1
    23   135   132    1
    24   152   153    1
    25   163   164    1
    26   145   147   ar
    27     2     3    1
    28     2     5    1
    29   146   147   ar
    30   132   131    1
    31   153   154    1
    32     6     5    1
    33    52    51   ar
    34    52    50   ar
    35     4     3    2
    36    51    49   ar
    37     3     7   am
    38   164   166   ar
    39   164   165   ar
    40   131   127   am
    41    12    11    1
    42   154   155    1
    43    50    48   ar
    44     7     8    1
    45    49    48   ar
    46   127   128    2
    47   127   126    1
    48    48    47    1
    49     8    11    1
    50     8     9    1
    51   155   156    2
    52   126   129    1
    53   126   125    1
    54   129   130    1
    55   156   157    1
    56   156   158    1
    57    47    44    1
    58     9    13   am
    59     9    10    2
    60   123   122    1
    61    43    44    1
    62    38    37    2
    63    13    14    1
    64   124   122    1
    65    44    45    1
    66   122   121    2
    67    37    36    1
    68    17    14    1
    69    17    18    1
    70    41    39    1
    71    14    15    1
    72    16    15    2
    73   121   120    1
    74    45    46    2
    75    36    39    1
    76    36    35    1
    77    19    18    1
    78    19    20    1
    79   120   119    1
    80    39    40    1
    81   119   118    1
    82   116   117    2
    83   116   115    1
    84    20    21    2
    85    22    21    1
    86   176   175    1
    87   118   115    1
    88    40    42    1
    89   177   175    1
    90    21    23    1
    91   115   114    1
    92   175   174    2
    93    56    55    2
    94    53    54    1
    95   167   168    1
    96   174   173    1
    97    55    54    1
    98    55    61   am
    99   172   173    1
   100   172   171    1
   101    63    62    1
   102    63    64    2
   103    34    32    1
   104    29    28    1
   105    29    30    1
   106    24    25    1
   107    54    57    1
   108    85    83   ar
   109    85    84   ar
   110    83    81   ar
   111    31    32    2
   112    31    30    1
   113    62    61    1
   114    62    65    1
   115    57    58    1
   116   168   171    1
   117   168   169    1
   118    32    33    1
   119    28    25    1
   120    25    26    1
   121    84    82   ar
   122    27    26    2
   123    58    60    1
   124    58    59    1
   125   113   111   am
   126    65    66    1
   127    81    80   ar
   128    81    79   ar
   129   169   170    2
   130    80    78   ar
   131   104   103    1
   132   111   112    2
   133   111   110    1
   134    82    79   ar
   135    79    77   ar
   136    66    68   ar
   137    66    67   ar
   138    93    92   ar
   139    68    70   ar
   140   106   107    1
   141    78    77   ar
   142   107   110    1
   143   107   108    1
   144   103   105    1
   145   103   102    2
   146    67    69   ar
   147    94    92   ar
   148    77    76    1
   149    92    91    1
   150    70    71   ar
   151   102   101    1
   152   108   109    2
   153   101   100    1
   154   100    99    1
   155    69    71   ar
   156    99    96    1
   157    76    73    1
   158    90    91    1
   159    90    87    1
   160    98    97    2
   161    97    96    1
   162    96    95    1
   163    72    73    1
   164    73    74    1
   165    86    87    1
   166    87    88    1
   167    74    75    2
   168    88    89    2
