@<TRIPOS>MOLECULE
tmp/3ju7A02.pdb
 102 103 0 0 0
SMALL
GASTEIGER

@<TRIPOS>ATOM
      1  N          6.0120   55.4030   67.8070 N.3   136  TRP136     -0.1241
      2  CA         5.1560   54.2540   67.8100 C.3   136  TRP136      0.1605
      3  C          5.9250   52.9880   67.4960 C.2   136  TRP136      0.2264
      4  O          5.9240   52.5110   66.3700 O.2   136  TRP136     -0.2867
      5  CB         4.0520   54.4790   66.8100 C.3   136  TRP136      0.0550
      6  CG         2.9180   53.5970   66.9630 C.ar  136  TRP136      0.0003
      7  CD1        2.7030   52.4170   66.3180 C.ar  136  TRP136      0.0946
      8  CD2        1.7660   53.8430   67.7720 C.ar  136  TRP136      0.0152
      9  NE1        1.4890   51.9110   66.6830 N.ar  136  TRP136     -0.2442
     10  CE2        0.8910   52.7550   67.5800 C.ar  136  TRP136      0.0810
     11  CE3        1.3870   54.8830   68.6350 C.ar  136  TRP136      0.0012
     12  CZ2       -0.3310   52.6510   68.2430 C.ar  136  TRP136      0.0191
     13  CZ3        0.1800   54.7890   69.2980 C.ar  136  TRP136      0.0001
     14  CH2       -0.6760   53.6700   69.1030 C.ar  136  TRP136      0.0015
     15  N          5.9600   49.3550   67.6080 N.3   137  ASN137     -0.1225
     16  CA         4.9110   48.3720   67.6520 C.3   137  ASN137      0.1785
     17  C          5.2370   47.3030   68.6810 C.2   137  ASN137      0.2597
     18  O          6.3820   46.8870   68.7730 O.2   137  ASN137     -0.2718
     19  CB         4.7310   47.7250   66.2850 C.3   137  ASN137      0.1169
     20  CG         3.3850   47.0610   66.1500 C.2   137  ASN137      0.2627
     21  OD1        3.1610   45.9350   66.6510 O.2   137  ASN137     -0.2716
     22  ND2        2.4530   47.7660   65.4810 N.am  137  ASN137     -0.0877
     23  N          4.2260   46.8420   69.4260 N.am  138  LEU138     -0.1966
     24  CA         4.4420   45.9350   70.5640 C.3   138  LEU138      0.1728
     25  C          3.9890   44.4870   70.3470 C.2   138  LEU138      0.2616
     26  O          4.0490   43.6950   71.2920 O.2   138  LEU138     -0.2715
     27  CB         3.7680   46.5030   71.8300 C.3   138  LEU138      0.0311
     28  CG         4.3390   47.8340   72.3100 C.3   138  LEU138      0.0022
     29  CD1        3.5470   48.3580   73.4840 C.3   138  LEU138      0.0001
     30  CD2        5.8100   47.6530   72.6740 C.3   138  LEU138      0.0001
     31  N          3.5430   44.1450   69.1270 N.am  139  GLU139     -0.1977
     32  CA         3.1380   42.7720   68.7920 C.3   139  GLU139      0.1602
     33  C          4.1700   41.7080   69.2100 C.2   139  GLU139      0.2287
     34  O          3.8260   40.7430   69.8280 O.2   139  GLU139     -0.2864
     35  CB         2.8770   42.6380   67.2830 C.3   139  GLU139      0.0415
     36  CG         2.4410   41.2720   66.8500 C.3   139  GLU139      0.1163
     37  CD         2.0600   41.1270   65.4090 C.2   139  GLU139      0.3649
     38  OE1        2.1960   42.0630   64.6510 O.co2 139  GLU139     -0.2457
     39  OE2        1.7540   40.0310   64.9140 O.co2 139  GLU139     -0.2457
     40  N          4.6090   41.5100   72.9830 N.3   142  GLU142     -0.1245
     41  CA         3.4760   40.8120   73.5410 C.3   142  GLU142      0.1567
     42  C          3.7410   39.3150   73.3770 C.2   142  GLU142      0.2260
     43  O          3.4030   38.5090   74.2660 O.2   142  GLU142     -0.2867
     44  CB         2.1950   41.2580   72.8360 C.3   142  GLU142      0.0388
     45  CG         0.9450   40.5760   73.3030 C.3   142  GLU142      0.1160
     46  CD         0.4060   41.1080   74.6230 C.2   142  GLU142      0.3649
     47  OE1        0.8520   42.1640   75.1150 O.co2 142  GLU142     -0.2457
     48  OE2       -0.5120   40.4570   75.1630 O.co2 142  GLU142     -0.2457
     49  N         -4.1770   54.8650   72.0520 N.3   165  HIS165     -0.1226
     50  CA        -3.0580   55.3660   72.8190 C.3   165  HIS165      0.1752
     51  C         -1.9300   54.3320   72.8090 C.2   165  HIS165      0.2596
     52  O         -2.1730   53.1330   72.8910 O.2   165  HIS165     -0.2718
     53  CB        -3.4630   55.7110   74.2440 C.3   165  HIS165      0.0759
     54  CG        -2.3750   56.3840   75.0230 C.ar  165  HIS165      0.0818
     55  ND1       -1.5240   55.6950   75.8520 N.ar  165  HIS165     -0.2268
     56  CD2       -1.9830   57.6770   75.0740 C.ar  165  HIS165      0.1154
     57  CE1       -0.6580   56.5350   76.3860 C.ar  165  HIS165      0.1986
     58  NE2       -0.9170   57.7450   75.9290 N.ar  165  HIS165     -0.2212
     59  N         -0.7000   54.8130   72.7200 N.am  166  TYR166     -0.1962
     60  CA         0.4490   53.9410   72.7290 C.3   166  TYR166      0.1771
     61  C          0.4640   53.0600   73.9690 C.2   166  TYR166      0.2620
     62  O          0.3960   53.5910   75.0790 O.2   166  TYR166     -0.2715
     63  CB         1.7450   54.7450   72.7100 C.3   166  TYR166      0.0574
     64  CG         2.9010   53.8070   72.6030 C.ar  166  TYR166     -0.0198
     65  CD1        3.2260   53.2520   71.3810 C.ar  166  TYR166     -0.0009
     66  CD2        3.6100   53.4000   73.7180 C.ar  166  TYR166     -0.0009
     67  CE1        4.2370   52.3610   71.2480 C.ar  166  TYR166      0.0417
     68  CE2        4.6590   52.4780   73.5930 C.ar  166  TYR166      0.0417
     69  CZ         4.9520   51.9640   72.3420 C.ar  166  TYR166      0.1957
     70  OH         5.9640   51.0510   72.1410 O.3   166  TYR166     -0.2866
     71  N          0.5640   51.7430   73.7450 N.am  167  GLY167     -0.1940
     72  CA         0.6680   50.7240   74.7900 C.3   167  GLY167      0.2014
     73  C         -0.6210   49.9780   75.1370 C.2   167  GLY167      0.2639
     74  O         -0.6160   49.0460   75.9550 O.2   167  GLY167     -0.2714
     75  N         -1.7180   50.3910   74.5140 N.am  168  GLN168     -0.1963
     76  CA        -3.0570   49.8790   74.8420 C.3   168  GLN168      0.1733
     77  C         -3.0540   48.3560   74.8660 C.2   168  GLN168      0.2616
     78  O         -2.5220   47.7240   73.9380 O.2   168  GLN168     -0.2715
     79  CB        -4.0700   50.4040   73.8250 C.3   168  GLN168      0.0408
     80  CG        -5.5470   49.9300   74.0290 C.3   168  GLN168      0.0908
     81  CD        -6.1720   50.5490   75.2660 C.2   168  GLN168      0.2608
     82  OE1       -6.2600   51.7790   75.3660 O.2   168  GLN168     -0.2717
     83  NE2       -6.5570   49.7110   76.2430 N.am  168  GLN168     -0.0878
     84  N         -3.6120   47.7830   75.9340 N.am  169  ASP169     -0.1957
     85  CA        -3.8040   46.3480   76.0670 C.3   169  ASP169      0.1840
     86  C         -2.5080   45.5440   76.1620 C.2   169  ASP169      0.2622
     87  O         -2.5490   44.3360   76.1130 O.2   169  ASP169     -0.2715
     88  CB        -4.6850   45.7780   74.9240 C.3   169  ASP169      0.1450
     89  CG        -6.1160   46.3400   74.9360 C.2   169  ASP169      0.3671
     90  OD1       -6.5090   46.9500   75.9400 O.co2 169  ASP169     -0.2456
     91  OD2       -6.8500   46.1930   73.9270 O.co2 169  ASP169     -0.2456
     92  N         -1.3560   46.1860   76.3070 N.am  170  PHE170     -0.1974
     93  CA        -0.1130   45.4280   76.4170 C.3   170  PHE170      0.1639
     94  C         -0.0960   44.6170   77.7250 C.2   170  PHE170      0.2290
     95  O         -0.4580   45.1290   78.8160 O.2   170  PHE170     -0.2864
     96  CB         1.0480   46.3720   76.3720 C.3   170  PHE170      0.0560
     97  CG         2.3990   45.7090   76.3680 C.ar  170  PHE170     -0.0200
     98  CD1        2.7720   44.8480   75.3340 C.ar  170  PHE170     -0.0042
     99  CD2        3.3160   46.0180   77.3450 C.ar  170  PHE170     -0.0042
    100  CE1        4.0420   44.2800   75.2840 C.ar  170  PHE170     -0.0003
    101  CE2        4.6210   45.4890   77.3110 C.ar  170  PHE170     -0.0003
    102  CZ         4.9830   44.6060   76.2920 C.ar  170  PHE170     -0.0000
@<TRIPOS>BOND
     1    38    37   ar
     2    39    37   ar
     3    37    36    1
     4    22    20   am
     5    20    19    1
     6    20    21    2
     7    19    16    1
     8     7     9   ar
     9     7     6   ar
    10     4     3    2
    11     9    10   ar
    12     5     6    1
    13     5     2    1
    14    36    35    1
    15     6     8   ar
    16    35    32    1
    17     3     2    1
    18    10     8   ar
    19    10    12   ar
    20    15    16    1
    21    16    17    1
    22     8    11   ar
    23     1     2    1
    24    12    14   ar
    25    11    13   ar
    26    17    18    2
    27    17    23   am
    28    32    31    1
    29    32    33    1
    30    14    13   ar
    31    31    25   am
    32    33    34    2
    33    23    24    1
    34    25    24    1
    35    25    26    2
    36    24    27    1
    37    67    65   ar
    38    67    69   ar
    39    65    64   ar
    40    27    28    1
    41    49    50    1
    42    70    69    1
    43    28    30    1
    44    28    29    1
    45    69    68   ar
    46    64    63    1
    47    64    66   ar
    48    63    60    1
    49    59    60    1
    50    59    51   am
    51    60    61    1
    52    51    50    1
    53    51    52    2
    54    50    53    1
    55    44    45    1
    56    44    41    1
    57    40    41    1
    58    45    46    1
    59    42    41    1
    60    42    43    2
    61    68    66   ar
    62    71    61   am
    63    71    72    1
    64    79    80    1
    65    79    76    1
    66    91    89   ar
    67    78    77    2
    68    61    62    2
    69    80    81    1
    70    53    54    1
    71    75    76    1
    72    75    73   am
    73    46    47   ar
    74    46    48   ar
    75    72    73    1
    76    76    77    1
    77    77    84   am
    78    88    89    1
    79    88    85    1
    80    89    90   ar
    81    54    56   ar
    82    54    55   ar
    83    56    58   ar
    84    73    74    2
    85    81    82    2
    86    81    83   am
    87   100    98   ar
    88   100   102   ar
    89    98    97   ar
    90    55    57   ar
    91    58    57   ar
    92    84    85    1
    93    85    86    1
    94    87    86    2
    95    86    92   am
    96   102   101   ar
    97    92    93    1
    98    97    96    1
    99    97    99   ar
   100    96    93    1
   101    93    94    1
   102   101    99   ar
   103    94    95    2
