@<TRIPOS>MOLECULE
tmp/3ju7A00.pdb
 120 119 0 0 0
SMALL
GASTEIGER

@<TRIPOS>ATOM
      1  N         17.7880   75.0120   74.3350 N.3     5  PHE5       -0.1227
      2  CA        17.3710   73.6520   73.9280 C.3     5  PHE5        0.1736
      3  C         16.0190   73.3050   74.5220 C.2     5  PHE5        0.2595
      4  O         15.1470   72.8080   73.8180 O.2     5  PHE5       -0.2718
      5  CB        18.3930   72.5560   74.2620 C.3     5  PHE5        0.0547
      6  CG        17.9150   71.1630   73.9160 C.ar    5  PHE5       -0.0202
      7  CD1       17.8800   70.7380   72.5990 C.ar    5  PHE5       -0.0042
      8  CD2       17.4580   70.2950   74.9110 C.ar    5  PHE5       -0.0042
      9  CE1       17.4140   69.4680   72.2740 C.ar    5  PHE5       -0.0003
     10  CE2       16.9840   69.0450   74.5940 C.ar    5  PHE5       -0.0003
     11  CZ        16.9770   68.6270   73.2560 C.ar    5  PHE5       -0.0000
     12  N         15.8520   73.5630   75.8130 N.am    6  LEU6       -0.1980
     13  CA        14.5920   73.2820   76.4480 C.3     6  LEU6        0.1596
     14  C         13.9880   74.5410   77.0460 C.2     6  LEU6        0.2287
     15  O         14.6810   75.4170   77.5390 O.2     6  LEU6       -0.2864
     16  CB        14.7270   72.1560   77.4810 C.3     6  LEU6        0.0297
     17  CG        15.6630   72.2550   78.6890 C.3     6  LEU6        0.0022
     18  CD1       15.5650   70.9260   79.4240 C.3     6  LEU6        0.0001
     19  CD2       17.1150   72.5210   78.3270 C.3     6  LEU6        0.0001
     20  N         18.1600   56.7530   77.1600 N.3    83  PHE83      -0.1241
     21  CA        18.5670   57.6530   78.2200 C.3    83  PHE83       0.1605
     22  C         19.1370   56.7880   79.3690 C.2    83  PHE83       0.2264
     23  O         18.7170   55.6620   79.5510 O.2    83  PHE83      -0.2867
     24  CB        17.3790   58.4720   78.6760 C.3    83  PHE83       0.0534
     25  CG        17.7180   59.5650   79.6800 C.ar   83  PHE83      -0.0203
     26  CD1       18.4670   60.6610   79.2960 C.ar   83  PHE83      -0.0042
     27  CD2       17.1810   59.5500   80.9550 C.ar   83  PHE83      -0.0042
     28  CE1       18.7730   61.6560   80.1840 C.ar   83  PHE83      -0.0003
     29  CE2       17.4690   60.5570   81.8330 C.ar   83  PHE83      -0.0003
     30  CZ        18.2770   61.6210   81.4380 C.ar   83  PHE83      -0.0000
     31  N         13.0180   50.4870   74.4920 N.3   130  TYR130     -0.1241
     32  CA        12.6950   51.9230   74.5580 C.3   130  TYR130      0.1605
     33  C         11.9600   52.3900   73.2950 C.2   130  TYR130      0.2264
     34  O         12.4180   52.1610   72.1930 O.2   130  TYR130     -0.2867
     35  CB        13.9890   52.6780   74.7550 C.3   130  TYR130      0.0534
     36  CG        13.9400   54.1580   74.5180 C.ar  130  TYR130     -0.0201
     37  CD1       12.9260   54.9380   75.0280 C.ar  130  TYR130     -0.0009
     38  CD2       14.9630   54.7880   73.8270 C.ar  130  TYR130     -0.0009
     39  CE1       12.9120   56.3170   74.8120 C.ar  130  TYR130      0.0417
     40  CE2       14.9500   56.1610   73.6110 C.ar  130  TYR130      0.0417
     41  CZ        13.9290   56.9220   74.0940 C.ar  130  TYR130      0.1957
     42  OH        13.9140   58.2970   73.8400 O.3   130  TYR130     -0.2866
     43  N          9.1320   59.3250   77.1240 N.3   157  PRO157     -0.2116
     44  CA         8.6540   60.5630   76.5060 C.3   157  PRO157      0.1372
     45  C          7.3780   60.4830   75.6560 C.2   157  PRO157      0.2244
     46  O          7.0630   61.4290   74.9370 O.2   157  PRO157     -0.2868
     47  CB         9.8420   60.9890   75.6390 C.3   157  PRO157      0.0268
     48  CG        10.6130   59.7740   75.3730 C.3   157  PRO157      0.0207
     49  CD        10.2560   58.7240   76.3690 C.3   157  PRO157      0.0892
     50  N          7.9790   64.3170   83.6110 N.3   178  HIS178     -0.1241
     51  CA         8.9730   65.3440   83.8920 C.3   178  HIS178      0.1621
     52  C          8.6300   66.6130   83.1090 C.2   178  HIS178      0.2264
     53  O          8.0660   66.5390   82.0070 O.2   178  HIS178     -0.2867
     54  CB        10.3570   64.8510   83.5150 C.3   178  HIS178      0.0745
     55  CG        11.4740   65.7040   84.0180 C.ar  178  HIS178      0.0817
     56  ND1       12.1210   66.6280   83.2250 N.ar  178  HIS178     -0.2268
     57  CD2       12.1090   65.7290   85.2190 C.ar  178  HIS178      0.1154
     58  CE1       13.0980   67.1970   83.9210 C.ar  178  HIS178      0.1986
     59  NE2       13.1150   66.6660   85.1330 N.ar  178  HIS178     -0.2212
     60  N         10.2440   68.5550   81.2960 N.3   180  THR180     -0.1218
     61  CA        10.8330   68.6700   79.9670 C.3   180  THR180      0.1862
     62  C         10.1850   67.7370   78.9440 C.2   180  THR180      0.2287
     63  O         10.4200   67.8690   77.7670 O.2   180  THR180     -0.2866
     64  CB        12.3660   68.3680   80.0320 C.3   180  THR180      0.1770
     65  OG1       12.6020   67.0270   80.5140 O.3   180  THR180     -0.2211
     66  CG2       13.0030   69.3010   80.9890 C.3   180  THR180      0.0375
     67  N          9.4310   65.8200   71.9040 N.3   272  GLN272     -0.1231
     68  CA        10.0870   66.5270   72.9920 C.3   272  GLN272      0.1698
     69  C         11.0900   67.5260   72.4000 C.2   272  GLN272      0.2592
     70  O         11.3590   68.5640   72.9650 O.2   272  GLN272     -0.2718
     71  CB        10.8400   65.4760   73.8100 C.3   272  GLN272      0.0381
     72  CG        11.4810   65.9280   75.0420 C.3   272  GLN272      0.0905
     73  CD        12.0960   64.7730   75.7860 C.2   272  GLN272      0.2608
     74  OE1       12.6900   64.9660   76.8390 O.2   272  GLN272     -0.2717
     75  NE2       11.9890   63.5590   75.2230 N.am  272  GLN272     -0.0878
     76  N         11.6910   67.1220   71.2940 N.am  273  PHE273     -0.1976
     77  CA        12.6570   67.8990   70.5100 C.3   273  PHE273      0.1639
     78  C         12.5890   67.2700   69.1050 C.2   273  PHE273      0.2290
     79  O         11.7890   66.3500   68.8930 O.2   273  PHE273     -0.2864
     80  CB        14.0790   67.8240   71.0930 C.3   273  PHE273      0.0560
     81  CG        14.5280   66.4350   71.4780 C.ar  273  PHE273     -0.0200
     82  CD1       15.0620   65.5640   70.5220 C.ar  273  PHE273     -0.0042
     83  CD2       14.4400   66.0040   72.8080 C.ar  273  PHE273     -0.0042
     84  CE1       15.5040   64.2710   70.8870 C.ar  273  PHE273     -0.0003
     85  CE2       14.8840   64.7230   73.2030 C.ar  273  PHE273     -0.0003
     86  CZ        15.4270   63.8480   72.2520 C.ar  273  PHE273     -0.0000
     87  N         21.3280   69.5150   71.0980 N.3   298  ARG298     -0.1245
     88  CA        22.0330   68.5000   71.8630 C.3   298  ARG298      0.1563
     89  C         22.1890   67.2230   71.0250 C.2   298  ARG298      0.2260
     90  O         21.7790   67.1940   69.8680 O.2   298  ARG298     -0.2867
     91  CB        21.3180   68.2220   73.1940 C.3   298  ARG298      0.0307
     92  CG        21.3260   69.4150   74.1280 C.3   298  ARG298      0.0489
     93  CD        20.8020   69.0510   75.4950 C.3   298  ARG298      0.2205
     94  NE        20.5750   70.2310   76.3150 N.pl3 298  ARG298     -0.0865
     95  CZ        20.0530   70.2230   77.5450 C.cat 298  ARG298      0.5346
     96  NH1       19.7150   69.0950   78.1490 N.pl3 298  ARG298      0.1354
     97  NH2       19.8820   71.3680   78.1930 N.pl3 298  ARG298      0.1354
     98  N         21.1970   63.5430   71.7890 N.3   300  TYR300     -0.1227
     99  CA        20.5670   62.3810   72.3890 C.3   300  TYR300      0.1736
    100  C         20.5030   61.2150   71.3590 C.2   300  TYR300      0.2595
    101  O         19.6740   61.2570   70.4500 O.2   300  TYR300     -0.2718
    102  CB        19.1510   62.7750   72.8720 C.3   300  TYR300      0.0548
    103  CG        19.2180   63.7170   74.0510 C.ar  300  TYR300     -0.0200
    104  CD1       19.7640   63.2890   75.2690 C.ar  300  TYR300     -0.0009
    105  CD2       18.7840   65.0420   73.9550 C.ar  300  TYR300     -0.0009
    106  CE1       19.8580   64.1480   76.3630 C.ar  300  TYR300      0.0417
    107  CE2       18.8700   65.9140   75.0520 C.ar  300  TYR300      0.0417
    108  CZ        19.4230   65.4610   76.2430 C.ar  300  TYR300      0.1957
    109  OH        19.5310   66.2950   77.3270 O.3   300  TYR300     -0.2866
    110  N         21.3040   60.1520   71.4670 N.am  301  PHE301     -0.1976
    111  CA        22.1740   59.7950   72.5590 C.3   301  PHE301      0.1639
    112  C         23.5760   59.5720   72.0400 C.2   301  PHE301      0.2290
    113  O         23.8930   58.5440   71.4390 O.2   301  PHE301     -0.2864
    114  CB        21.6370   58.5310   73.1970 C.3   301  PHE301      0.0560
    115  CG        20.2650   58.6940   73.6870 C.ar  301  PHE301     -0.0200
    116  CD1       20.0190   59.4350   74.8390 C.ar  301  PHE301     -0.0042
    117  CD2       19.2030   58.1980   72.9650 C.ar  301  PHE301     -0.0042
    118  CE1       18.7330   59.6510   75.2830 C.ar  301  PHE301     -0.0003
    119  CE2       17.9170   58.4120   73.4030 C.ar  301  PHE301     -0.0003
    120  CZ        17.6830   59.1460   74.5560 C.ar  301  PHE301     -0.0000
@<TRIPOS>BOND
     1    79    78    2
     2    78    77    1
     3    90    89    2
     4   101   100    2
     5    77    80    1
     6    77    76    1
     7    82    84   ar
     8    82    81   ar
     9    84    86   ar
    10    89    88    1
    11    80    81    1
    12    87    88    1
    13    76    69   am
    14   100   110   am
    15   100    99    1
    16   113   112    2
    17   110   111    1
    18    81    83   ar
    19    98    99    1
    20    88    91    1
    21    67    68    1
    22   112   111    1
    23    34    33    2
    24    86    85   ar
    25     9     7   ar
    26     9    11   ar
    27    99   102    1
    28    69    70    2
    29    69    68    1
    30   111   114    1
    31     7     6   ar
    32    83    85   ar
    33   102   103    1
    34   117   119   ar
    35   117   115   ar
    36    68    71    1
    37    91    92    1
    38   114   115    1
    39    11    10   ar
    40    33    32    1
    41   119   120   ar
    42    40    38   ar
    43    40    41   ar
    44   115   116   ar
    45    71    72    1
    46     4     3    2
    47    38    36   ar
    48    42    41    1
    49     6     5    1
    50     6     8   ar
    51     2     5    1
    52     2     1    1
    53     2     3    1
    54   105   103   ar
    55   105   107   ar
    56   103   104   ar
    57    41    39   ar
    58    92    93    1
    59    31    32    1
    60    36    35    1
    61    36    37   ar
    62     3    12   am
    63   120   118   ar
    64    32    35    1
    65    10     8   ar
    66    39    37   ar
    67   116   118   ar
    68    46    45    2
    69    72    73    1
    70   107   108   ar
    71    75    73   am
    72   104   106   ar
    73    48    47    1
    74    48    49    1
    75    93    94    1
    76    47    44    1
    77    45    44    1
    78    73    74    2
    79    12    13    1
    80   108   106   ar
    81   108   109    1
    82    94    95    2
    83    49    43    1
    84    13    14    1
    85    13    16    1
    86    44    43    1
    87    14    15    2
    88    20    21    1
    89    16    17    1
    90    95    96    1
    91    95    97    1
    92    63    62    2
    93    21    24    1
    94    21    22    1
    95    19    17    1
    96    24    25    1
    97    17    18    1
    98    62    61    1
    99    26    25   ar
   100    26    28   ar
   101    22    23    2
   102    25    27   ar
   103    61    64    1
   104    61    60    1
   105    64    65    1
   106    64    66    1
   107    28    30   ar
   108    27    29   ar
   109    30    29   ar
   110    53    52    2
   111    52    51    1
   112    56    58   ar
   113    56    55   ar
   114    54    51    1
   115    54    55    1
   116    50    51    1
   117    58    59   ar
   118    55    57   ar
   119    59    57   ar
