@<TRIPOS>MOLECULE
tmp/3ju8A01.pdb
 88 86 0 0 0
SMALL
GASTEIGER

@<TRIPOS>ATOM
      1  N         19.0240   24.5460   64.0990 N.3   144  ASN144     -0.1225
      2  CA        19.0670   23.3790   64.9890 C.3   144  ASN144      0.1785
      3  C         19.8660   22.1950   64.4000 C.2   144  ASN144      0.2597
      4  O         20.5970   21.4870   65.1330 O.2   144  ASN144     -0.2718
      5  CB        17.6610   22.9490   65.4150 C.3   144  ASN144      0.1169
      6  CG        16.7860   22.5400   64.2590 C.2   144  ASN144      0.2627
      7  OD1       16.9470   22.9870   63.1100 O.2   144  ASN144     -0.2716
      8  ND2       15.8090   21.7160   64.5640 N.am  144  ASN144     -0.0877
      9  N         19.7010   22.0090   63.0870 N.am  145  PHE145     -0.1976
     10  CA        20.5420   21.0930   62.2790 C.3   145  PHE145      0.1639
     11  C         21.1320   21.9290   61.1400 C.2   145  PHE145      0.2290
     12  O         20.6420   21.8690   60.0110 O.2   145  PHE145     -0.2864
     13  CB        19.7080   19.9950   61.6250 C.3   145  PHE145      0.0560
     14  CG        19.3130   18.8890   62.5510 C.ar  145  PHE145     -0.0200
     15  CD1       20.1950   17.8600   62.8470 C.ar  145  PHE145     -0.0042
     16  CD2       18.0260   18.8510   63.0790 C.ar  145  PHE145     -0.0042
     17  CE1       19.8100   16.8010   63.6600 C.ar  145  PHE145     -0.0003
     18  CE2       17.6400   17.8130   63.9180 C.ar  145  PHE145     -0.0003
     19  CZ        18.5380   16.7880   64.2130 C.ar  145  PHE145     -0.0000
     20  N         22.6690   19.3450   58.4260 N.3   148  HIS148     -0.1226
     21  CA        21.8060   18.3090   57.8510 C.3   148  HIS148      0.1752
     22  C         20.5290   18.8420   57.1460 C.2   148  HIS148      0.2595
     23  O         20.1500   18.3630   56.0600 O.2   148  HIS148     -0.2718
     24  CB        21.4250   17.3040   58.9740 C.3   148  HIS148      0.0759
     25  CG        20.3200   16.3590   58.6030 C.ar  148  HIS148      0.0818
     26  ND1       20.4730   15.3650   57.6630 N.ar  148  HIS148     -0.2268
     27  CD2       19.0430   16.2590   59.0510 C.ar  148  HIS148      0.1154
     28  CE1       19.3370   14.7000   57.5350 C.ar  148  HIS148      0.1986
     29  NE2       18.4560   15.2150   58.3780 N.ar  148  HIS148     -0.2212
     30  N         19.8290   19.8070   57.7600 N.am  149  LEU149     -0.1980
     31  CA        18.5420   20.1970   57.1820 C.3   149  LEU149      0.1596
     32  C         18.7000   21.0170   55.8700 C.2   149  LEU149      0.2287
     33  O         18.0160   20.7450   54.8830 O.2   149  LEU149     -0.2864
     34  CB        17.6450   20.8890   58.2310 C.3   149  LEU149      0.0297
     35  CG        16.9750   19.8650   59.1750 C.3   149  LEU149      0.0022
     36  CD1       16.2670   20.6010   60.3290 C.3   149  LEU149      0.0001
     37  CD2       16.0030   18.9500   58.4170 C.3   149  LEU149      0.0001
     38  N         14.9810   19.7540   68.4430 N.3   274  ARG274     -0.1231
     39  CA        14.6060   19.1340   67.1490 C.3   274  ARG274      0.1694
     40  C         13.1560   19.4410   66.8430 C.2   274  ARG274      0.2592
     41  O         12.3390   19.5520   67.7450 O.2   274  ARG274     -0.2718
     42  CB        14.8250   17.6210   67.1950 C.3   274  ARG274      0.0321
     43  CG        16.2630   17.2730   67.5660 C.3   274  ARG274      0.0489
     44  CD        16.5420   15.7910   67.3530 C.3   274  ARG274      0.2205
     45  NE        17.9360   15.5140   67.6810 N.pl3 274  ARG274     -0.0865
     46  CZ        18.5430   14.3680   67.4310 C.cat 274  ARG274      0.5346
     47  NH1       17.8840   13.4040   66.8230 N.pl3 274  ARG274      0.1354
     48  NH2       19.8100   14.1980   67.7910 N.pl3 274  ARG274      0.1354
     49  N         12.7950   19.5730   65.5620 N.am  275  CYS275     -0.1956
     50  CA        11.3960   19.9000   65.3370 C.3   275  CYS275      0.1843
     51  C         10.5120   18.7100   65.7130 C.2   275  CYS275      0.2626
     52  O          9.3530   18.8990   65.9910 O.2   275  CYS275     -0.2714
     53  CB        11.1450   20.2130   63.8890 C.3   275  CYS275      0.0997
     54  SG        11.6050   18.8240   62.9420 S.3   275  CYS275     -0.0797
     55  N         11.0600   17.4990   65.7200 N.am  276  THR276     -0.1950
     56  CA        10.2510   16.3590   66.1790 C.3   276  THR276      0.1897
     57  C         10.2010   16.1310   67.7180 C.2   276  THR276      0.2313
     58  O          9.5950   15.1530   68.1570 O.2   276  THR276     -0.2863
     59  CB        10.8030   15.0800   65.6390 C.3   276  THR276      0.1794
     60  OG1       12.2090   15.0730   65.8490 O.3   276  THR276     -0.2208
     61  CG2       10.4880   14.9320   64.1210 C.3   276  THR276      0.0378
     62  N         12.0430   11.4650   68.0500 N.3   430  THR430     -0.1203
     63  CA        13.1540   12.0870   67.3840 C.3   430  THR430      0.1994
     64  C         13.9000   11.1110   66.4780 C.2   430  THR430      0.2618
     65  O         13.6800    9.9110   66.5340 O.2   430  THR430     -0.2717
     66  CB        14.1040   12.6580   68.4440 C.3   430  THR430      0.1784
     67  OG1       14.2570   11.7030   69.5230 O.3   430  THR430     -0.2211
     68  CG2       13.4530   13.9440   69.0450 C.3   430  THR430      0.0376
     69  N         14.7500   11.6400   65.6110 N.am  431  GLY431     -0.1942
     70  CA        15.5880   10.7980   64.7590 C.3   431  GLY431      0.2014
     71  C         14.9020   10.0290   63.6280 C.2   431  GLY431      0.2638
     72  O         15.0560    8.8090   63.5170 O.2   431  GLY431     -0.2714
     73  N         14.1510   10.7360   62.7860 N.am  432  ALA432     -0.1977
     74  CA        13.4730   10.1220   61.6400 C.3   432  ALA432      0.1597
     75  C         14.4550    9.7040   60.5250 C.2   432  ALA432      0.2287
     76  O         15.4910   10.3470   60.3360 O.2   432  ALA432     -0.2864
     77  CB        12.4640   11.0750   61.0940 C.3   432  ALA432      0.0319
     78  N          9.4700   13.1750   55.0920 N.3   438  PHE438     -0.1241
     79  CA         9.4660   13.8600   56.3690 C.3   438  PHE438      0.1605
     80  C          8.7050   15.1370   56.1040 C.2   438  PHE438      0.2264
     81  O          9.2540   16.0970   55.5770 O.2   438  PHE438     -0.2867
     82  CB        10.9020   14.1950   56.8290 C.3   438  PHE438      0.0534
     83  CG        10.9720   14.8260   58.2170 C.ar  438  PHE438     -0.0203
     84  CD1       11.3020   14.0640   59.3100 C.ar  438  PHE438     -0.0042
     85  CD2       10.6960   16.1670   58.4040 C.ar  438  PHE438     -0.0042
     86  CE1       11.3630   14.6380   60.5870 C.ar  438  PHE438     -0.0003
     87  CE2       10.7330   16.7370   59.6620 C.ar  438  PHE438     -0.0003
     88  CZ        11.0770   15.9700   60.7500 C.ar  438  PHE438     -0.0000
@<TRIPOS>BOND
     1    33    32    2
     2    78    79    1
     3    81    80    2
     4    32    31    1
     5    23    22    2
     6    80    79    1
     7    79    82    1
     8    82    83    1
     9    22    30   am
    10    22    21    1
    11    31    30    1
    12    31    34    1
    13    28    26   ar
    14    28    29   ar
    15    26    25   ar
    16    21    20    1
    17    21    24    1
    18    83    85   ar
    19    83    84   ar
    20    34    35    1
    21    29    27   ar
    22    85    87   ar
    23    37    35    1
    24    25    24    1
    25    25    27   ar
    26    35    36    1
    27    84    86   ar
    28    87    88   ar
    29    12    11    2
    30    76    75    2
    31    75    74    1
    32    86    88   ar
    33    77    74    1
    34    11    10    1
    35    13    10    1
    36    13    14    1
    37    74    73    1
    38    10     9    1
    39    14    15   ar
    40    14    16   ar
    41    73    71   am
    42    15    17   ar
    43    54    53    1
    44    16    18   ar
    45     9     3   am
    46     7     6    2
    47    72    71    2
    48    71    70    1
    49    17    19   ar
    50    53    50    1
    51    18    19   ar
    52     1     2    1
    53    61    59    1
    54     6     8   am
    55     6     5    1
    56     3     2    1
    57     3     4    2
    58    70    69    1
    59     2     5    1
    60    50    49    1
    61    50    51    1
    62    49    40   am
    63    69    64   am
    64    59    60    1
    65    59    56    1
    66    51    55   am
    67    51    52    2
    68    55    56    1
    69    56    57    1
    70    64    65    2
    71    64    63    1
    72    47    46    1
    73    40    39    1
    74    40    41    2
    75    39    42    1
    76    39    38    1
    77    42    43    1
    78    44    43    1
    79    44    45    1
    80    63    62    1
    81    63    66    1
    82    46    45    2
    83    46    48    1
    84    57    58    2
    85    66    68    1
    86    66    67    1
