@<TRIPOS>MOLECULE
tmp/3jucA00.pdb
 97 97 0 0 0
SMALL
GASTEIGER

@<TRIPOS>ATOM
      1  N          8.0080    2.5340   13.0460 N.3     5  PHE5       -0.1227
      2  CA         7.1380    3.5650   12.4900 C.3     5  PHE5        0.1736
      3  C          5.7050    3.0460   12.5060 C.2     5  PHE5        0.2595
      4  O          5.4330    2.0320   11.8470 O.2     5  PHE5       -0.2718
      5  CB         7.5730    3.9060   11.0630 C.3     5  PHE5        0.0547
      6  CG         6.6980    4.9090   10.3600 C.ar    5  PHE5       -0.0202
      7  CD1        6.7670    6.2700   10.6920 C.ar    5  PHE5       -0.0042
      8  CD2        5.8480    4.5300    9.3480 C.ar    5  PHE5       -0.0042
      9  CE1        5.9990    7.1780    9.9940 C.ar    5  PHE5       -0.0003
     10  CE2        5.0820    5.4520    8.6840 C.ar    5  PHE5       -0.0003
     11  CZ         5.1680    6.7750    8.9840 C.ar    5  PHE5       -0.0000
     12  N          4.8370    3.7030   13.2590 N.am    6  VAL6       -0.1966
     13  CA         3.4320    3.3130   13.3650 C.3     6  VAL6        0.1727
     14  C          2.5940    4.3470   12.6230 C.2     6  VAL6        0.2616
     15  O          2.8070    5.5630   12.7290 O.2     6  VAL6       -0.2715
     16  CB         2.9560    3.0500   14.8050 C.3     6  VAL6        0.0290
     17  CG1        3.7630    1.9480   15.4250 C.3     6  VAL6        0.0023
     18  CG2        2.9630    4.2840   15.6400 C.3     6  VAL6        0.0023
     19  N          1.5890    3.8470   11.9010 N.am    7  TYR7       -0.1960
     20  CA         0.7750    4.6620   11.0050 C.3     7  TYR7        0.1771
     21  C         -0.7380    4.4470   11.2060 C.2     7  TYR7        0.2620
     22  O         -1.5180    5.1550   10.5750 O.2     7  TYR7       -0.2715
     23  CB         1.1250    4.3610    9.5320 C.3     7  TYR7        0.0574
     24  CG         0.8760    2.9160    9.1790 C.ar    7  TYR7       -0.0198
     25  CD1       -0.3920    2.4620    8.8550 C.ar    7  TYR7       -0.0009
     26  CD2        1.9020    1.9780    9.2280 C.ar    7  TYR7       -0.0009
     27  CE1       -0.6540    1.1020    8.5790 C.ar    7  TYR7        0.0417
     28  CE2        1.6720    0.6260    8.9700 C.ar    7  TYR7        0.0417
     29  CZ         0.3920    0.2070    8.6310 C.ar    7  TYR7        0.1957
     30  OH         0.1260   -1.1030    8.2910 O.3     7  TYR7       -0.2866
     31  N         -1.1150    3.4770   12.0250 N.am    8  GLY8       -0.1940
     32  CA        -2.4780    3.0260   12.0930 C.3     8  GLY8        0.2014
     33  C         -3.0360    3.1520   13.5050 C.2     8  GLY8        0.2640
     34  O         -2.9370    4.2070   14.1410 O.2     8  GLY8       -0.2714
     35  N         -3.6390    2.0650   13.9940 N.am    9  THR9       -0.1936
     36  CA        -4.3170    2.0680   15.2700 C.3     9  THR9        0.2028
     37  C         -3.3950    2.1980   16.4880 C.2     9  THR9        0.2642
     38  O         -3.8740    2.4330   17.5930 O.2     9  THR9       -0.2714
     39  CB        -5.2040    0.8140   15.4380 C.3     9  THR9        0.1808
     40  OG1       -4.3790   -0.3340   15.5520 O.3     9  THR9       -0.2208
     41  CG2       -6.2870    0.6870   14.3860 C.3     9  THR9        0.0379
     42  N         -2.0740    2.0920   16.2880 N.am   10  LEU10      -0.1977
     43  CA        -1.1130    2.2760   17.3780 C.3    10  LEU10       0.1596
     44  C         -0.7320    3.7370   17.6410 C.2    10  LEU10       0.2287
     45  O         -0.1020    4.0020   18.6780 O.2    10  LEU10      -0.2864
     46  CB         0.1570    1.4570   17.1110 C.3    10  LEU10       0.0297
     47  CG         0.0040   -0.0920   17.1300 C.3    10  LEU10       0.0022
     48  CD1        1.2850   -0.7450   16.5660 C.3    10  LEU10       0.0001
     49  CD2       -0.2760   -0.5990   18.5250 C.3    10  LEU10       0.0001
     50  N         -9.7720   -2.2090    9.4240 N.3    50  ILE50      -0.1231
     51  CA        -8.3730   -2.1050    9.7670 C.3    50  ILE50       0.1678
     52  C         -7.6030   -1.3400    8.6910 C.2    50  ILE50       0.2434
     53  O         -7.8730   -1.4990    7.5030 O.2    50  ILE50      -0.2733
     54  CB        -7.8200   -3.5660    9.9040 C.3    50  ILE50       0.0265
     55  CG1       -8.3350   -4.2210   11.1980 C.3    50  ILE50       0.0019
     56  CG2       -6.2880   -3.6030    9.8630 C.3    50  ILE50       0.0020
     57  CD1       -8.1860   -5.7220   11.2450 C.3    50  ILE50       0.0001
     58  N         -6.6280   -0.5220    9.0910 N.am   51  PRO51      -0.2729
     59  CA        -5.7190    0.1140    8.1270 C.3    51  PRO51       0.1401
     60  C         -4.5520   -0.7970    7.7430 C.2    51  PRO51       0.2269
     61  O         -3.9390   -1.4430    8.6000 O.2    51  PRO51      -0.2865
     62  CB        -5.2530    1.3570    8.8830 C.3    51  PRO51       0.0296
     63  CG        -5.2070    0.9130   10.3230 C.3    51  PRO51       0.0237
     64  CD        -6.3940   -0.0300   10.4560 C.3    51  PRO51       0.0939
     65  N          0.2620   -7.9850   15.6280 N.3    82  GLU82      -0.1245
     66  CA         0.0130   -7.7930   14.1960 C.3    82  GLU82       0.1567
     67  C         -0.0360   -9.1230   13.3860 C.2    82  GLU82       0.2260
     68  O         -0.0300   -9.1350   12.1430 O.2    82  GLU82      -0.2867
     69  CB         1.0400   -6.8310   13.5910 C.3    82  GLU82       0.0388
     70  CG         1.0290   -5.4630   14.2730 C.3    82  GLU82       0.1160
     71  CD        -0.3440   -4.6920   14.2020 C.2    82  GLU82       0.3649
     72  OE1       -1.1670   -4.9800   13.3910 O.co2  82  GLU82      -0.2457
     73  OE2       -0.5950   -3.8130   15.0790 O.co2  82  GLU82      -0.2457
     74  N          0.3840   -9.2880    8.5530 N.3    88  TYR88      -0.1241
     75  CA         1.3780   -8.2560    8.2360 C.3    88  TYR88       0.1605
     76  C          2.7470   -8.9270    8.2490 C.2    88  TYR88       0.2264
     77  O          2.9360   -9.9820    8.8750 O.2    88  TYR88      -0.2867
     78  CB         1.3770   -7.1210    9.2670 C.3    88  TYR88       0.0534
     79  CG         0.1230   -6.2680    9.3450 C.ar   88  TYR88      -0.0201
     80  CD1        0.0410   -5.0590    8.6710 C.ar   88  TYR88      -0.0009
     81  CD2       -0.9700   -6.6450   10.1430 C.ar   88  TYR88      -0.0009
     82  CE1       -1.0830   -4.2330    8.7980 C.ar   88  TYR88       0.0417
     83  CE2       -2.0780   -5.8320   10.2900 C.ar   88  TYR88       0.0417
     84  CZ        -2.1250   -4.6200    9.6190 C.ar   88  TYR88       0.1957
     85  OH        -3.2380   -3.8220    9.8210 O.3    88  TYR88      -0.2866
     86  N          4.9640   -2.3570    9.9050 N.3   117  TYR117     -0.1241
     87  CA         4.1060   -3.4950    9.6090 C.3   117  TYR117      0.1605
     88  C          3.3590   -3.2410    8.2980 C.2   117  TYR117      0.2264
     89  O          2.4690   -2.3950    8.2240 O.2   117  TYR117     -0.2867
     90  CB         3.1530   -3.7730   10.7910 C.3   117  TYR117      0.0534
     91  CG         3.8990   -4.2540   11.9810 C.ar  117  TYR117     -0.0201
     92  CD1        4.3640   -5.5600   12.0520 C.ar  117  TYR117     -0.0009
     93  CD2        4.2160   -3.3840   13.0440 C.ar  117  TYR117     -0.0009
     94  CE1        5.1270   -6.0150   13.1480 C.ar  117  TYR117      0.0417
     95  CE2        4.9520   -3.8150   14.1000 C.ar  117  TYR117      0.0417
     96  CZ         5.4130   -5.1170   14.1730 C.ar  117  TYR117      0.1957
     97  OH         6.1650   -5.5100   15.2420 O.3   117  TYR117     -0.2866
@<TRIPOS>BOND
     1    53    52    2
     2    60    59    1
     3    60    61    2
     4    59    62    1
     5    59    58    1
     6    89    88    2
     7    75    76    1
     8    75    74    1
     9    75    78    1
    10    76    77    2
    11    30    29    1
    12    88    87    1
    13    27    29   ar
    14    27    25   ar
    15    29    28   ar
    16    80    82   ar
    17    80    79   ar
    18    10    11   ar
    19    10     8   ar
    20    52    58   am
    21    52    51    1
    22    82    84   ar
    23    25    24   ar
    24    62    63    1
    25    28    26   ar
    26    11     9   ar
    27    58    64    1
    28    24    26   ar
    29    24    23    1
    30    78    79    1
    31    79    81   ar
    32     8     6   ar
    33    50    51    1
    34    23    20    1
    35    87    86    1
    36    87    90    1
    37    84    85    1
    38    84    83   ar
    39    51    54    1
    40    56    54    1
    41    54    55    1
    42     9     7   ar
    43    81    83   ar
    44    63    64    1
    45     6     7   ar
    46     6     5    1
    47    22    21    2
    48    90    91    1
    49    20    21    1
    50    20    19    1
    51     5     2    1
    52    55    57    1
    53    21    31   am
    54     4     3    2
    55    19    14   am
    56    91    92   ar
    57    91    93   ar
    58    31    32    1
    59    92    94   ar
    60    32    33    1
    61    68    67    2
    62     2     3    1
    63     2     1    1
    64     3    12   am
    65    14    15    2
    66    14    13    1
    67    93    95   ar
    68    94    96   ar
    69    12    13    1
    70    13    16    1
    71    67    66    1
    72    72    71   ar
    73    33    35   am
    74    33    34    2
    75    69    66    1
    76    69    70    1
    77    35    36    1
    78    95    96   ar
    79    96    97    1
    80    66    65    1
    81    71    70    1
    82    71    73   ar
    83    41    39    1
    84    16    17    1
    85    16    18    1
    86    36    39    1
    87    36    37    1
    88    39    40    1
    89    42    37   am
    90    42    43    1
    91    37    38    2
    92    48    47    1
    93    46    47    1
    94    46    43    1
    95    47    49    1
    96    43    44    1
    97    44    45    2
