@<TRIPOS>MOLECULE
tmp/3julA00.pdb
 120 109 0 0 0
SMALL
GASTEIGER

@<TRIPOS>ATOM
      1  N          9.0090   -7.3890   18.9030 N.3     7  THR7       -0.1218
      2  CA         8.1890   -6.5850   18.0200 C.3     7  THR7        0.1862
      3  C          6.7390   -7.0030   18.1160 C.2     7  THR7        0.2287
      4  O          6.2600   -7.7850   17.3040 O.2     7  THR7       -0.2866
      5  CB         8.6290   -6.7520   16.5550 C.3     7  THR7        0.1770
      6  OG1       10.0200   -6.4470   16.4360 O.3     7  THR7       -0.2211
      7  CG2        7.8200   -5.8240   15.6510 C.3     7  THR7        0.0375
      8  N          4.0210   -5.6030   17.2810 N.3     9  ASN9       -0.1240
      9  CA         3.1970   -5.3330   16.1090 C.3     9  ASN9        0.1653
     10  C          4.0660   -5.2220   14.8460 C.2     9  ASN9        0.2266
     11  O          4.1930   -4.1530   14.2430 O.2     9  ASN9       -0.2867
     12  CB         2.3900   -4.0500   16.3690 C.3     9  ASN9        0.1155
     13  CG         1.3120   -3.8050   15.3290 C.2     9  ASN9        0.2627
     14  OD1        0.9250   -4.7150   14.5880 O.2     9  ASN9       -0.2716
     15  ND2        0.8080   -2.5700   15.2790 N.am    9  ASN9       -0.0877
     16  N          5.6410   -5.6200   10.9680 N.3    11  ALA11      -0.1245
     17  CA         5.1260   -5.1320    9.7040 C.3    11  ALA11       0.1562
     18  C          6.0630   -5.4680    8.5670 C.2    11  ALA11       0.2260
     19  O          7.1850   -5.9230    8.7730 O.2    11  ALA11      -0.2867
     20  CB         4.9410   -3.6170    9.7720 C.3    11  ALA11       0.0290
     21  N          7.4840   -3.4500    5.3680 N.3    13  ASP13      -0.1239
     22  CA         7.5630   -2.1390    4.7550 C.3    13  ASP13       0.1674
     23  C          7.5610   -2.2490    3.2300 C.2    13  ASP13       0.2266
     24  O          8.4230   -2.9050    2.6530 O.2    13  ASP13      -0.2867
     25  CB         8.8290   -1.4150    5.2320 C.3    13  ASP13       0.1410
     26  CG         8.6850   -0.8440    6.6400 C.2    13  ASP13       0.3668
     27  OD1        7.6180   -1.0530    7.2640 O.co2  13  ASP13      -0.2456
     28  OD2        9.6380   -0.1780    7.1150 O.co2  13  ASP13      -0.2456
     29  N          9.3390   -4.5850    8.5680 N.3    38  GLY38      -0.1210
     30  CA         8.8020   -3.4860    9.3530 C.3    38  GLY38       0.1956
     31  C          8.6730   -3.8680   10.8120 C.2    38  GLY38       0.2612
     32  O          8.6980   -5.0460   11.1590 O.2    38  GLY38      -0.2717
     33  N          8.5050   -2.8700   11.6670 N.am   39  GLY39      -0.1942
     34  CA         8.4200   -3.1190   13.0940 C.3    39  GLY39       0.2014
     35  C          9.7370   -2.6220   13.6700 C.2    39  GLY39       0.2638
     36  O         10.8060   -2.8800   13.0960 O.2    39  GLY39      -0.2714
     37  N          9.6730   -1.8980   14.7840 N.am   40  LYS40      -0.1977
     38  CA        10.8820   -1.3570   15.3960 C.3    40  LYS40       0.1596
     39  C         11.8410   -2.4690   15.7950 C.2    40  LYS40       0.2287
     40  O         13.0170   -2.4520   15.4250 O.2    40  LYS40      -0.2864
     41  CB        10.5180   -0.5300   16.6200 C.3    40  LYS40       0.0298
     42  CG         9.5480    0.6110   16.3380 C.3    40  LYS40       0.0038
     43  CD        10.2660    1.9280   16.1680 C.3    40  LYS40       0.0206
     44  CE         9.3480    3.0950   16.4750 C.3    40  LYS40       0.1093
     45  NZ         8.8280    2.9730   17.8640 N.3    40  LYS40      -0.1314
     46  N         13.7160   -3.8510   12.8970 N.3    43  HIS43      -0.1241
     47  CA        14.7250   -2.9070   12.4310 C.3    43  HIS43       0.1621
     48  C         15.9260   -2.9610   13.3680 C.2    43  HIS43       0.2264
     49  O         17.0720   -2.8550   12.9320 O.2    43  HIS43      -0.2867
     50  CB        14.1990   -1.4760   12.4240 C.3    43  HIS43       0.0745
     51  CG        13.1970   -1.2010   11.3510 C.ar   43  HIS43       0.0817
     52  ND1       13.2420   -1.7960   10.1150 N.ar   43  HIS43      -0.2268
     53  CD2       12.1450   -0.3440   11.3220 C.ar   43  HIS43       0.1154
     54  CE1       12.2610   -1.3250    9.3620 C.ar   43  HIS43       0.1986
     55  NE2       11.5840   -0.4430   10.0740 N.ar   43  HIS43      -0.2212
     56  N          0.5970   -6.7230    9.0480 N.3    91  ARG91      -0.1245
     57  CA         0.2390   -5.4490    8.4510 C.3    91  ARG91       0.1563
     58  C          1.3900   -4.9520    7.5950 C.2    91  ARG91       0.2260
     59  O          2.5130   -5.4450    7.7020 O.2    91  ARG91      -0.2867
     60  CB        -0.0210   -4.4250    9.5430 C.3    91  ARG91       0.0307
     61  CG         1.2540   -3.9050   10.1640 C.3    91  ARG91       0.0489
     62  CD         1.0620   -3.6730   11.6320 C.3    91  ARG91       0.2205
     63  NE         2.3090   -3.3090   12.2840 N.pl3  91  ARG91      -0.0865
     64  CZ         2.7480   -2.0610   12.3900 C.cat  91  ARG91       0.5346
     65  NH1        2.0320   -1.0650   11.8850 N.pl3  91  ARG91       0.1354
     66  NH2        3.8950   -1.8040   13.0020 N.pl3  91  ARG91       0.1354
     67  N          3.4030   -1.3350    6.0720 N.3    93  CYS93      -0.1235
     68  CA         3.5780    0.0940    6.2240 C.3    93  CYS93       0.1677
     69  C          4.0390    0.5790    4.8660 C.2    93  CYS93       0.2270
     70  O          5.1630    0.2940    4.4360 O.2    93  CYS93      -0.2867
     71  CB         4.6340    0.4500    7.2660 C.3    93  CYS93       0.0956
     72  SG         4.9030    2.2390    7.3000 S.3    93  CYS93      -0.0801
     73  N          5.4500    3.0610    2.3690 N.3    95  VAL95      -0.1245
     74  CA         6.3890    4.1670    2.3880 C.3    95  VAL95       0.1561
     75  C          6.5170    4.7780    0.9960 C.2    95  VAL95       0.2260
     76  O          7.2400    4.2520    0.1510 O.2    95  VAL95      -0.2867
     77  CB         7.7740    3.6720    2.8290 C.3    95  VAL95       0.0252
     78  CG1        8.7130    4.8430    3.0110 C.3    95  VAL95       0.0019
     79  CG2        7.6450    2.8550    4.1110 C.3    95  VAL95       0.0019
     80  N          1.1530    3.3990    7.6250 N.3   107  PRO107     -0.2116
     81  CA         1.1940    2.1020    8.3080 C.3   107  PRO107      0.1372
     82  C         -0.2000    1.5660    8.6000 C.2   107  PRO107      0.2244
     83  O         -1.0970    2.3230    8.9230 O.2   107  PRO107     -0.2868
     84  CB         1.9630    2.4200    9.5810 C.3   107  PRO107      0.0268
     85  CG         1.4810    3.8130    9.8780 C.3   107  PRO107      0.0207
     86  CD         1.5570    4.4820    8.5410 C.3   107  PRO107      0.0892
     87  N         10.4870   -3.1360   21.1710 N.3   137  ALA137     -0.1231
     88  CA        10.4330   -1.9220   20.3630 C.3   137  ALA137      0.1694
     89  C          9.2660   -1.8560   19.3740 C.2   137  ALA137      0.2593
     90  O          8.9180   -2.8300   18.7000 O.2   137  ALA137     -0.2718
     91  CB        11.7730   -1.7180   19.6500 C.3   137  ALA137      0.0304
     92  N          8.6910   -0.6670   19.2940 N.am  138  GLY138     -0.1942
     93  CA         7.5370   -0.4180   18.4630 C.3   138  GLY138      0.2014
     94  C          6.3650   -0.5270   19.3900 C.2   138  GLY138      0.2639
     95  O          6.4210   -1.2570   20.3600 O.2   138  GLY138     -0.2714
     96  N          5.2890    0.1830   19.1040 N.am  139  SER139     -0.1949
     97  CA         4.1230    0.1090   19.9880 C.3   139  SER139      0.1924
     98  C          3.2580   -1.1190   19.7400 C.2   139  SER139      0.2314
     99  O          3.3480   -1.7380   18.6920 O.2   139  SER139     -0.2863
    100  CB         3.2670    1.3820   19.8870 C.3   139  SER139      0.2116
    101  OG         3.5550    2.2160   21.0270 O.3   139  SER139     -0.2180
    102  N         13.6280    8.8420    8.6640 N.3   238  THR238     -0.1203
    103  CA        12.7520    7.8840    9.3290 C.3   238  THR238      0.1994
    104  C         13.4150    6.5180    9.3720 C.2   238  THR238      0.2618
    105  O         14.1530    6.1510    8.4580 O.2   238  THR238     -0.2717
    106  CB        11.4080    7.7730    8.6080 C.3   238  THR238      0.1784
    107  OG1       10.8720    9.0880    8.4090 O.3   238  THR238     -0.2211
    108  CG2       10.4260    6.9470    9.4420 C.3   238  THR238      0.0376
    109  N         13.1310    5.7590   10.4270 N.am  239  GLY239     -0.1956
    110  CA        13.7690    4.4660   10.5930 C.3   239  GLY239      0.1869
    111  C         15.1250    4.8040   11.1920 C.2   239  GLY239      0.2309
    112  O         15.8850    3.9400   11.6310 O.2   239  GLY239     -0.2863
    113  N         15.0810    3.9160   14.7450 N.3   242  ASP242     -0.1239
    114  CA        15.2300    2.4830   14.9750 C.3   242  ASP242      0.1674
    115  C         16.6920    2.0990   14.8520 C.2   242  ASP242      0.2266
    116  O         17.2080    1.3150   15.6490 O.2   242  ASP242     -0.2867
    117  CB        14.3750    1.6970   13.9860 C.3   242  ASP242      0.1410
    118  CG        12.9200    2.1090   14.0440 C.2   242  ASP242      0.3668
    119  OD1       12.5760    2.8990   14.9530 O.co2 242  ASP242     -0.2456
    120  OD2       12.1200    1.6530   13.1950 O.co2 242  ASP242     -0.2456
@<TRIPOS>BOND
     1    76    75    2
     2    75    74    1
     3    73    74    1
     4    74    77    1
     5    24    23    2
     6    77    78    1
     7    77    79    1
     8    23    22    1
     9    70    69    2
    10    22    25    1
    11    22    21    1
    12    69    68    1
    13    25    26    1
    14    67    68    1
    15    68    71    1
    16    26    28   ar
    17    26    27   ar
    18    71    72    1
    19    58    59    2
    20    58    57    1
    21    80    81    1
    22    80    86    1
    23    81    82    1
    24    81    84    1
    25   107   106    1
    26    57    56    1
    27    57    60    1
    28   105   104    2
    29    86    85    1
    30    18    19    2
    31    18    17    1
    32    29    30    1
    33    82    83    2
    34   106   103    1
    35   106   108    1
    36   102   103    1
    37   103   104    1
    38    30    31    1
    39    54    55   ar
    40    54    52   ar
    41   104   109   am
    42    60    61    1
    43    84    85    1
    44    17    20    1
    45    17    16    1
    46    55    53   ar
    47    52    51   ar
    48    61    62    1
    49   109   110    1
    50   110   111    1
    51    31    32    2
    52    31    33   am
    53   111   112    2
    54    53    51   ar
    55    51    50    1
    56    62    63    1
    57    33    34    1
    58    65    64    1
    59    63    64    2
    60    64    66    1
    61    50    47    1
    62    47    46    1
    63    47    48    1
    64    49    48    2
    65    34    35    1
    66    36    35    2
    67   120   118   ar
    68    35    37   am
    69   117   118    1
    70   117   114    1
    71   118   119   ar
    72    11    10    2
    73    14    13    2
    74   113   114    1
    75    37    38    1
    76    10     9    1
    77   115   114    1
    78   115   116    2
    79    15    13   am
    80    13    12    1
    81    38    39    1
    82    38    41    1
    83    40    39    2
    84     7     5    1
    85     9    12    1
    86     9     8    1
    87    43    42    1
    88    43    44    1
    89    42    41    1
    90     6     5    1
    91    44    45    1
    92     5     2    1
    93     4     3    2
    94     2     3    1
    95     2     1    1
    96    93    92    1
    97    93    94    1
    98    99    98    2
    99    90    89    2
   100    96    94   am
   101    96    97    1
   102    92    89   am
   103    89    88    1
   104    94    95    2
   105    91    88    1
   106    98    97    1
   107   100    97    1
   108   100   101    1
   109    88    87    1
