@<TRIPOS>MOLECULE
tmp/3jumB00.pdb
 191 186 0 0 0
SMALL
GASTEIGER

@<TRIPOS>ATOM
      1  N         32.5690   14.1690   63.2890 N.3    23  TYR23      -0.1241
      2  CA        31.6770   14.0640   64.4540 C.3    23  TYR23       0.1605
      3  C         32.1150   14.9860   65.5480 C.2    23  TYR23       0.2264
      4  O         31.3730   15.7630   66.1120 O.2    23  TYR23      -0.2867
      5  CB        31.6110   12.5960   64.9170 C.3    23  TYR23       0.0534
      6  CG        30.6400   12.4100   66.0470 C.ar   23  TYR23      -0.0201
      7  CD1       29.4100   11.7240   65.8690 C.ar   23  TYR23      -0.0009
      8  CD2       30.9370   12.8200   67.3220 C.ar   23  TYR23      -0.0009
      9  CE1       28.5310   11.4890   66.8850 C.ar   23  TYR23       0.0417
     10  CE2       30.0450   12.5530   68.3890 C.ar   23  TYR23       0.0417
     11  CZ        28.8140   11.9410   68.1530 C.ar   23  TYR23       0.1957
     12  OH        27.9930   11.7280   69.2100 O.3    23  TYR23      -0.2866
     13  N         24.6740   20.0540   64.3970 N.3    31  ARG31      -0.1245
     14  CA        24.3230   18.8970   65.2240 C.3    31  ARG31       0.1563
     15  C         22.9780   18.2550   64.8500 C.2    31  ARG31       0.2260
     16  O         22.8180   17.0590   65.0920 O.2    31  ARG31      -0.2867
     17  CB        24.3630   19.2940   66.6610 C.3    31  ARG31       0.0307
     18  CG        25.8170   19.5270   67.1370 C.3    31  ARG31       0.0489
     19  CD        25.8730   20.3740   68.3500 C.3    31  ARG31       0.2205
     20  NE        25.1500   19.7660   69.5110 N.pl3  31  ARG31      -0.0865
     21  CZ        24.8870   20.3930   70.6430 C.cat  31  ARG31       0.5346
     22  NH1       25.2590   21.6510   70.7960 N.pl3  31  ARG31       0.1354
     23  NH2       24.1690   19.7750   71.5890 N.pl3  31  ARG31       0.1354
     24  N         23.9930   15.4430   62.5530 N.3    34  ARG34      -0.1245
     25  CA        25.0790   14.4950   62.9180 C.3    34  ARG34       0.1563
     26  C         24.6770   13.0440   62.7770 C.2    34  ARG34       0.2260
     27  O         25.5170   12.1820   62.5670 O.2    34  ARG34      -0.2867
     28  CB        25.5850   14.8620   64.3110 C.3    34  ARG34       0.0307
     29  CG        26.9390   14.3060   64.6670 C.3    34  ARG34       0.0489
     30  CD        27.3750   14.6670   66.0860 C.3    34  ARG34       0.2205
     31  NE        26.4800   14.1300   67.1120 N.pl3  34  ARG34      -0.0865
     32  CZ        26.4300   14.5620   68.3680 C.cat  34  ARG34       0.5346
     33  NH1       27.2350   15.5320   68.7790 N.pl3  34  ARG34       0.1354
     34  NH2       25.5740   13.9880   69.2060 N.pl3  34  ARG34       0.1354
     35  N         24.8360    7.3430   72.3960 N.3    45  GLY45      -0.1210
     36  CA        24.2830    7.6960   73.7040 C.3    45  GLY45       0.1956
     37  C         25.3500    7.7320   74.7990 C.2    45  GLY45       0.2611
     38  O         26.5480    7.7550   74.5550 O.2    45  GLY45      -0.2717
     39  N         24.8560    7.7410   76.0440 N.am   46  LEU46      -0.1979
     40  CA        25.6440    8.0120   77.2450 C.3    46  LEU46       0.1596
     41  C         25.7610    6.7120   77.9990 C.2    46  LEU46       0.2287
     42  O         24.7580    6.1600   78.4490 O.2    46  LEU46      -0.2864
     43  CB        24.9930    9.0950   78.0990 C.3    46  LEU46       0.0297
     44  CG        25.6160    9.3480   79.4540 C.3    46  LEU46       0.0022
     45  CD1       27.0630    9.8630   79.2620 C.3    46  LEU46       0.0001
     46  CD2       24.8040   10.3380   80.2670 C.3    46  LEU46       0.0001
     47  N         22.1250    5.1230   78.5210 N.3    55  ILE55      -0.1245
     48  CA        20.9960    5.6030   77.7870 C.3    55  ILE55       0.1561
     49  C         21.3670    5.5430   76.3010 C.2    55  ILE55       0.2260
     50  O         22.2230    6.3240   75.8510 O.2    55  ILE55      -0.2867
     51  CB        20.6180    6.9610   78.1660 C.3    55  ILE55       0.0252
     52  CG1       20.3670    7.0580   79.6470 C.3    55  ILE55       0.0019
     53  CG2       19.4000    7.3990   77.2960 C.3    55  ILE55       0.0019
     54  CD1       20.2920    8.4910   80.1490 C.3    55  ILE55       0.0001
     55  N         20.4380    5.4850   72.3710 N.3    57  ILE57      -0.1245
     56  CA        19.4850    6.0520   71.3630 C.3    57  ILE57       0.1561
     57  C         19.6540    5.2020   70.1000 C.2    57  ILE57       0.2260
     58  O         20.7350    5.1380   69.5340 O.2    57  ILE57      -0.2867
     59  CB        19.8880    7.5180   71.0240 C.3    57  ILE57       0.0252
     60  CG1       20.0860    8.3790   72.3040 C.3    57  ILE57       0.0019
     61  CG2       18.8730    8.1380   70.0720 C.3    57  ILE57       0.0019
     62  CD1       21.2620    9.3850   72.2130 C.3    57  ILE57       0.0001
     63  N         16.7920   12.9420   68.8110 N.3    66  HIS66      -0.1241
     64  CA        17.5550   13.2170   69.9780 C.3    66  HIS66       0.1621
     65  C         18.3600   14.5040   69.8690 C.2    66  HIS66       0.2264
     66  O         18.4280   15.2420   70.8710 O.2    66  HIS66      -0.2867
     67  CB        18.5000   12.0390   70.2400 C.3    66  HIS66       0.0745
     68  CG        19.4050   12.2760   71.4310 C.ar   66  HIS66       0.0817
     69  ND1       19.0030   12.0970   72.7330 N.ar   66  HIS66      -0.2268
     70  CD2       20.6940   12.6980   71.4930 C.ar   66  HIS66       0.1154
     71  CE1       20.0160   12.4060   73.5340 C.ar   66  HIS66       0.1986
     72  NE2       21.0390   12.8300   72.8030 N.ar   66  HIS66      -0.2212
     73  N         16.7750   17.6820   71.3200 N.3    69  TRP69      -0.1227
     74  CA        16.9120   17.7650   72.7550 C.3    69  TRP69       0.1737
     75  C         18.3310   18.1550   73.1230 C.2    69  TRP69       0.2596
     76  O         18.5550   18.9660   74.0330 O.2    69  TRP69      -0.2718
     77  CB        16.5330   16.4210   73.4100 C.3    69  TRP69       0.0564
     78  CG        16.7750   16.3630   74.9160 C.ar   69  TRP69       0.0003
     79  CD1       15.9320   16.7210   75.9000 C.ar   69  TRP69       0.0946
     80  CD2       17.9730   15.8770   75.5450 C.ar   69  TRP69       0.0152
     81  NE1       16.5530   16.5370   77.1310 N.ar   69  TRP69      -0.2442
     82  CE2       17.8210   16.0530   76.9300 C.ar   69  TRP69       0.0810
     83  CE3       19.1980   15.4490   75.0600 C.ar   69  TRP69       0.0012
     84  CZ2       18.7860   15.7270   77.8160 C.ar   69  TRP69       0.0191
     85  CZ3       20.1760   15.0980   75.9370 C.ar   69  TRP69       0.0001
     86  CH2       20.0010   15.2640   77.2910 C.ar   69  TRP69       0.0015
     87  N         19.3340   17.5470   72.5040 N.am   70  SER70      -0.1952
     88  CA        20.7170   17.8220   72.8940 C.3    70  SER70       0.1924
     89  C         21.0580   19.2510   72.5890 C.2    70  SER70       0.2314
     90  O         21.6930   19.9350   73.3690 O.2    70  SER70      -0.2863
     91  CB        21.6350   16.9160   72.0830 C.3    70  SER70       0.2116
     92  OG        22.9240   17.1480   72.5220 O.3    70  SER70      -0.2180
     93  N         22.2460   21.6000   75.5980 N.3    74  PHE74      -0.1241
     94  CA        23.6710   21.9680   75.5450 C.3    74  PHE74       0.1605
     95  C         23.8580   22.8970   74.3540 C.2    74  PHE74       0.2264
     96  O         24.3380   22.5190   73.2880 O.2    74  PHE74      -0.2867
     97  CB        24.5480   20.7780   75.4070 C.3    74  PHE74       0.0534
     98  CG        24.3300   19.7410   76.4610 C.ar   74  PHE74      -0.0203
     99  CD1       23.4550   18.6490   76.2080 C.ar   74  PHE74      -0.0042
    100  CD2       24.9470   19.8280   77.6790 C.ar   74  PHE74      -0.0042
    101  CE1       23.2800   17.5720   77.1380 C.ar   74  PHE74      -0.0003
    102  CE2       24.7920   18.8140   78.6370 C.ar   74  PHE74      -0.0003
    103  CZ        23.9520   17.6900   78.3880 C.ar   74  PHE74      -0.0000
    104  N         27.6690   23.8000   73.0030 N.3    77  TRP77      -0.1241
    105  CA        28.6760   22.8220   73.3310 C.3    77  TRP77       0.1605
    106  C         29.7990   22.7550   72.3180 C.2    77  TRP77       0.2264
    107  O         29.5770   22.7180   71.1200 O.2    77  TRP77      -0.2867
    108  CB        28.0360   21.4740   73.3890 C.3    77  TRP77       0.0550
    109  CG        28.8890   20.4650   73.9740 C.ar   77  TRP77       0.0003
    110  CD1       29.6090   19.5060   73.3370 C.ar   77  TRP77       0.0946
    111  CD2       29.1770   20.2970   75.3770 C.ar   77  TRP77       0.0152
    112  NE1       30.3630   18.7730   74.1940 N.ar   77  TRP77      -0.2442
    113  CE2       30.1050   19.2100   75.4700 C.ar   77  TRP77       0.0810
    114  CE3       28.8180   20.9260   76.5290 C.ar   77  TRP77       0.0012
    115  CZ2       30.5820   18.7740   76.6920 C.ar   77  TRP77       0.0191
    116  CZ3       29.2860   20.4800   77.7230 C.ar   77  TRP77       0.0001
    117  CH2       30.1800   19.4580   77.7980 C.ar   77  TRP77       0.0015
    118  N         33.5220   20.3150   71.8880 N.3    79  TRP79      -0.1241
    119  CA        34.5490   19.3420   72.2650 C.3    79  TRP79       0.1605
    120  C         35.8990   19.9750   72.0060 C.2    79  TRP79       0.2264
    121  O         36.0350   20.6360   70.9810 O.2    79  TRP79      -0.2867
    122  CB        34.3950   18.0660   71.4520 C.3    79  TRP79       0.0550
    123  CG        33.0700   17.4350   71.4890 C.ar   79  TRP79       0.0003
    124  CD1       32.2170   17.3140   70.4090 C.ar   79  TRP79       0.0946
    125  CD2       32.4760   16.6540   72.5510 C.ar   79  TRP79       0.0152
    126  NE1       31.1170   16.5870   70.7630 N.ar   79  TRP79      -0.2442
    127  CE2       31.2590   16.1590   72.0630 C.ar   79  TRP79       0.0810
    128  CE3       32.8210   16.3790   73.8610 C.ar   79  TRP79       0.0012
    129  CZ2       30.3620   15.4470   72.8830 C.ar   79  TRP79       0.0191
    130  CZ3       32.0040   15.6900   74.6270 C.ar   79  TRP79       0.0001
    131  CH2       30.7380   15.2090   74.1420 C.ar   79  TRP79       0.0015
    132  N         19.0120   22.0780   81.6810 N.3   105  PHE105     -0.1241
    133  CA        18.1710   20.9960   81.9540 C.3   105  PHE105      0.1605
    134  C         16.9970   21.5390   82.7460 C.2   105  PHE105      0.2264
    135  O         17.1540   22.1970   83.7970 O.2   105  PHE105     -0.2867
    136  CB        18.8620   19.9970   82.8640 C.3   105  PHE105      0.0534
    137  CG        19.7630   18.9630   82.1610 C.ar  105  PHE105     -0.0203
    138  CD1       20.0340   17.7220   82.7930 C.ar  105  PHE105     -0.0042
    139  CD2       20.2330   19.1540   80.8830 C.ar  105  PHE105     -0.0042
    140  CE1       20.7820   16.7440   82.1750 C.ar  105  PHE105     -0.0003
    141  CE2       21.0230   18.1380   80.3080 C.ar  105  PHE105     -0.0003
    142  CZ        21.2620   16.9610   80.9220 C.ar  105  PHE105     -0.0000
    143  N         28.7890   23.4410   82.3060 N.3   113  TYR113     -0.1241
    144  CA        29.2700   22.0730   82.4370 C.3   113  TYR113      0.1605
    145  C         30.5710   21.9030   81.7140 C.2   113  TYR113      0.2264
    146  O         30.7880   22.3330   80.6200 O.2   113  TYR113     -0.2867
    147  CB        28.1820   21.2280   81.7750 C.3   113  TYR113      0.0534
    148  CG        28.4570   19.7100   81.7190 C.ar  113  TYR113     -0.0201
    149  CD1       29.1040   19.0270   82.7890 C.ar  113  TYR113     -0.0009
    150  CD2       28.1110   18.9730   80.6200 C.ar  113  TYR113     -0.0009
    151  CE1       29.2640   17.6000   82.7510 C.ar  113  TYR113      0.0417
    152  CE2       28.2850   17.5560   80.5590 C.ar  113  TYR113      0.0417
    153  CZ        28.9260   16.9020   81.6340 C.ar  113  TYR113      0.1957
    154  OH        29.1210   15.5520   81.5600 O.3   113  TYR113     -0.2866
    155  N         36.0630   13.3460   78.7450 N.3   117  PHE117     -0.1241
    156  CA        35.2420   12.3840   78.0340 C.3   117  PHE117      0.1605
    157  C         36.1550   11.3790   77.3200 C.2   117  PHE117      0.2264
    158  O         37.1990   11.6880   76.7880 O.2   117  PHE117     -0.2867
    159  CB        34.3890   13.0290   76.9310 C.3   117  PHE117      0.0534
    160  CG        33.4100   14.0300   77.5170 C.ar  117  PHE117     -0.0203
    161  CD1       33.8010   15.2890   77.7260 C.ar  117  PHE117     -0.0042
    162  CD2       32.1010   13.6910   77.7570 C.ar  117  PHE117     -0.0042
    163  CE1       32.9650   16.2680   78.2120 C.ar  117  PHE117     -0.0003
    164  CE2       31.2020   14.6310   78.2310 C.ar  117  PHE117     -0.0003
    165  CZ        31.6740   15.9180   78.4790 C.ar  117  PHE117     -0.0000
    166  N         29.5140    7.4150   74.8390 N.3   133  GLU133     -0.1245
    167  CA        30.1670    8.4850   75.6380 C.3   133  GLU133      0.1567
    168  C         30.3410    7.9600   77.0430 C.2   133  GLU133      0.2260
    169  O         29.4060    7.4670   77.6970 O.2   133  GLU133     -0.2867
    170  CB        29.2740    9.7180   75.7040 C.3   133  GLU133      0.0388
    171  CG        29.8160   10.8640   76.5050 C.3   133  GLU133      0.1160
    172  CD        28.7420   11.9280   76.7850 C.2   133  GLU133      0.3649
    173  OE1       27.9260   12.2540   75.8680 O.co2 133  GLU133     -0.2457
    174  OE2       28.8290   12.5220   77.8660 O.co2 133  GLU133     -0.2457
    175  N         31.9640    9.4660   80.7010 N.3   135  MET135     -0.1245
    176  CA        32.3790   10.6180   81.4470 C.3   135  MET135      0.1570
    177  C         32.2190   10.3400   82.9460 C.2   135  MET135      0.2261
    178  O         31.8090    9.2690   83.3250 O.2   135  MET135     -0.2867
    179  CB        31.6710   11.8630   80.9540 C.3   135  MET135      0.0387
    180  CG        30.1350   11.8380   80.9200 C.3   135  MET135      0.0595
    181  SD        29.3870   11.6280   82.5360 S.3   135  MET135     -0.1393
    182  CE        27.7660   12.2720   82.3220 C.3   135  MET135      0.0692
    183  N         28.8070   16.3830   86.0610 N.3   140  GLN140     -0.1245
    184  CA        27.4830   16.8160   85.6040 C.3   140  GLN140      0.1566
    185  C         26.6190   17.1540   86.8110 C.2   140  GLN140      0.2260
    186  O         25.8750   18.1390   86.7390 O.2   140  GLN140     -0.2867
    187  CB        26.8470   15.8060   84.6650 C.3   140  GLN140      0.0367
    188  CG        25.5730   16.3310   84.0190 C.3   140  GLN140      0.0905
    189  CD        25.0540   15.3780   83.0240 C.2   140  GLN140      0.2608
    190  OE1       24.7230   14.2320   83.3360 O.2   140  GLN140     -0.2717
    191  NE2       25.0260   15.8240   81.7610 N.am  140  GLN140     -0.0878
@<TRIPOS>BOND
     1    24    25    1
     2    27    26    2
     3    26    25    1
     4    25    28    1
     5     1     2    1
     6    28    29    1
     7    13    14    1
     8     2     5    1
     9     2     3    1
    10    29    30    1
    11    15    16    2
    12    15    14    1
    13     5     6    1
    14    14    17    1
    15     3     4    2
    16     7     6   ar
    17     7     9   ar
    18     6     8   ar
    19    30    31    1
    20    17    18    1
    21     9    11   ar
    22    31    32    2
    23    18    19    1
    24     8    10   ar
    25    11    10   ar
    26    11    12    1
    27    19    20    1
    28    32    33    1
    29    32    34    1
    30    63    64    1
    31    20    21    2
    32    58    57    2
    33    65    64    1
    34    65    66    2
    35    64    67    1
    36    61    59    1
    37    57    56    1
    38    67    68    1
    39   124   126   ar
    40   124   123   ar
    41    21    22    1
    42    21    23    1
    43   126   127   ar
    44   121   120    2
    45    59    56    1
    46    59    60    1
    47   107   106    2
    48    73    74    1
    49    56    55    1
    50    68    70   ar
    51    68    69   ar
    52   122   123    1
    53   122   119    1
    54   123   125   ar
    55    70    72   ar
    56   118   119    1
    57   120   119    1
    58   127   125   ar
    59   127   129   ar
    60    91    92    1
    61    91    88    1
    62    62    60    1
    63   106   105    1
    64    35    36    1
    65    87    88    1
    66    87    75   am
    67   125   128   ar
    68    89    88    1
    69    89    90    2
    70    69    71   ar
    71    74    75    1
    72    74    77    1
    73    72    71   ar
    74   129   131   ar
    75   104   105    1
    76    75    76    2
    77    96    95    2
    78   105   108    1
    79   110   109   ar
    80   110   112   ar
    81   108   109    1
    82    77    78    1
    83    36    37    1
    84   128   130   ar
    85   109   111   ar
    86   131   130   ar
    87   112   113   ar
    88    95    94    1
    89    38    37    2
    90    37    39   am
    91   166   167    1
    92    78    80   ar
    93    78    79   ar
    94    83    80   ar
    95    83    85   ar
    96   111   113   ar
    97   111   114   ar
    98    97    94    1
    99    97    98    1
   100   113   115   ar
   101    94    93    1
   102    80    82   ar
   103   167   170    1
   104   167   168    1
   105   170   171    1
   106    50    49    2
   107   173   172   ar
   108    79    81   ar
   109    85    86   ar
   110    39    40    1
   111    99    98   ar
   112    99   101   ar
   113    49    48    1
   114    98   100   ar
   115   171   172    1
   116   114   116   ar
   117   115   117   ar
   118   172   174   ar
   119   158   157    2
   120    82    81   ar
   121    82    84   ar
   122   159   160    1
   123   159   156    1
   124   168   169    2
   125   101   103   ar
   126    40    41    1
   127    40    43    1
   128    86    84   ar
   129    53    51    1
   130   157   156    1
   131   160   161   ar
   132   160   162   ar
   133   100   102   ar
   134   116   117   ar
   135   161   163   ar
   136   162   164   ar
   137    48    51    1
   138    48    47    1
   139    41    42    2
   140   156   155    1
   141    43    44    1
   142    51    52    1
   143   163   165   ar
   144   164   165   ar
   145   103   102   ar
   146    45    44    1
   147    44    46    1
   148    52    54    1
   149   141   139   ar
   150   141   142   ar
   151   152   150   ar
   152   152   153   ar
   153   146   145    2
   154   150   148   ar
   155   175   176    1
   156   139   137   ar
   157   180   179    1
   158   180   181    1
   159   142   140   ar
   160   179   176    1
   161   176   177    1
   162   154   153    1
   163   153   151   ar
   164   132   133    1
   165   145   144    1
   166   148   147    1
   167   148   149   ar
   168   191   189   am
   169   147   144    1
   170   133   134    1
   171   133   136    1
   172   137   138   ar
   173   137   136    1
   174   140   138   ar
   175   143   144    1
   176   182   181    1
   177   134   135    2
   178   151   149   ar
   179   177   178    2
   180   189   190    2
   181   189   188    1
   182   188   187    1
   183   187   184    1
   184   184   183    1
   185   184   185    1
   186   186   185    2
