@<TRIPOS>MOLECULE
tmp/3junA00.pdb
 147 141 0 0 0
SMALL
GASTEIGER

@<TRIPOS>ATOM
      1  N         49.4190   -9.1490   93.4410 N.3    27  ARG27      -0.1245
      2  CA        49.1740   -7.7450   93.4690 C.3    27  ARG27       0.1563
      3  C         50.1700   -6.9760   94.2830 C.2    27  ARG27       0.2260
      4  O         50.4090   -5.7960   94.0180 O.2    27  ARG27      -0.2867
      5  CB        47.7610   -7.4680   93.9950 C.3    27  ARG27       0.0307
      6  CG        46.6510   -7.9860   93.0790 C.3    27  ARG27       0.0489
      7  CD        45.2670   -8.1540   93.8020 C.3    27  ARG27       0.2205
      8  NE        44.8300   -6.9430   94.3900 N.pl3  27  ARG27      -0.0865
      9  CZ        43.8060   -6.8670   95.2260 C.cat  27  ARG27       0.5346
     10  NH1       43.0790   -7.9330   95.4720 N.pl3  27  ARG27       0.1354
     11  NH2       43.5070   -5.7260   95.7660 N.pl3  27  ARG27       0.1354
     12  N         52.9280   -5.8860   91.6820 N.3    30  ARG30      -0.1245
     13  CA        52.5810   -5.3230   90.3910 C.3    30  ARG30       0.1563
     14  C         53.2740   -3.9700   90.1710 C.2    30  ARG30       0.2260
     15  O         53.4620   -3.5620   89.0080 O.2    30  ARG30      -0.2867
     16  CB        51.0700   -5.1700   90.2690 C.3    30  ARG30       0.0307
     17  CG        50.5150   -4.7900   88.9400 C.3    30  ARG30       0.0489
     18  CD        49.0040   -4.7520   88.9840 C.3    30  ARG30       0.2205
     19  NE        48.5750   -3.5560   89.6300 N.pl3  30  ARG30      -0.0865
     20  CZ        47.3240   -3.1840   89.9220 C.cat  30  ARG30       0.5346
     21  NH1       46.2670   -3.9340   89.6450 N.pl3  30  ARG30       0.1354
     22  NH2       47.1270   -1.9920   90.4650 N.pl3  30  ARG30       0.1354
     23  N         43.3040    6.5960   90.2590 N.3    42  LEU42      -0.1245
     24  CA        41.8890    6.7270   89.9090 C.3    42  LEU42       0.1561
     25  C         41.5720    8.0850   89.4560 C.2    42  LEU42       0.2260
     26  O         41.6890    9.0540   90.1920 O.2    42  LEU42      -0.2867
     27  CB        41.0110    6.3470   91.1010 C.3    42  LEU42       0.0270
     28  CG        39.4980    6.3970   90.9690 C.3    42  LEU42       0.0019
     29  CD1       39.0050    5.4370   89.8450 C.3    42  LEU42       0.0001
     30  CD2       38.8530    5.9660   92.3390 C.3    42  LEU42       0.0001
     31  N         48.9060    8.1710   92.5240 N.3    53  ILE53      -0.1245
     32  CA        49.9300    7.5620   93.4070 C.3    53  ILE53       0.1561
     33  C         51.2260    7.6520   92.6290 C.2    53  ILE53       0.2260
     34  O         51.3800    7.0180   91.6140 O.2    53  ILE53      -0.2867
     35  CB        49.5860    6.0790   93.7710 C.3    53  ILE53       0.0252
     36  CG1       48.1200    5.9690   94.2460 C.3    53  ILE53       0.0019
     37  CG2       50.5760    5.4930   94.9030 C.3    53  ILE53       0.0019
     38  CD1       47.4900    4.5840   94.0320 C.3    53  ILE53       0.0001
     39  N         53.4810    3.1580   94.9500 N.3    59  LEU59      -0.1245
     40  CA        52.5160    2.2330   94.3170 C.3    59  LEU59       0.1561
     41  C         52.5620    0.9240   95.0990 C.2    59  LEU59       0.2260
     42  O         51.5240    0.4210   95.4870 O.2    59  LEU59      -0.2867
     43  CB        52.8070    2.0130   92.8200 C.3    59  LEU59       0.0270
     44  CG        52.4030    3.1840   91.9340 C.3    59  LEU59       0.0019
     45  CD1       52.9870    3.1060   90.5800 C.3    59  LEU59       0.0001
     46  CD2       50.8580    3.2230   91.8150 C.3    59  LEU59       0.0001
     47  N         50.8020    1.3540   98.5520 N.3    62  HIS62      -0.1226
     48  CA        49.3400    1.4490   98.3440 C.3    62  HIS62       0.1752
     49  C         48.6980    0.1220   97.9870 C.2    62  HIS62       0.2595
     50  O         47.5790   -0.1510   98.4280 O.2    62  HIS62      -0.2718
     51  CB        48.9620    2.5610   97.3450 C.3    62  HIS62       0.0759
     52  CG        49.0920    3.9480   97.9130 C.ar   62  HIS62       0.0818
     53  ND1       50.2690    4.4090   98.5000 N.ar   62  HIS62      -0.2268
     54  CD2       48.2070    4.9780   97.9900 C.ar   62  HIS62       0.1154
     55  CE1       50.1020    5.6550   98.9140 C.ar   62  HIS62       0.1986
     56  NE2       48.8620    6.0260   98.6240 N.ar   62  HIS62      -0.2212
     57  N         49.4400   -0.7860   97.3410 N.am   63  ALA63      -0.1980
     58  CA        48.9010   -2.0850   97.0380 C.3    63  ALA63       0.1597
     59  C         48.6950   -2.9060   98.2870 C.2    63  ALA63       0.2287
     60  O         47.7860   -3.7290   98.3200 O.2    63  ALA63      -0.2864
     61  CB        49.7740   -2.8780   95.9800 C.3    63  ALA63       0.0319
     62  N         45.2610   -1.6010   99.4980 N.3    66  SER66      -0.1217
     63  CA        44.1780   -2.0630   98.6210 C.3    66  SER66       0.1889
     64  C         43.9660   -3.5440   98.6560 C.2    66  SER66       0.2288
     65  O         42.8990   -4.0330   98.3240 O.2    66  SER66      -0.2866
     66  CB        44.3490   -1.5230   97.1930 C.3    66  SER66       0.2089
     67  OG        43.8630   -0.1500   97.1570 O.3    66  SER66      -0.2183
     68  N         40.1330   -4.3050   99.0140 N.3    70  PHE70      -0.1241
     69  CA        39.5610   -5.1230   97.9500 C.3    70  PHE70       0.1605
     70  C         40.2720   -6.4570   97.9580 C.2    70  PHE70       0.2264
     71  O         41.1660   -6.7240   97.1560 O.2    70  PHE70      -0.2867
     72  CB        39.7600   -4.4060   96.6060 C.3    70  PHE70       0.0534
     73  CG        39.2420   -2.9880   96.5450 C.ar   70  PHE70      -0.0203
     74  CD1       40.0990   -1.8980   96.6010 C.ar   70  PHE70      -0.0042
     75  CD2       37.9250   -2.7540   96.3010 C.ar   70  PHE70      -0.0042
     76  CE1       39.5780   -0.6240   96.4650 C.ar   70  PHE70      -0.0003
     77  CE2       37.4360   -1.5210   96.2450 C.ar   70  PHE70      -0.0003
     78  CZ        38.2730   -0.4200   96.2490 C.ar   70  PHE70      -0.0000
     79  N         39.6660   -8.9510   94.6000 N.3    73  TRP73      -0.1241
     80  CA        39.3810   -8.2260   93.3550 C.3    73  TRP73       0.1605
     81  C         39.8590   -8.9950   92.1110 C.2    73  TRP73       0.2264
     82  O         40.9810   -9.4830   92.0680 O.2    73  TRP73      -0.2867
     83  CB        40.0960   -6.8850   93.3600 C.3    73  TRP73       0.0550
     84  CG        39.5850   -6.0110   92.1880 C.ar   73  TRP73       0.0003
     85  CD1       40.2810   -5.7270   91.0000 C.ar   73  TRP73       0.0946
     86  CD2       38.3260   -5.3340   92.1040 C.ar   73  TRP73       0.0152
     87  NE1       39.4360   -4.9480   90.1610 N.ar   73  TRP73      -0.2442
     88  CE2       38.2630   -4.6840   90.8190 C.ar   73  TRP73       0.0810
     89  CE3       37.2270   -5.2010   92.9410 C.ar   73  TRP73       0.0012
     90  CZ2       37.2170   -3.9130   90.4590 C.ar   73  TRP73       0.0191
     91  CZ3       36.1290   -4.4500   92.5000 C.ar   73  TRP73       0.0001
     92  CH2       36.1090   -3.8560   91.2870 C.ar   73  TRP73       0.0015
     93  N         39.6840   -8.5740   87.6820 N.3    75  TRP75      -0.1241
     94  CA        39.2890   -7.9670   86.4260 C.3    75  TRP75       0.1605
     95  C         38.7930   -9.0740   85.4520 C.2    75  TRP75       0.2264
     96  O         39.4340  -10.1250   85.3370 O.2    75  TRP75      -0.2867
     97  CB        40.4570   -7.2520   85.7700 C.3    75  TRP75       0.0550
     98  CG        41.1520   -6.1130   86.5610 C.ar   75  TRP75       0.0003
     99  CD1       42.3960   -6.1830   87.1420 C.ar   75  TRP75       0.0946
    100  CD2       40.6190   -4.8750   86.9460 C.ar   75  TRP75       0.0152
    101  NE1       42.7280   -5.0370   87.6810 N.ar   75  TRP75      -0.2442
    102  CE2       41.6590   -4.1940   87.6590 C.ar   75  TRP75       0.0810
    103  CE3       39.3990   -4.2170   86.7330 C.ar   75  TRP75       0.0012
    104  CZ2       41.5170   -2.8880   88.1620 C.ar   75  TRP75       0.0191
    105  CZ3       39.2560   -2.8840   87.3140 C.ar   75  TRP75       0.0001
    106  CH2       40.3290   -2.2580   87.9800 C.ar   75  TRP75       0.0015
    107  N         31.3420   -4.7940   95.2250 N.3   109  TYR109     -0.1241
    108  CA        31.5080   -3.6980   94.3070 C.3   109  TYR109      0.1605
    109  C         31.6860   -4.3460   92.8960 C.2   109  TYR109      0.2264
    110  O         32.5200   -5.2230   92.7220 O.2   109  TYR109     -0.2867
    111  CB        32.7600   -2.9410   94.6600 C.3   109  TYR109      0.0534
    112  CG        33.1890   -1.8030   93.7540 C.ar  109  TYR109     -0.0201
    113  CD1       32.2460   -0.9790   93.1060 C.ar  109  TYR109     -0.0009
    114  CD2       34.5010   -1.5490   93.5570 C.ar  109  TYR109     -0.0009
    115  CE1       32.6730    0.0320   92.2850 C.ar  109  TYR109      0.0417
    116  CE2       34.9420   -0.5240   92.7570 C.ar  109  TYR109      0.0417
    117  CZ        34.0080    0.2850   92.1290 C.ar  109  TYR109      0.1957
    118  OH        34.4710    1.2880   91.3100 O.3   109  TYR109     -0.2866
    119  N         34.9660   -0.4810   83.6290 N.3   113  PHE113     -0.1241
    120  CA        36.1610    0.3060   83.6980 C.3   113  PHE113      0.1605
    121  C         36.8020    0.5270   82.3290 C.2   113  PHE113      0.2264
    122  O         36.7400   -0.3530   81.4790 O.2   113  PHE113     -0.2867
    123  CB        37.1800   -0.4490   84.5570 C.3   113  PHE113      0.0534
    124  CG        36.7320   -0.7060   85.9910 C.ar  113  PHE113     -0.0203
    125  CD1       36.0230   -1.8280   86.2900 C.ar  113  PHE113     -0.0042
    126  CD2       37.1600    0.1450   87.0140 C.ar  113  PHE113     -0.0042
    127  CE1       35.5990   -2.0620   87.6460 C.ar  113  PHE113     -0.0003
    128  CE2       36.6950   -0.0230   88.3220 C.ar  113  PHE113     -0.0003
    129  CZ        35.9790   -1.1800   88.6120 C.ar  113  PHE113     -0.0000
    130  N         42.7150    4.8640   85.7990 N.3   129  GLU129     -0.1245
    131  CA        41.4660    4.1390   85.8450 C.3   129  GLU129      0.1567
    132  C         40.3060    5.1060   85.7490 C.2   129  GLU129      0.2260
    133  O         40.2810    6.1500   86.4300 O.2   129  GLU129     -0.2867
    134  CB        41.3750    3.3770   87.1700 C.3   129  GLU129      0.0388
    135  CG        40.0380    2.6430   87.3640 C.3   129  GLU129      0.1160
    136  CD        39.8570    1.9690   88.7400 C.2   129  GLU129      0.3649
    137  OE1       40.7670    1.2410   89.0600 O.co2 129  GLU129     -0.2457
    138  OE2       38.7880    2.1430   89.3610 O.co2 129  GLU129     -0.2457
    139  N         30.2250    2.7170   92.8310 N.3   136  GLN136     -0.1245
    140  CA        30.9830    2.5350   94.0570 C.3   136  GLN136      0.1566
    141  C         30.1920    3.0770   95.2250 C.2   136  GLN136      0.2260
    142  O         30.1380    2.4190   96.2870 O.2   136  GLN136     -0.2867
    143  CB        32.3340    3.1920   94.0130 C.3   136  GLN136      0.0367
    144  CG        33.2160    2.6890   95.1140 C.3   136  GLN136      0.0905
    145  CD        34.5940    3.2050   95.0300 C.2   136  GLN136      0.2608
    146  OE1       34.7880    4.4110   95.0680 O.2   136  GLN136     -0.2717
    147  NE2       35.5800    2.3010   94.8750 N.am  136  GLN136     -0.0878
@<TRIPOS>BOND
     1   122   121    2
     2   121   120    1
     3   119   120    1
     4   120   123    1
     5   123   124    1
     6    96    95    2
     7    95    94    1
     8   132   131    1
     9   132   133    2
    10    97    94    1
    11    97    98    1
    12   130   131    1
    13   131   134    1
    14   124   125   ar
    15   124   126   ar
    16   125   127   ar
    17    94    93    1
    18    98   100   ar
    19    98    99   ar
    20   103   100   ar
    21   103   105   ar
    22   100   102   ar
    23   126   128   ar
    24    99   101   ar
    25   134   135    1
    26   105   106   ar
    27   135   136    1
    28   127   129   ar
    29   102   101   ar
    30   102   104   ar
    31   106   104   ar
    32   128   129   ar
    33   136   137   ar
    34   136   138   ar
    35    17    18    1
    36    17    16    1
    37    18    19    1
    38    15    14    2
    39    25    24    1
    40    25    26    2
    41    19    20    2
    42    21    20    1
    43    29    28    1
    44    24    23    1
    45    24    27    1
    46    20    22    1
    47    87    88   ar
    48    87    85   ar
    49    14    13    1
    50    16    13    1
    51    13    12    1
    52    90    88   ar
    53    90    92   ar
    54    45    44    1
    55    88    86   ar
    56    28    27    1
    57    28    30    1
    58    85    84   ar
    59    92    91   ar
    60   118   117    1
    61    34    33    2
    62    46    44    1
    63    44    43    1
    64    82    81    2
    65    86    84   ar
    66    86    89   ar
    67    81    80    1
    68   117   115   ar
    69   117   116   ar
    70    84    83    1
    71   115   113   ar
    72    91    89   ar
    73    31    32    1
    74    33    32    1
    75   110   109    2
    76   116   114   ar
    77    43    40    1
    78   139   140    1
    79   109   108    1
    80     6     7    1
    81     6     5    1
    82   113   112   ar
    83    80    83    1
    84    80    79    1
    85    32    35    1
    86     1     2    1
    87     2     5    1
    88     2     3    1
    89   114   112   ar
    90   112   111    1
    91    35    36    1
    92    35    37    1
    93     7     8    1
    94   143   140    1
    95   143   144    1
    96     4     3    2
    97    38    36    1
    98   140   141    1
    99   108   111    1
   100   108   107    1
   101    40    39    1
   102    40    41    1
   103     8     9    2
   104   147   145   am
   105   145   146    2
   106   145   144    1
   107    41    42    2
   108   141   142    2
   109     9    10    1
   110     9    11    1
   111    61    58    1
   112    77    78   ar
   113    77    75   ar
   114    78    76   ar
   115    75    73   ar
   116    76    74   ar
   117    73    74   ar
   118    73    72    1
   119    72    69    1
   120    58    57    1
   121    58    59    1
   122    71    70    2
   123    67    66    1
   124    66    63    1
   125    57    49   am
   126    51    52    1
   127    51    48    1
   128    52    54   ar
   129    52    53   ar
   130    69    70    1
   131    69    68    1
   132    49    48    1
   133    49    50    2
   134    54    56   ar
   135    59    60    2
   136    65    64    2
   137    48    47    1
   138    53    55   ar
   139    63    64    1
   140    63    62    1
   141    56    55   ar
