@<TRIPOS>MOLECULE
tmp/3junA01.pdb
 131 127 0 0 0
SMALL
GASTEIGER

@<TRIPOS>ATOM
      1  N         46.5950    5.3910   89.3040 N.3    41  GLY41      -0.1210
      2  CA        45.5570    5.8150   90.2030 C.3    41  GLY41       0.1956
      3  C         44.2110    5.9910   89.5300 C.2    41  GLY41       0.2611
      4  O         43.9930    5.4150   88.5120 O.2    41  GLY41      -0.2717
      5  N         43.3040    6.5960   90.2590 N.am   42  LEU42      -0.1979
      6  CA        41.8890    6.7270   89.9090 C.3    42  LEU42       0.1596
      7  C         41.5720    8.0850   89.4560 C.2    42  LEU42       0.2287
      8  O         41.6890    9.0540   90.1920 O.2    42  LEU42      -0.2864
      9  CB        41.0110    6.3470   91.1010 C.3    42  LEU42       0.0297
     10  CG        39.4980    6.3970   90.9690 C.3    42  LEU42       0.0022
     11  CD1       39.0050    5.4370   89.8450 C.3    42  LEU42       0.0001
     12  CD2       38.8530    5.9660   92.3390 C.3    42  LEU42       0.0001
     13  N         42.9930   10.5280   92.2740 N.3    51  ILE51      -0.1245
     14  CA        43.8250    9.9600   93.3280 C.3    51  ILE51       0.1561
     15  C         45.0130    9.4310   92.5930 C.2    51  ILE51       0.2260
     16  O         44.8870    8.3730   91.9670 O.2    51  ILE51      -0.2867
     17  CB        43.1600    8.8000   94.0580 C.3    51  ILE51       0.0252
     18  CG1       41.8300    9.2320   94.6990 C.3    51  ILE51       0.0019
     19  CG2       44.1510    8.0780   95.1560 C.3    51  ILE51       0.0019
     20  CD1       41.0690    7.9800   95.2300 C.3    51  ILE51       0.0001
     21  N         48.9060    8.1710   92.5240 N.3    53  ILE53      -0.1245
     22  CA        49.9300    7.5620   93.4070 C.3    53  ILE53       0.1561
     23  C         51.2260    7.6520   92.6290 C.2    53  ILE53       0.2260
     24  O         51.3800    7.0180   91.6140 O.2    53  ILE53      -0.2867
     25  CB        49.5860    6.0790   93.7710 C.3    53  ILE53       0.0252
     26  CG1       48.1200    5.9690   94.2460 C.3    53  ILE53       0.0019
     27  CG2       50.5760    5.4930   94.9030 C.3    53  ILE53       0.0019
     28  CD1       47.4900    4.5840   94.0320 C.3    53  ILE53       0.0001
     29  N         50.8020    1.3540   98.5520 N.3    62  HIS62      -0.1241
     30  CA        49.3400    1.4490   98.3440 C.3    62  HIS62       0.1621
     31  C         48.6980    0.1220   97.9870 C.2    62  HIS62       0.2264
     32  O         47.5790   -0.1510   98.4280 O.2    62  HIS62      -0.2867
     33  CB        48.9620    2.5610   97.3450 C.3    62  HIS62       0.0745
     34  CG        49.0920    3.9480   97.9130 C.ar   62  HIS62       0.0817
     35  ND1       50.2690    4.4090   98.5000 N.ar   62  HIS62      -0.2268
     36  CD2       48.2070    4.9780   97.9900 C.ar   62  HIS62       0.1154
     37  CE1       50.1020    5.6550   98.9140 C.ar   62  HIS62       0.1986
     38  NE2       48.8620    6.0260   98.6240 N.ar   62  HIS62      -0.2212
     39  N         47.6000   -1.6660  101.1760 N.3    65  TRP65      -0.1227
     40  CA        46.2920   -1.1780  101.6500 C.3    65  TRP65       0.1737
     41  C         45.1120   -1.6320  100.8250 C.2    65  TRP65       0.2596
     42  O         44.0500   -2.0110  101.3820 O.2    65  TRP65      -0.2718
     43  CB        46.2600    0.3440  101.7130 C.3    65  TRP65       0.0564
     44  CG        47.4050    0.8760  102.4680 C.ar   65  TRP65       0.0003
     45  CD1       48.0820    0.2350  103.4880 C.ar   65  TRP65       0.0946
     46  CD2       48.0120    2.1750  102.3440 C.ar   65  TRP65       0.0152
     47  NE1       49.0860    1.0300  103.9570 N.ar   65  TRP65      -0.2442
     48  CE2       49.0720    2.2250  103.2850 C.ar   65  TRP65       0.0810
     49  CE3       47.7780    3.2910  101.5280 C.ar   65  TRP65       0.0012
     50  CZ2       49.9030    3.3510  103.4220 C.ar   65  TRP65       0.0191
     51  CZ3       48.5950    4.4260  101.6910 C.ar   65  TRP65       0.0001
     52  CH2       49.6440    4.4350  102.6180 C.ar   65  TRP65       0.0015
     53  N         45.2610   -1.6010   99.4980 N.am   66  SER66      -0.1952
     54  CA        44.1780   -2.0630   98.6210 C.3    66  SER66       0.1924
     55  C         43.9660   -3.5440   98.6560 C.2    66  SER66       0.2314
     56  O         42.8990   -4.0330   98.3240 O.2    66  SER66      -0.2863
     57  CB        44.3490   -1.5230   97.1930 C.3    66  SER66       0.2116
     58  OG        43.8630   -0.1500   97.1570 O.3    66  SER66      -0.2180
     59  N         41.3870   -3.4650  101.3910 N.3    69  CYS69      -0.1221
     60  CA        40.1260   -2.8650  100.9380 C.3    69  CYS69       0.1808
     61  C         39.3760   -3.6520   99.8830 C.2    69  CYS69       0.2601
     62  O         38.1520   -3.6170   99.8070 O.2    69  CYS69      -0.2717
     63  CB        40.3590   -1.4600  100.4220 C.3    69  CYS69       0.0970
     64  SG        40.7000   -0.3020  101.8510 S.3    69  CYS69      -0.0800
     65  N         40.1330   -4.3050   99.0140 N.am   70  PHE70      -0.1976
     66  CA        39.5610   -5.1230   97.9500 C.3    70  PHE70       0.1639
     67  C         40.2720   -6.4570   97.9580 C.2    70  PHE70       0.2290
     68  O         41.1660   -6.7240   97.1560 O.2    70  PHE70      -0.2864
     69  CB        39.7600   -4.4060   96.6060 C.3    70  PHE70       0.0560
     70  CG        39.2420   -2.9880   96.5450 C.ar   70  PHE70      -0.0200
     71  CD1       40.0990   -1.8980   96.6010 C.ar   70  PHE70      -0.0042
     72  CD2       37.9250   -2.7540   96.3010 C.ar   70  PHE70      -0.0042
     73  CE1       39.5780   -0.6240   96.4650 C.ar   70  PHE70      -0.0003
     74  CE2       37.4360   -1.5210   96.2450 C.ar   70  PHE70      -0.0003
     75  CZ        38.2730   -0.4200   96.2490 C.ar   70  PHE70      -0.0000
     76  N         35.8530   -0.9590  103.1930 N.3   101  PHE101     -0.1228
     77  CA        36.4110    0.3230  103.5650 C.3   101  PHE101      0.1721
     78  C         36.2010    0.5810  105.0680 C.2   101  PHE101      0.2437
     79  O         35.1480    0.2330  105.5730 O.2   101  PHE101     -0.2733
     80  CB        35.7190    1.4560  102.8800 C.3   101  PHE101      0.0547
     81  CG        36.1780    1.6660  101.3690 C.ar  101  PHE101     -0.0202
     82  CD1       36.9100    0.7220  100.7260 C.ar  101  PHE101     -0.0042
     83  CD2       35.8750    2.8300  100.7440 C.ar  101  PHE101     -0.0042
     84  CE1       37.2500    0.8880   99.3470 C.ar  101  PHE101     -0.0003
     85  CE2       36.1800    3.0400   99.3400 C.ar  101  PHE101     -0.0003
     86  CZ        36.9130    2.0460   98.6880 C.ar  101  PHE101     -0.0000
     87  N         37.0840    1.3630  105.6790 N.am  102  PRO102     -0.2729
     88  CA        36.8340    1.8300  107.0960 C.3   102  PRO102      0.1401
     89  C         35.5760    2.6650  107.1450 C.2   102  PRO102      0.2269
     90  O         35.4110    3.6030  106.3800 O.2   102  PRO102     -0.2865
     91  CB        38.0320    2.6970  107.3820 C.3   102  PRO102      0.0296
     92  CG        39.1420    2.0130  106.5540 C.3   102  PRO102      0.0237
     93  CD        38.4530    1.6920  105.2660 C.3   102  PRO102      0.0939
     94  N         31.3420   -4.7940   95.2250 N.3   109  TYR109     -0.1241
     95  CA        31.5080   -3.6980   94.3070 C.3   109  TYR109      0.1605
     96  C         31.6860   -4.3460   92.8960 C.2   109  TYR109      0.2264
     97  O         32.5200   -5.2230   92.7220 O.2   109  TYR109     -0.2867
     98  CB        32.7600   -2.9410   94.6600 C.3   109  TYR109      0.0534
     99  CG        33.1890   -1.8030   93.7540 C.ar  109  TYR109     -0.0201
    100  CD1       32.2460   -0.9790   93.1060 C.ar  109  TYR109     -0.0009
    101  CD2       34.5010   -1.5490   93.5570 C.ar  109  TYR109     -0.0009
    102  CE1       32.6730    0.0320   92.2850 C.ar  109  TYR109      0.0417
    103  CE2       34.9420   -0.5240   92.7570 C.ar  109  TYR109      0.0417
    104  CZ        34.0080    0.2850   92.1290 C.ar  109  TYR109      0.1957
    105  OH        34.4710    1.2880   91.3100 O.3   109  TYR109     -0.2866
    106  N         42.7150    4.8640   85.7990 N.3   129  GLU129     -0.1245
    107  CA        41.4660    4.1390   85.8450 C.3   129  GLU129      0.1567
    108  C         40.3060    5.1060   85.7490 C.2   129  GLU129      0.2260
    109  O         40.2810    6.1500   86.4300 O.2   129  GLU129     -0.2867
    110  CB        41.3750    3.3770   87.1700 C.3   129  GLU129      0.0388
    111  CG        40.0380    2.6430   87.3640 C.3   129  GLU129      0.1160
    112  CD        39.8570    1.9690   88.7400 C.2   129  GLU129      0.3649
    113  OE1       40.7670    1.2410   89.0600 O.co2 129  GLU129     -0.2457
    114  OE2       38.7880    2.1430   89.3610 O.co2 129  GLU129     -0.2457
    115  N         36.0020    5.1020   85.8520 N.3   131  MET131     -0.1245
    116  CA        34.8180    4.3100   86.1140 C.3   131  MET131      0.1570
    117  C         33.6680    5.2530   86.4470 C.2   131  MET131      0.2261
    118  O         33.8490    6.4520   86.4020 O.2   131  MET131     -0.2867
    119  CB        35.0660    3.2370   87.1940 C.3   131  MET131      0.0387
    120  CG        35.6900    3.7410   88.4790 C.3   131  MET131      0.0595
    121  SD        34.6300    4.8450   89.3750 S.3   131  MET131     -0.1393
    122  CE        35.2670    4.8360   91.1140 C.3   131  MET131      0.0692
    123  N         30.2250    2.7170   92.8310 N.3   136  GLN136     -0.1245
    124  CA        30.9830    2.5350   94.0570 C.3   136  GLN136      0.1566
    125  C         30.1920    3.0770   95.2250 C.2   136  GLN136      0.2260
    126  O         30.1380    2.4190   96.2870 O.2   136  GLN136     -0.2867
    127  CB        32.3340    3.1920   94.0130 C.3   136  GLN136      0.0367
    128  CG        33.2160    2.6890   95.1140 C.3   136  GLN136      0.0905
    129  CD        34.5940    3.2050   95.0300 C.2   136  GLN136      0.2608
    130  OE1       34.7880    4.4110   95.0680 O.2   136  GLN136     -0.2717
    131  NE2       35.5800    2.3010   94.8750 N.am  136  GLN136     -0.0878
@<TRIPOS>BOND
     1   108   107    1
     2   108   109    2
     3   106   107    1
     4   107   110    1
     5   115   116    1
     6   116   117    1
     7   116   119    1
     8   118   117    2
     9   110   111    1
    10   119   120    1
    11   111   112    1
    12   120   121    1
    13     4     3    2
    14   112   113   ar
    15   112   114   ar
    16     1     2    1
    17   121   122    1
    18     7     6    1
    19     7     8    2
    20     3     2    1
    21     3     5   am
    22    11    10    1
    23     6     5    1
    24     6     9    1
    25    10     9    1
    26    10    12    1
    27   105   104    1
    28    24    23    2
    29    16    15    2
    30   104   102   ar
    31   104   103   ar
    32    13    14    1
    33   102   100   ar
    34    21    22    1
    35    15    14    1
    36    23    22    1
    37    97    96    2
    38   103   101   ar
    39   123   124    1
    40    96    95    1
    41   100    99   ar
    42    14    17    1
    43    22    25    1
    44   101    99   ar
    45    99    98    1
    46    25    26    1
    47    25    27    1
    48   127   124    1
    49   127   128    1
    50    28    26    1
    51   124   125    1
    52    17    18    1
    53    17    19    1
    54    95    98    1
    55    95    94    1
    56    18    20    1
    57   131   129   am
    58   129   130    2
    59   129   128    1
    60   125   126    2
    61    74    75   ar
    62    74    72   ar
    63    75    73   ar
    64    72    70   ar
    65    73    71   ar
    66    70    71   ar
    67    70    69    1
    68    69    66    1
    69    68    67    2
    70    58    57    1
    71    57    54    1
    72    33    34    1
    73    33    30    1
    74    34    36   ar
    75    34    35   ar
    76    66    67    1
    77    66    65    1
    78    31    30    1
    79    31    32    2
    80    36    38   ar
    81    56    55    2
    82    30    29    1
    83    35    37   ar
    84    54    55    1
    85    54    53    1
    86    38    37   ar
    87    86    85   ar
    88    86    84   ar
    89    65    61   am
    90    85    83   ar
    91    84    82   ar
    92    53    41   am
    93    62    61    2
    94    61    60    1
    95    63    60    1
    96    63    64    1
    97    82    81   ar
    98    83    81   ar
    99    41    42    2
   100    41    40    1
   101    60    59    1
   102    39    40    1
   103    81    80    1
   104    49    51   ar
   105    49    46   ar
   106    40    43    1
   107    51    52   ar
   108    43    44    1
   109    46    44   ar
   110    46    48   ar
   111    44    45   ar
   112    52    50   ar
   113    80    77    1
   114    76    77    1
   115    48    50   ar
   116    48    47   ar
   117    45    47   ar
   118    77    78    1
   119    78    79    2
   120    78    87   am
   121    93    87    1
   122    93    92    1
   123    87    88    1
   124    90    89    2
   125    92    91    1
   126    88    89    1
   127    88    91    1
