@<TRIPOS>MOLECULE
tmp/3jusA00.pdb
 172 164 0 0 0
SMALL
GASTEIGER

@<TRIPOS>ATOM
      1  N         44.9460   11.5940   59.2350 N.3    74  TYR74      -0.1241
      2  CA        45.3430   10.6750   58.1670 C.3    74  TYR74       0.1605
      3  C         46.6420   11.0580   57.4620 C.2    74  TYR74       0.2264
      4  O         47.3490   10.1970   56.9400 O.2    74  TYR74      -0.2867
      5  CB        44.2200   10.5380   57.1220 C.3    74  TYR74       0.0534
      6  CG        42.9820    9.7600   57.5640 C.ar   74  TYR74      -0.0201
      7  CD1       41.7720    9.8730   56.8570 C.ar   74  TYR74      -0.0009
      8  CD2       43.0120    8.9110   58.6860 C.ar   74  TYR74      -0.0009
      9  CE1       40.6360    9.1510   57.2530 C.ar   74  TYR74       0.0417
     10  CE2       41.8790    8.1950   59.0860 C.ar   74  TYR74       0.0417
     11  CZ        40.7040    8.3170   58.3630 C.ar   74  TYR74       0.1957
     12  OH        39.6000    7.6130   58.7620 O.3    74  TYR74      -0.2866
     13  N         50.4070    9.5480   57.6700 N.3    77  LEU77      -0.1231
     14  CA        50.5360    8.2310   57.0560 C.3    77  LEU77       0.1693
     15  C         50.4710    8.3140   55.5460 C.2    77  LEU77       0.2592
     16  O         51.1540    7.5700   54.8380 O.2    77  LEU77      -0.2718
     17  CB        49.4140    7.3270   57.5390 C.3    77  LEU77       0.0284
     18  CG        49.5930    6.7740   58.9440 C.3    77  LEU77       0.0019
     19  CD1       48.2520    6.5040   59.5690 C.3    77  LEU77       0.0001
     20  CD2       50.4160    5.5060   58.8990 C.3    77  LEU77       0.0001
     21  N         49.6710    9.2640   55.0730 N.am   78  THR78      -0.1953
     22  CA        49.1660    9.2810   53.7150 C.3    78  THR78       0.1897
     23  C         50.0800    9.9090   52.6920 C.2    78  THR78       0.2313
     24  O         50.3080    9.3470   51.6220 O.2    78  THR78      -0.2863
     25  CB        47.7720    9.9140   53.7020 C.3    78  THR78       0.1794
     26  OG1       46.8250    8.8850   53.4100 O.3    78  THR78      -0.2208
     27  CG2       47.6480   11.0320   52.6880 C.3    78  THR78       0.0378
     28  N         50.9640    8.2290   49.1390 N.3    82  PHE82      -0.1241
     29  CA        50.3050    8.5980   47.8700 C.3    82  PHE82       0.1605
     30  C         51.0610    9.6930   47.1540 C.2    82  PHE82       0.2264
     31  O         51.0280    9.7760   45.9290 O.2    82  PHE82      -0.2867
     32  CB        48.8460    9.0070   48.0460 C.3    82  PHE82       0.0534
     33  CG        47.9790    7.9340   48.6250 C.ar   82  PHE82      -0.0203
     34  CD1       46.7260    8.2470   49.1290 C.ar   82  PHE82      -0.0042
     35  CD2       48.4220    6.6030   48.6950 C.ar   82  PHE82      -0.0042
     36  CE1       45.9080    7.2520   49.6840 C.ar   82  PHE82      -0.0003
     37  CE2       47.6230    5.5970   49.2590 C.ar   82  PHE82      -0.0003
     38  CZ        46.3590    5.9210   49.7500 C.ar   82  PHE82      -0.0000
     39  N         48.0240   15.6280   46.5400 N.3    86  VAL86      -0.1231
     40  CA        46.8620   14.7620   46.3430 C.3    86  VAL86       0.1692
     41  C         46.3040   14.2660   47.6960 C.2    86  VAL86       0.2592
     42  O         47.0210   14.2650   48.7090 O.2    86  VAL86      -0.2718
     43  CB        47.2090   13.5980   45.3770 C.3    86  VAL86       0.0266
     44  CG1       48.0180   12.5140   46.0780 C.3    86  VAL86       0.0020
     45  CG2       45.9580   13.0260   44.7910 C.3    86  VAL86       0.0020
     46  N         45.0260   13.8770   47.6970 N.am   87  ALA87      -0.1966
     47  CA        44.3300   13.3500   48.8750 C.3    87  ALA87       0.1728
     48  C         44.3930   14.2570   50.1100 C.2    87  ALA87       0.2616
     49  O         43.7180   15.2930   50.1630 O.2    87  ALA87      -0.2715
     50  CB        44.7910   11.9250   49.1980 C.3    87  ALA87       0.0334
     51  N         45.1890   13.8850   51.1070 N.am   88  TYR88      -0.1974
     52  CA        45.1860   14.6430   52.3540 C.3    88  TYR88       0.1639
     53  C         46.3020   15.6630   52.4110 C.2    88  TYR88       0.2290
     54  O         46.4500   16.3700   53.4020 O.2    88  TYR88      -0.2864
     55  CB        45.1950   13.7200   53.5840 C.3    88  TYR88       0.0560
     56  CG        44.0750   12.7260   53.5660 C.ar   88  TYR88      -0.0198
     57  CD1       44.3370   11.3650   53.4480 C.ar   88  TYR88      -0.0009
     58  CD2       42.7490   13.1420   53.6220 C.ar   88  TYR88      -0.0009
     59  CE1       43.3000   10.4240   53.4110 C.ar   88  TYR88       0.0417
     60  CE2       41.6980   12.2160   53.5730 C.ar   88  TYR88       0.0417
     61  CZ        41.9860   10.8550   53.4710 C.ar   88  TYR88       0.1957
     62  OH        40.9770    9.9310   53.4250 O.3    88  TYR88      -0.2866
     63  N         40.6860   18.3810   47.3040 N.3    95  PHE95      -0.1241
     64  CA        40.5110   16.9300   47.2930 C.3    95  PHE95       0.1605
     65  C         39.1470   16.4630   46.7400 C.2    95  PHE95       0.2264
     66  O         39.0680   15.4300   46.0690 O.2    95  PHE95      -0.2867
     67  CB        40.7510   16.3800   48.7050 C.3    95  PHE95       0.0534
     68  CG        40.6580   14.8790   48.8100 C.ar   95  PHE95      -0.0203
     69  CD1       40.0490   14.2950   49.9110 C.ar   95  PHE95      -0.0042
     70  CD2       41.1890   14.0490   47.8140 C.ar   95  PHE95      -0.0042
     71  CE1       39.9680   12.9310   50.0170 C.ar   95  PHE95      -0.0003
     72  CE2       41.1050   12.6800   47.9120 C.ar   95  PHE95      -0.0003
     73  CZ        40.4960   12.1160   49.0130 C.ar   95  PHE95      -0.0000
     74  N         38.1930   11.2640   39.8030 N.3   102  LEU102     -0.1245
     75  CA        38.2890    9.8230   39.9980 C.3   102  LEU102      0.1561
     76  C         36.9300    9.1170   39.8110 C.2   102  LEU102      0.2260
     77  O         36.8660    8.0650   39.1790 O.2   102  LEU102     -0.2867
     78  CB        38.8990    9.5020   41.3680 C.3   102  LEU102      0.0270
     79  CG        40.3870    9.8350   41.5910 C.3   102  LEU102      0.0019
     80  CD1       40.7100   10.0160   43.0700 C.3   102  LEU102      0.0001
     81  CD2       41.3440    8.8210   40.9530 C.3   102  LEU102      0.0001
     82  N         51.8020    2.2860   56.1090 N.3   177  PHE177     -0.1241
     83  CA        50.5970    2.2770   56.9360 C.3   177  PHE177      0.1605
     84  C         50.8080    1.4390   58.1970 C.2   177  PHE177      0.2264
     85  O         50.1550    0.4180   58.4160 O.2   177  PHE177     -0.2867
     86  CB        49.3820    1.8140   56.1310 C.3   177  PHE177      0.0534
     87  CG        49.0520    2.7120   54.9890 C.ar  177  PHE177     -0.0203
     88  CD1       49.2570    2.2980   53.6860 C.ar  177  PHE177     -0.0042
     89  CD2       48.5590    3.9850   55.2140 C.ar  177  PHE177     -0.0042
     90  CE1       48.9640    3.1390   52.6190 C.ar  177  PHE177     -0.0003
     91  CE2       48.2690    4.8280   54.1560 C.ar  177  PHE177     -0.0003
     92  CZ        48.4670    4.4060   52.8600 C.ar  177  PHE177     -0.0000
     93  N         47.3760   10.1670   42.4140 N.3   247  MET247     -0.1245
     94  CA        46.1160    9.4540   42.5500 C.3   247  MET247      0.1570
     95  C         46.1520    8.0290   41.9550 C.2   247  MET247      0.2261
     96  O         45.4240    7.1560   42.4070 O.2   247  MET247     -0.2867
     97  CB        44.9210   10.2870   42.0810 C.3   247  MET247      0.0387
     98  CG        45.1640   11.1440   40.8810 C.3   247  MET247      0.0595
     99  SD        44.4090   12.7800   41.0970 S.3   247  MET247     -0.1393
    100  CE        42.7200   12.4630   40.6080 C.3   247  MET247      0.0692
    101  N         47.2730    5.9210   44.9150 N.3   250  GLY250     -0.1210
    102  CA        46.1340    5.8610   45.8180 C.3   250  GLY250      0.1956
    103  C         45.0470    4.9460   45.3130 C.2   250  GLY250      0.2611
    104  O         44.3880    4.2740   46.1060 O.2   250  GLY250     -0.2717
    105  N         44.8690    4.9100   43.9920 N.am  251  LEU251     -0.1979
    106  CA        43.8610    4.0540   43.3580 C.3   251  LEU251      0.1596
    107  C         44.1210    2.5700   43.5320 C.2   251  LEU251      0.2287
    108  O         43.1930    1.8140   43.7780 O.2   251  LEU251     -0.2864
    109  CB        43.7510    4.3450   41.8710 C.3   251  LEU251      0.0297
    110  CG        42.8230    5.4630   41.4170 C.3   251  LEU251      0.0022
    111  CD1       42.9790    5.5760   39.9190 C.3   251  LEU251      0.0001
    112  CD2       41.3750    5.2010   41.7970 C.3   251  LEU251      0.0001
    113  N         46.3650    1.0700   45.8090 N.3   253  LEU253     -0.1231
    114  CA        46.4350    0.6920   47.2170 C.3   253  LEU253      0.1693
    115  C         45.0380    0.5700   47.7920 C.2   253  LEU253      0.2591
    116  O         44.7530   -0.3620   48.5440 O.2   253  LEU253     -0.2718
    117  CB        47.2590    1.6870   48.0300 C.3   253  LEU253      0.0284
    118  CG        48.7780    1.7240   47.8190 C.3   253  LEU253      0.0019
    119  CD1       49.4300    2.4080   48.9970 C.3   253  LEU253      0.0001
    120  CD2       49.3980    0.3460   47.6340 C.3   253  LEU253      0.0001
    121  N         44.1690    1.5020   47.4050 N.am  254  ALA254     -0.1980
    122  CA        42.7790    1.5180   47.8430 C.3   254  ALA254      0.1597
    123  C         42.0270    0.3340   47.2740 C.2   254  ALA254      0.2287
    124  O         41.4450   -0.4490   48.0160 O.2   254  ALA254     -0.2864
    125  CB        42.1140    2.8030   47.4150 C.3   254  ALA254      0.0319
    126  N         43.8300   -3.6110   48.7220 N.3   257  HIS257     -0.1226
    127  CA        43.6880   -4.1310   50.0920 C.3   257  HIS257      0.1752
    128  C         42.2490   -4.4420   50.4660 C.2   257  HIS257      0.2596
    129  O         41.9610   -5.4660   51.0940 O.2   257  HIS257     -0.2718
    130  CB        44.2520   -3.1280   51.1010 C.3   257  HIS257      0.0759
    131  CG        45.7350   -2.9750   51.0190 C.ar  257  HIS257      0.0818
    132  ND1       46.6030   -3.7490   51.7630 N.ar  257  HIS257     -0.2268
    133  CD2       46.5090   -2.1640   50.2580 C.ar  257  HIS257      0.1154
    134  CE1       47.8490   -3.4080   51.4760 C.ar  257  HIS257      0.1986
    135  NE2       47.8200   -2.4500   50.5630 N.ar  257  HIS257     -0.2212
    136  N         41.3550   -3.5380   50.0760 N.am  258  THR258     -0.1953
    137  CA        39.9500   -3.6440   50.4160 C.3   258  THR258      0.1897
    138  C         39.2370   -4.8130   49.7250 C.2   258  THR258      0.2313
    139  O         38.4300   -5.4880   50.3460 O.2   258  THR258     -0.2863
    140  CB        39.2110   -2.3160   50.1570 C.3   258  THR258      0.1794
    141  OG1       39.2800   -1.9820   48.7670 O.3   258  THR258     -0.2208
    142  CG2       39.8120   -1.1980   50.9800 C.3   258  THR258      0.0378
    143  N         37.9050   -1.4460   56.1290 N.3   320  ILE320     -0.1245
    144  CA        38.2100   -0.2440   56.8890 C.3   320  ILE320      0.1561
    145  C         37.5160   -0.3070   58.2340 C.2   320  ILE320      0.2260
    146  O         36.3610    0.1030   58.3840 O.2   320  ILE320     -0.2867
    147  CB        37.7840    1.0010   56.1550 C.3   320  ILE320      0.0252
    148  CG1       38.4050    0.9950   54.7660 C.3   320  ILE320      0.0019
    149  CG2       38.1710    2.2620   56.9540 C.3   320  ILE320      0.0019
    150  CD1       38.5510    2.3460   54.2210 C.3   320  ILE320      0.0001
    151  N         36.9450    4.6580   61.0290 N.3   323  MET323     -0.1230
    152  CA        37.1340    5.9950   60.4580 C.3   323  MET323      0.1702
    153  C         37.4060    6.9820   61.5710 C.2   323  MET323      0.2592
    154  O         36.7810    6.9190   62.6280 O.2   323  MET323     -0.2718
    155  CB        35.9290    6.4400   59.6510 C.3   323  MET323      0.0401
    156  CG        35.7470    5.6370   58.4010 C.3   323  MET323      0.0596
    157  SD        34.5180    4.3400   58.5780 S.3   323  MET323     -0.1393
    158  CE        33.0790    5.1810   57.9330 C.3   323  MET323      0.0692
    159  N         38.3440    7.8900   61.3260 N.am  324  MET324     -0.1979
    160  CA        38.8390    8.7810   62.3650 C.3   324  MET324      0.1605
    161  C         38.9200   10.2270   61.8900 C.2   324  MET324      0.2287
    162  O         39.1160   10.4890   60.7150 O.2   324  MET324     -0.2864
    163  CB        40.1900    8.2700   62.8580 C.3   324  MET324      0.0413
    164  CG        40.7640    8.9930   64.0550 C.3   324  MET324      0.0598
    165  SD        42.1690    8.1390   64.8170 S.3   324  MET324     -0.1393
    166  CE        43.1600    7.6670   63.3910 C.3   324  MET324      0.0692
    167  N         33.1910    6.8620   50.3920 N.3   392  CYS392     -0.1235
    168  CA        33.9570    6.1600   49.3800 C.3   392  CYS392      0.1677
    169  C         33.3440    6.3840   48.0060 C.2   392  CYS392      0.2270
    170  O         32.1420    6.5730   47.8810 O.2   392  CYS392     -0.2867
    171  CB        34.0070    4.6710   49.6980 C.3   392  CYS392      0.0956
    172  SG        35.0020    3.7400   48.5620 S.3   392  CYS392     -0.0801
@<TRIPOS>BOND
     1    77    76    2
     2    74    75    1
     3    76    75    1
     4   111   110    1
     5    75    78    1
     6   100    99    1
     7    98    99    1
     8    98    97    1
     9    81    79    1
    10    78    79    1
    11   110   112    1
    12   110   109    1
    13    79    80    1
    14   109   106    1
    15    95    96    2
    16    95    94    1
    17    97    94    1
    18    93    94    1
    19   106   107    1
    20   106   105    1
    21   107   108    2
    22   105   103   am
    23    45    43    1
    24   101   102    1
    25   103   102    1
    26   103   104    2
    27    43    44    1
    28    43    40    1
    29   113   114    1
    30    31    30    2
    31    66    65    2
    32    40    39    1
    33    40    41    1
    34    65    64    1
    35    30    29    1
    36   114   115    1
    37   114   117    1
    38   123   122    1
    39   123   124    2
    40    64    63    1
    41    64    67    1
    42   121   115   am
    43   121   122    1
    44   125   122    1
    45   120   118    1
    46    41    46   am
    47    41    42    2
    48    46    47    1
    49   115   116    2
    50    70    72   ar
    51    70    68   ar
    52   118   117    1
    53   118   119    1
    54    29    32    1
    55    29    28    1
    56   170   169    2
    57    72    73   ar
    58   169   168    1
    59    32    33    1
    60   172   171    1
    61    33    35   ar
    62    33    34   ar
    63    35    37   ar
    64    67    68    1
    65   126   127    1
    66   141   140    1
    67    68    69   ar
    68    47    50    1
    69    47    48    1
    70    73    71   ar
    71    34    36   ar
    72    37    38   ar
    73   168   171    1
    74   168   167    1
    75    36    38   ar
    76   138   139    2
    77   138   137    1
    78    69    71   ar
    79   136   137    1
    80   136   128   am
    81   127   128    1
    82   127   130    1
    83    48    49    2
    84    48    51   am
    85   140   137    1
    86   140   142    1
    87   133   135   ar
    88   133   131   ar
    89   128   129    2
    90   135   134   ar
    91   131   130    1
    92   131   132   ar
    93    51    52    1
    94   134   132   ar
    95    24    23    2
    96    52    53    1
    97    52    55    1
    98    53    54    2
    99    90    92   ar
   100    90    88   ar
   101    27    25    1
   102    23    22    1
   103    92    91   ar
   104    26    25    1
   105    59    57   ar
   106    59    61   ar
   107    62    61    1
   108    57    56   ar
   109    61    60   ar
   110    56    55    1
   111    56    58   ar
   112    60    58   ar
   113    88    87   ar
   114    25    22    1
   115    22    21    1
   116    91    89   ar
   117   150   148    1
   118   148   147    1
   119    16    15    2
   120    87    89   ar
   121    87    86    1
   122    21    15   am
   123    15    14    1
   124    82    83    1
   125   143   144    1
   126    86    83    1
   127   147   144    1
   128   147   149    1
   129     7     9   ar
   130     7     6   ar
   131   144   145    1
   132    83    84    1
   133     4     3    2
   134    14    17    1
   135    14    13    1
   136     5     6    1
   137     5     2    1
   138     9    11   ar
   139     3     2    1
   140    17    18    1
   141     6     8   ar
   142   158   157    1
   143     2     1    1
   144    84    85    2
   145   145   146    2
   146    11    12    1
   147    11    10   ar
   148   156   157    1
   149   156   155    1
   150     8    10   ar
   151    20    18    1
   152    18    19    1
   153   155   152    1
   154   152   151    1
   155   152   153    1
   156   162   161    2
   157   159   153   am
   158   159   160    1
   159   153   154    2
   160   161   160    1
   161   160   163    1
   162   163   164    1
   163   166   165    1
   164   164   165    1
