@<TRIPOS>MOLECULE
tmp/3juuB00.pdb
 111 108 0 0 0
SMALL
GASTEIGER

@<TRIPOS>ATOM
      1  N         18.1350  -41.7290   32.5350 N.3    44  GLY44      -0.1210
      2  CA        17.1520  -40.8560   33.1440 C.3    44  GLY44       0.1956
      3  C         15.9770  -40.4780   32.2470 C.2    44  GLY44       0.2611
      4  O         14.8640  -40.3340   32.7150 O.2    44  GLY44      -0.2717
      5  N         16.1870  -40.2960   30.9520 N.am   45  TRP45      -0.1976
      6  CA        15.1350  -39.7500   30.1250 C.3    45  TRP45       0.1640
      7  C         14.4440  -40.9600   29.4510 C.2    45  TRP45       0.2290
      8  O         15.1090  -41.6690   28.6930 O.2    45  TRP45      -0.2864
      9  CB        15.7810  -38.8840   29.0410 C.3    45  TRP45       0.0576
     10  CG        14.8290  -38.2290   28.1480 C.ar   45  TRP45       0.0006
     11  CD1       13.5200  -37.8820   28.4540 C.ar   45  TRP45       0.0946
     12  CD2       15.0850  -37.7430   26.8270 C.ar   45  TRP45       0.0152
     13  NE1       12.9650  -37.1720   27.3920 N.ar   45  TRP45      -0.2442
     14  CE2       13.8640  -37.1430   26.3640 C.ar   45  TRP45       0.0810
     15  CE3       16.2220  -37.7720   25.9550 C.ar   45  TRP45       0.0012
     16  CZ2       13.7270  -36.5570   25.0890 C.ar   45  TRP45       0.0191
     17  CZ3       16.0620  -37.1370   24.6550 C.ar   45  TRP45       0.0001
     18  CH2       14.8280  -36.5820   24.2560 C.ar   45  TRP45       0.0015
     19  N         10.2670  -38.3050   25.3530 N.3    48  ARG48      -0.1245
     20  CA         9.2700  -37.1960   25.3260 C.3    48  ARG48       0.1563
     21  C          7.9460  -37.7820   24.8110 C.2    48  ARG48       0.2260
     22  O          7.8560  -38.2910   23.6870 O.2    48  ARG48      -0.2867
     23  CB         9.7480  -36.0470   24.4500 C.3    48  ARG48       0.0307
     24  CG         8.7620  -34.8660   24.4130 C.3    48  ARG48       0.0489
     25  CD         9.2130  -33.6660   23.5540 C.3    48  ARG48       0.2205
     26  NE        10.5950  -33.2210   23.9130 N.pl3  48  ARG48      -0.0865
     27  CZ        11.7030  -33.5600   23.2430 C.cat  48  ARG48       0.5346
     28  NH1       11.6590  -34.3470   22.1590 N.pl3  48  ARG48       0.1354
     29  NH2       12.8730  -33.0620   23.6480 N.pl3  48  ARG48       0.1354
     30  N         16.9900  -44.8590   22.4500 N.3    89  TYR89      -0.1241
     31  CA        18.0200  -43.9700   23.0410 C.3    89  TYR89       0.1605
     32  C         19.3230  -44.7130   23.1220 C.2    89  TYR89       0.2264
     33  O         19.3120  -45.8680   23.5270 O.2    89  TYR89      -0.2867
     34  CB        17.5140  -43.5250   24.4260 C.3    89  TYR89       0.0534
     35  CG        18.5280  -42.8140   25.3220 C.ar   89  TYR89      -0.0201
     36  CD1       18.3750  -41.4580   25.6490 C.ar   89  TYR89      -0.0009
     37  CD2       19.5840  -43.5150   25.8790 C.ar   89  TYR89      -0.0009
     38  CE1       19.2530  -40.8070   26.5100 C.ar   89  TYR89       0.0417
     39  CE2       20.4890  -42.8760   26.7680 C.ar   89  TYR89       0.0417
     40  CZ        20.3050  -41.5150   27.0270 C.ar   89  TYR89       0.1957
     41  OH        21.1520  -40.9580   27.9510 O.3    89  TYR89      -0.2866
     42  N         24.1560  -35.8830   19.2040 N.3   117  TRP117     -0.1241
     43  CA        24.3790  -34.6590   20.0070 C.3   117  TRP117      0.1605
     44  C         25.1770  -35.0320   21.2380 C.2   117  TRP117      0.2264
     45  O         25.4230  -36.2350   21.5030 O.2   117  TRP117     -0.2867
     46  CB        23.0130  -33.9790   20.3220 C.3   117  TRP117      0.0550
     47  CG        21.9360  -34.9220   20.8640 C.ar  117  TRP117      0.0003
     48  CD1       21.2150  -35.8190   20.1180 C.ar  117  TRP117      0.0946
     49  CD2       21.3570  -34.9580   22.1900 C.ar  117  TRP117      0.0152
     50  NE1       20.2640  -36.4310   20.8990 N.ar  117  TRP117     -0.2442
     51  CE2       20.3090  -35.9090   22.1590 C.ar  117  TRP117      0.0810
     52  CE3       21.6170  -34.2300   23.3930 C.ar  117  TRP117      0.0012
     53  CZ2       19.5170  -36.2540   23.3270 C.ar  117  TRP117      0.0191
     54  CZ3       20.8470  -34.5490   24.5520 C.ar  117  TRP117      0.0001
     55  CH2       19.8190  -35.5230   24.4880 C.ar  117  TRP117      0.0015
     56  N         25.6240  -33.8370   25.6130 N.3   119  ILE119     -0.1231
     57  CA        25.0760  -33.0400   26.7290 C.3   119  ILE119      0.1692
     58  C         25.8130  -33.4150   28.0210 C.2   119  ILE119      0.2592
     59  O         26.3640  -34.5130   28.1140 O.2   119  ILE119     -0.2718
     60  CB        23.5490  -33.3520   26.8810 C.3   119  ILE119      0.0266
     61  CG1       22.8700  -32.3740   27.8670 C.3   119  ILE119      0.0019
     62  CG2       23.2630  -34.9000   27.2840 C.3   119  ILE119      0.0020
     63  CD1       21.3180  -32.4860   27.7240 C.3   119  ILE119      0.0001
     64  N         25.8880  -32.4790   28.9850 N.am  120  ASN120     -0.1960
     65  CA        26.5490  -32.8050   30.2530 C.3   120  ASN120      0.1819
     66  C         25.5760  -33.5610   31.1310 C.2   120  ASN120      0.2621
     67  O         24.4030  -33.7230   30.7830 O.2   120  ASN120     -0.2715
     68  CB        27.0860  -31.5440   30.9330 C.3   120  ASN120      0.1195
     69  CG        26.0090  -30.5650   31.3250 C.2   120  ASN120      0.2630
     70  OD1       24.9330  -30.4410   30.6840 O.2   120  ASN120     -0.2716
     71  ND2       26.2630  -29.8950   32.4380 N.am  120  ASN120     -0.0877
     72  N         26.0580  -34.1080   32.2100 N.am  121  GLU121     -0.1977
     73  CA        25.1480  -34.8450   33.1260 C.3   121  GLU121      0.1602
     74  C         25.4340  -34.2860   34.5340 C.2   121  GLU121      0.2287
     75  O         26.5200  -34.4920   35.0090 O.2   121  GLU121     -0.2864
     76  CB        25.5310  -36.3340   33.0740 C.3   121  GLU121      0.0415
     77  CG        25.0270  -36.9880   31.7670 C.3   121  GLU121      0.1163
     78  CD        25.4720  -38.4510   31.5860 C.2   121  GLU121      0.3649
     79  OE1       24.9480  -39.0510   30.6590 O.co2 121  GLU121     -0.2457
     80  OE2       26.3230  -39.0190   32.3340 O.co2 121  GLU121     -0.2457
     81  N         24.1340  -28.2320   26.0890 N.3   134  GLU134     -0.1245
     82  CA        23.7540  -29.2430   25.0760 C.3   134  GLU134      0.1567
     83  C         24.2430  -28.7730   23.7010 C.2   134  GLU134      0.2260
     84  O         24.0310  -27.6070   23.3080 O.2   134  GLU134     -0.2867
     85  CB        22.2180  -29.2950   25.0130 C.3   134  GLU134      0.0388
     86  CG        21.7280  -30.3610   23.9050 C.3   134  GLU134      0.1160
     87  CD        20.2320  -30.4430   23.8020 C.2   134  GLU134      0.3649
     88  OE1       19.5270  -29.9760   24.7260 O.co2 134  GLU134     -0.2457
     89  OE2       19.7460  -31.0030   22.7870 O.co2 134  GLU134     -0.2457
     90  N         20.8910  -23.9200   29.7430 N.3   165  ARG165     -0.1245
     91  CA        19.6270  -23.7630   30.4710 C.3   165  ARG165      0.1563
     92  C         19.8160  -24.4090   31.8220 C.2   165  ARG165      0.2260
     93  O         20.9240  -24.8190   32.1060 O.2   165  ARG165     -0.2867
     94  CB        18.4440  -24.4150   29.7320 C.3   165  ARG165      0.0307
     95  CG        18.6810  -25.9300   29.3890 C.3   165  ARG165      0.0489
     96  CD        17.3780  -26.5930   28.7590 C.3   165  ARG165      0.2205
     97  NE        17.6950  -28.0400   28.5750 N.pl3 165  ARG165     -0.0865
     98  CZ        18.3040  -28.5380   27.4890 C.cat 165  ARG165      0.5346
     99  NH1       18.6340  -27.7430   26.4310 N.pl3 165  ARG165      0.1354
    100  NH2       18.5830  -29.8610   27.4440 N.pl3 165  ARG165      0.1354
    101  N         24.9270  -38.8230   22.4370 N.3   230  ARG230     -0.1245
    102  CA        23.5410  -39.2710   22.3290 C.3   230  ARG230      0.1563
    103  C         23.2180  -39.5540   20.8470 C.2   230  ARG230      0.2260
    104  O         23.5210  -38.6980   19.9610 O.2   230  ARG230     -0.2867
    105  CB        22.6480  -38.0840   22.7430 C.3   230  ARG230      0.0307
    106  CG        22.8130  -37.7290   24.2670 C.3   230  ARG230      0.0489
    107  CD        22.0250  -38.7090   25.1410 C.3   230  ARG230      0.2205
    108  NE        22.0830  -38.3440   26.5720 N.pl3 230  ARG230     -0.0865
    109  CZ        23.0680  -38.6550   27.4200 C.cat 230  ARG230      0.5346
    110  NH1       24.2050  -39.2680   27.0040 N.pl3 230  ARG230      0.1354
    111  NH2       22.9100  -38.2980   28.7090 N.pl3 230  ARG230      0.1354
@<TRIPOS>BOND
     1    42    43    1
     2   104   103    2
     3    43    46    1
     4    43    44    1
     5    48    47   ar
     6    48    50   ar
     7    46    47    1
     8   103   102    1
     9    47    49   ar
    10    50    51   ar
    11    44    45    2
    12    51    49   ar
    13    51    53   ar
    14    28    27    1
    15    49    52   ar
    16   102   101    1
    17   102   105    1
    18    30    31    1
    19   105   106    1
    20    89    87   ar
    21    31    32    1
    22    31    34    1
    23    32    33    2
    24    27    29    1
    25    27    26    2
    26    84    83    2
    27    53    55   ar
    28    52    54   ar
    29    25    26    1
    30    25    24    1
    31    22    21    2
    32    83    82    1
    33    87    86    1
    34    87    88   ar
    35    86    85    1
    36    18    17   ar
    37    18    16   ar
    38   106   107    1
    39    24    23    1
    40    34    35    1
    41    23    20    1
    42    55    54   ar
    43    17    15   ar
    44    21    20    1
    45    85    82    1
    46    82    81    1
    47    16    14   ar
    48   107   108    1
    49    35    36   ar
    50    35    37   ar
    51    20    19    1
    52    56    57    1
    53    36    38   ar
    54    37    39   ar
    55    15    12   ar
    56    14    12   ar
    57    14    13   ar
    58    99    98    1
    59    38    40   ar
    60   108   109    2
    61    57    60    1
    62    57    58    1
    63    39    40   ar
    64    12    10   ar
    65    60    62    1
    66    60    61    1
    67   110   109    1
    68    40    41    1
    69    13    11   ar
    70   109   111    1
    71   100    98    1
    72    98    97    2
    73    63    61    1
    74    58    59    2
    75    58    64   am
    76    10    11   ar
    77    10     9    1
    78    97    96    1
    79     8     7    2
    80    96    95    1
    81    64    65    1
    82     9     6    1
    83    95    94    1
    84     7     6    1
    85    94    91    1
    86    90    91    1
    87     6     5    1
    88    65    68    1
    89    65    66    1
    90    91    92    1
    91    79    78   ar
    92    70    69    2
    93    67    66    2
    94    68    69    1
    95     5     3   am
    96    66    72   am
    97    69    71   am
    98    78    77    1
    99    78    80   ar
   100    77    76    1
   101    92    93    2
   102    72    73    1
   103     3     4    2
   104     3     2    1
   105     1     2    1
   106    76    73    1
   107    73    74    1
   108    74    75    2
