@<TRIPOS>MOLECULE
tmp/3juvA01.pdb
 82 84 0 0 0
SMALL
GASTEIGER

@<TRIPOS>ATOM
      1  N        -67.6220   33.9740  -40.1180 N.3     4  VAL4       -0.1245
      2  CA       -68.9810   33.7460  -39.5520 C.3     4  VAL4        0.1561
      3  C        -69.4690   32.2780  -39.8080 C.2     4  VAL4        0.2260
      4  O        -69.8360   31.9040  -40.9380 O.2     4  VAL4       -0.2867
      5  CB       -70.0380   34.8110  -40.0600 C.3     4  VAL4        0.0252
      6  CG1      -71.2570   34.8670  -39.1380 C.3     4  VAL4        0.0019
      7  CG2      -69.4110   36.2260  -40.2210 C.3     4  VAL4        0.0019
      8  N        -71.1980   30.7820  -36.8000 N.3     6  SER6       -0.1203
      9  CA       -71.7190   30.8640  -35.4590 C.3     6  SER6        0.2005
     10  C        -73.0890   30.2340  -35.5200 C.2     6  SER6        0.2461
     11  O        -73.5570   29.9180  -36.6090 O.2     6  SER6       -0.2732
     12  CB       -71.8480   32.3230  -35.0720 C.3     6  SER6        0.2103
     13  OG       -70.9640   33.1020  -35.8450 O.3     6  SER6       -0.2182
     14  N        -73.7420   30.0400  -34.3600 N.am    7  PRO7       -0.2718
     15  CA       -75.0420   29.3980  -34.4030 C.3     7  PRO7        0.1520
     16  C        -76.0470   30.3020  -35.0740 C.2     7  PRO7        0.2440
     17  O        -75.8260   31.5160  -35.1260 O.2     7  PRO7       -0.2731
     18  CB       -75.3870   29.2150  -32.9290 C.3     7  PRO7        0.0310
     19  CG       -74.0740   29.2070  -32.2430 C.3     7  PRO7        0.0237
     20  CD       -73.2620   30.1990  -32.9760 C.3     7  PRO7        0.0939
     21  N        -77.1320   29.7120  -35.6140 N.am    8  PRO8       -0.2716
     22  CA       -78.2340   30.4640  -36.1970 C.3     8  PRO8        0.1536
     23  C        -78.7480   31.5340  -35.2420 C.2     8  PRO8        0.2598
     24  O        -78.9410   31.2720  -34.0490 O.2     8  PRO8       -0.2715
     25  CB       -79.3140   29.3970  -36.4350 C.3     8  PRO8        0.0310
     26  CG       -78.8540   28.2010  -35.7300 C.3     8  PRO8        0.0237
     27  CD       -77.3730   28.2690  -35.7160 C.3     8  PRO8        0.0939
     28  N        -78.9480   32.7360  -35.7680 N.am    9  TYR9       -0.1974
     29  CA       -79.3780   33.8520  -34.9550 C.3     9  TYR9        0.1639
     30  C        -80.8430   34.1170  -35.2400 C.2     9  TYR9        0.2290
     31  O        -81.2360   34.2720  -36.3940 O.2     9  TYR9       -0.2864
     32  CB       -78.4930   35.0750  -35.2310 C.3     9  TYR9        0.0560
     33  CG       -78.8600   36.2970  -34.4360 C.ar    9  TYR9       -0.0198
     34  CD1      -78.3990   36.4780  -33.1320 C.ar    9  TYR9       -0.0009
     35  CD2      -79.6780   37.2790  -34.9940 C.ar    9  TYR9       -0.0009
     36  CE1      -78.7570   37.6030  -32.4040 C.ar    9  TYR9        0.0417
     37  CE2      -80.0420   38.3980  -34.2820 C.ar    9  TYR9        0.0417
     38  CZ       -79.5860   38.5580  -32.9920 C.ar    9  TYR9        0.1957
     39  OH       -79.9750   39.6860  -32.3100 O.3     9  TYR9       -0.2866
     40  N        -83.8140   36.5700  -35.2720 N.3    11  PHE11      -0.1227
     41  CA       -83.9990   38.0060  -35.3330 C.3    11  PHE11       0.1736
     42  C        -85.2100   38.4460  -34.5350 C.2    11  PHE11       0.2596
     43  O        -86.1890   37.7100  -34.4290 O.2    11  PHE11      -0.2718
     44  CB       -84.1070   38.4780  -36.7770 C.3    11  PHE11       0.0547
     45  CG       -82.7810   38.5610  -37.4810 C.ar   11  PHE11      -0.0202
     46  CD1      -82.4660   37.6760  -38.5170 C.ar   11  PHE11      -0.0042
     47  CD2      -81.8300   39.5240  -37.1020 C.ar   11  PHE11      -0.0042
     48  CE1      -81.2190   37.7520  -39.1740 C.ar   11  PHE11      -0.0003
     49  CE2      -80.5760   39.6060  -37.7460 C.ar   11  PHE11      -0.0003
     50  CZ       -80.2720   38.7220  -38.7840 C.ar   11  PHE11      -0.0000
     51  N        -85.1140   39.6370  -33.9470 N.am   12  SER12      -0.1938
     52  CA       -86.2470   40.2650  -33.2950 C.3    12  SER12       0.2040
     53  C        -86.5210   41.5990  -33.9430 C.2    12  SER12       0.2485
     54  O        -85.5910   42.2870  -34.3540 O.2    12  SER12      -0.2729
     55  CB       -85.9950   40.4830  -31.8080 C.3    12  SER12       0.2129
     56  OG       -87.2140   40.8070  -31.1540 O.3    12  SER12      -0.2179
     57  N        -87.8050   41.9710  -34.0440 N.am   13  PRO13      -0.2726
     58  CA       -88.1360   43.3070  -34.5370 C.3    13  PRO13       0.1402
     59  C        -88.0690   44.3960  -33.4650 C.2    13  PRO13       0.2269
     60  O        -88.3630   45.5410  -33.7700 O.2    13  PRO13      -0.2865
     61  CB       -89.5800   43.1520  -35.0410 C.3    13  PRO13       0.0296
     62  CG       -89.8040   41.6580  -35.1340 C.3    13  PRO13       0.0237
     63  CD       -88.9920   41.1010  -34.0100 C.3    13  PRO13       0.0939
     64  N        -85.6650   46.5630  -31.3640 N.3    15  PRO15      -0.2116
     65  CA       -84.2660   46.9500  -31.4040 C.3    15  PRO15       0.1372
     66  C        -83.4020   46.6400  -30.1830 C.2    15  PRO15       0.2244
     67  O        -82.2950   46.1390  -30.3540 O.2    15  PRO15      -0.2868
     68  CB       -84.3310   48.4490  -31.6650 C.3    15  PRO15       0.0268
     69  CG       -85.4900   48.5670  -32.5500 C.3    15  PRO15       0.0207
     70  CD       -86.4980   47.5660  -32.0460 C.3    15  PRO15       0.0892
     71  N        -84.5720   25.7480  -34.9930 N.3    38  TYR38      -0.1241
     72  CA       -83.1460   26.0540  -35.1610 C.3    38  TYR38       0.1605
     73  C        -82.1830   24.9770  -34.6490 C.2    38  TYR38       0.2264
     74  O        -80.9550   25.1080  -34.7760 O.2    38  TYR38      -0.2867
     75  CB       -82.8200   27.3880  -34.4910 C.3    38  TYR38       0.0534
     76  CG       -83.5950   28.5580  -35.0380 C.ar   38  TYR38      -0.0201
     77  CD1      -84.8130   28.9270  -34.4830 C.ar   38  TYR38      -0.0009
     78  CD2      -83.1030   29.3080  -36.1030 C.ar   38  TYR38      -0.0009
     79  CE1      -85.5280   29.9970  -34.9780 C.ar   38  TYR38       0.0417
     80  CE2      -83.8120   30.3840  -36.6080 C.ar   38  TYR38       0.0417
     81  CZ       -85.0240   30.7190  -36.0390 C.ar   38  TYR38       0.1957
     82  OH       -85.7410   31.7810  -36.5270 O.3    38  TYR38      -0.2866
@<TRIPOS>BOND
     1     4     3    2
     2     7     5    1
     3     1     2    1
     4     5     2    1
     5     5     6    1
     6     3     2    1
     7    48    50   ar
     8    48    46   ar
     9    50    49   ar
    10    46    45   ar
    11    49    47   ar
    12    45    47   ar
    13    45    44    1
    14     8     9    1
    15    44    41    1
    16    11    10    2
    17    80    78   ar
    18    80    81   ar
    19    82    81    1
    20    25    22    1
    21    25    26    1
    22    31    30    2
    23    22    21    1
    24    22    23    1
    25    78    76   ar
    26    81    79   ar
    27    13    12    1
    28    28    23   am
    29    28    29    1
    30    26    27    1
    31    27    21    1
    32    21    16   am
    33    10     9    1
    34    10    14   am
    35     9    12    1
    36    41    40    1
    37    41    42    1
    38    23    24    2
    39    30    29    1
    40    32    29    1
    41    32    33    1
    42    72    71    1
    43    72    73    1
    44    72    75    1
    45    62    61    1
    46    62    63    1
    47    17    16    2
    48    16    15    1
    49    61    58    1
    50    76    75    1
    51    76    77   ar
    52    35    33   ar
    53    35    37   ar
    54    79    77   ar
    55    74    73    2
    56    58    57    1
    57    58    59    1
    58    42    43    2
    59    42    51   am
    60    33    34   ar
    61    15    14    1
    62    15    18    1
    63    14    20    1
    64    54    53    2
    65    37    38   ar
    66    57    63    1
    67    57    53   am
    68    51    52    1
    69    53    52    1
    70    60    59    2
    71    52    55    1
    72    34    36   ar
    73    38    36   ar
    74    38    39    1
    75    20    19    1
    76    18    19    1
    77    69    70    1
    78    69    68    1
    79    70    64    1
    80    55    56    1
    81    68    65    1
    82    65    64    1
    83    65    66    1
    84    67    66    2
