@<TRIPOS>MOLECULE
tmp/3jv2B00.pdb
 85 83 0 0 0
SMALL
GASTEIGER

@<TRIPOS>ATOM
      1  N         55.1200  -37.3800  -13.9570 N.3   165  ASN165     -0.1240
      2  CA        55.5770  -36.2540  -14.7550 C.3   165  ASN165      0.1653
      3  C         54.4540  -35.2750  -15.0880 C.2   165  ASN165      0.2266
      4  O         54.5720  -34.0840  -14.8040 O.2   165  ASN165     -0.2867
      5  CB        56.2850  -36.7230  -16.0200 C.3   165  ASN165      0.1155
      6  CG        57.5110  -37.5580  -15.7110 C.2   165  ASN165      0.2627
      7  OD1       58.6350  -37.0590  -15.7310 O.2   165  ASN165     -0.2716
      8  ND2       57.2940  -38.8350  -15.3880 N.am  165  ASN165     -0.0877
      9  N         54.1430  -31.3710  -13.9100 N.3   169  PHE169     -0.1241
     10  CA        54.1610  -30.2980  -14.9090 C.3   169  PHE169      0.1605
     11  C         52.8910  -29.4570  -14.7760 C.2   169  PHE169      0.2264
     12  O         52.9520  -28.2330  -14.7650 O.2   169  PHE169     -0.2867
     13  CB        54.3170  -30.8360  -16.3370 C.3   169  PHE169      0.0534
     14  CG        55.7390  -31.2060  -16.7110 C.ar  169  PHE169     -0.0203
     15  CD1       56.0250  -32.4510  -17.2620 C.ar  169  PHE169     -0.0042
     16  CD2       56.7850  -30.3130  -16.5100 C.ar  169  PHE169     -0.0042
     17  CE1       57.3350  -32.8030  -17.6090 C.ar  169  PHE169     -0.0003
     18  CE2       58.1010  -30.6540  -16.8470 C.ar  169  PHE169     -0.0003
     19  CZ        58.3760  -31.9000  -17.4030 C.ar  169  PHE169     -0.0000
     20  N         52.6110  -25.3240  -14.3010 N.3   173  ARG173     -0.1245
     21  CA        51.9100  -24.4480  -15.2280 C.3   173  ARG173      0.1563
     22  C         50.7550  -23.7590  -14.5190 C.2   173  ARG173      0.2260
     23  O         50.4440  -22.6210  -14.8330 O.2   173  ARG173     -0.2867
     24  CB        51.4020  -25.2050  -16.4540 C.3   173  ARG173      0.0307
     25  CG        52.4930  -25.8060  -17.3640 C.3   173  ARG173      0.0489
     26  CD        51.8340  -26.6050  -18.4750 C.3   173  ARG173      0.2205
     27  NE        52.6840  -27.6680  -18.9970 N.pl3 173  ARG173     -0.0865
     28  CZ        52.4200  -28.9680  -18.8950 C.cat 173  ARG173      0.5346
     29  NH1       51.3260  -29.3940  -18.2780 N.pl3 173  ARG173      0.1354
     30  NH2       53.2590  -29.8470  -19.4160 N.pl3 173  ARG173      0.1354
     31  N         64.7510  -35.7230   -8.6810 N.3   206  THR206     -0.1204
     32  CA        64.7050  -35.3800  -10.0860 C.3   206  THR206      0.1979
     33  C         63.8470  -34.1360  -10.3010 C.2   206  THR206      0.2460
     34  O         62.6530  -34.1330   -9.9860 O.2   206  THR206     -0.2732
     35  CB        64.1090  -36.5140  -10.9070 C.3   206  THR206      0.1783
     36  OG1       64.9190  -37.6840  -10.7370 O.3   206  THR206     -0.2211
     37  CG2       64.0500  -36.1200  -12.3790 C.3   206  THR206      0.0376
     38  N         64.4660  -33.0730  -10.8270 N.am  207  PRO207     -0.2717
     39  CA        63.7760  -31.8040  -11.0300 C.3   207  PRO207      0.1535
     40  C         62.9410  -31.7560  -12.3170 C.2   207  PRO207      0.2598
     41  O         63.4250  -32.1190  -13.3920 O.2   207  PRO207     -0.2715
     42  CB        64.9290  -30.7860  -11.1130 C.3   207  PRO207      0.0310
     43  CG        66.1080  -31.5710  -11.5920 C.3   207  PRO207      0.0237
     44  CD        65.9040  -33.0060  -11.1710 C.3   207  PRO207      0.0939
     45  N         61.6890  -31.3260  -12.1810 N.am  208  LEU208     -0.1964
     46  CA        60.8660  -30.9080  -13.3070 C.3   208  LEU208      0.1728
     47  C         61.1460  -29.4420  -13.5790 C.2   208  LEU208      0.2616
     48  O         61.1070  -28.6210  -12.6610 O.2   208  LEU208     -0.2715
     49  CB        59.3900  -31.0610  -12.9610 C.3   208  LEU208      0.0311
     50  CG        58.6310  -32.2930  -13.4540 C.3   208  LEU208      0.0022
     51  CD1       59.5420  -33.3910  -14.0630 C.3   208  LEU208      0.0001
     52  CD2       57.7570  -32.8150  -12.3230 C.3   208  LEU208      0.0001
     53  N         61.4090  -29.1210  -14.8410 N.am  209  ILE209     -0.1963
     54  CA        61.8060  -27.7860  -15.2660 C.3   209  ILE209      0.1727
     55  C         60.8440  -27.2690  -16.3300 C.2   209  ILE209      0.2616
     56  O         60.5590  -27.9720  -17.2980 O.2   209  ILE209     -0.2715
     57  CB        63.2170  -27.8170  -15.9400 C.3   209  ILE209      0.0290
     58  CG1       64.3050  -28.3090  -14.9800 C.3   209  ILE209      0.0022
     59  CG2       63.5880  -26.4670  -16.5240 C.3   209  ILE209      0.0023
     60  CD1       64.3280  -27.5890  -13.6790 C.3   209  ILE209      0.0001
     61  N         60.3580  -26.0420  -16.1710 N.am  210  ILE210     -0.1963
     62  CA        59.7240  -25.3490  -17.2850 C.3   210  ILE210      0.1727
     63  C         60.6060  -24.1790  -17.7350 C.2   210  ILE210      0.2616
     64  O         60.9740  -23.3390  -16.9180 O.2   210  ILE210     -0.2715
     65  CB        58.3170  -24.8530  -16.9270 C.3   210  ILE210      0.0290
     66  CG1       57.4610  -26.0300  -16.4850 C.3   210  ILE210      0.0022
     67  CG2       57.6700  -24.1450  -18.1290 C.3   210  ILE210      0.0023
     68  CD1       56.0020  -25.7650  -16.5520 C.3   210  ILE210      0.0001
     69  N         60.9330  -24.1270  -19.0290 N.am  211  SER211     -0.1950
     70  CA        61.8900  -23.1520  -19.5570 C.3   211  SER211      0.1924
     71  C         61.2390  -22.0080  -20.3200 C.2   211  SER211      0.2314
     72  O         60.1890  -22.1670  -20.9270 O.2   211  SER211     -0.2863
     73  CB        62.8840  -23.8320  -20.5000 C.3   211  SER211      0.2116
     74  OG        63.5210  -24.9200  -19.8760 O.3   211  SER211     -0.2180
     75  N         60.1270  -34.3040   -7.3610 N.3   344  PHE344     -0.1241
     76  CA        59.0090  -35.1620   -7.0670 C.3   344  PHE344      0.1605
     77  C         58.7530  -35.2500   -5.5700 C.2   344  PHE344      0.2264
     78  O         57.5970  -35.2860   -5.1430 O.2   344  PHE344     -0.2867
     79  CB        59.2070  -36.5430   -7.7020 C.3   344  PHE344      0.0534
     80  CG        59.0210  -36.5450   -9.1960 C.ar  344  PHE344     -0.0203
     81  CD1       60.0930  -36.7500  -10.0460 C.ar  344  PHE344     -0.0042
     82  CD2       57.7710  -36.3060   -9.7520 C.ar  344  PHE344     -0.0042
     83  CE1       59.9250  -36.7320  -11.4280 C.ar  344  PHE344     -0.0003
     84  CE2       57.5950  -36.2840  -11.1320 C.ar  344  PHE344     -0.0003
     85  CZ        58.6800  -36.4960  -11.9670 C.ar  344  PHE344     -0.0000
@<TRIPOS>BOND
     1    72    71    2
     2    73    74    1
     3    73    70    1
     4    71    70    1
     5    70    69    1
     6    30    28    1
     7    69    63   am
     8    27    28    2
     9    27    26    1
    10    28    29    1
    11    26    25    1
    12    67    65    1
    13    63    62    1
    14    63    64    2
    15    17    19   ar
    16    17    15   ar
    17    19    18   ar
    18    25    24    1
    19    56    55    2
    20    62    65    1
    21    62    61    1
    22    15    14   ar
    23    65    66    1
    24    18    16   ar
    25    14    16   ar
    26    14    13    1
    27    68    66    1
    28    59    57    1
    29    24    21    1
    30    13    10    1
    31    55    61   am
    32    55    54    1
    33     5     6    1
    34     5     2    1
    35    57    54    1
    36    57    58    1
    37     7     6    2
    38     6     8   am
    39    54    53    1
    40    21    22    1
    41    21    20    1
    42     3     4    2
    43     3     2    1
    44    58    60    1
    45    10    11    1
    46    10     9    1
    47    53    47   am
    48    23    22    2
    49    11    12    2
    50     2     1    1
    51    51    50    1
    52    47    46    1
    53    47    48    2
    54    50    49    1
    55    50    52    1
    56    41    40    2
    57    46    49    1
    58    46    45    1
    59    37    35    1
    60    40    45   am
    61    40    39    1
    62    85    83   ar
    63    85    84   ar
    64    43    44    1
    65    43    42    1
    66    83    81   ar
    67    44    38    1
    68    84    82   ar
    69    42    39    1
    70    39    38    1
    71    35    36    1
    72    35    32    1
    73    38    33   am
    74    33    32    1
    75    33    34    2
    76    32    31    1
    77    81    80   ar
    78    82    80   ar
    79    80    79    1
    80    79    76    1
    81    75    76    1
    82    76    77    1
    83    77    78    2
