@<TRIPOS>MOLECULE
tmp/3jvgB01.pdb
 194 187 0 0 0
SMALL
GASTEIGER

@<TRIPOS>ATOM
      1  N          3.9700   59.9270  -11.9240 N.3    63  SER63      -0.1217
      2  CA         2.6510   59.8220  -11.2730 C.3    63  SER63       0.1889
      3  C          2.7510   60.1450   -9.7510 C.2    63  SER63       0.2288
      4  O          1.9040   60.8330   -9.1950 O.2    63  SER63      -0.2866
      5  CB         2.0350   58.4300  -11.5030 C.3    63  SER63       0.2089
      6  OG         1.7320   58.2030  -12.9000 O.3    63  SER63      -0.2183
      7  N          3.1930   63.9170   -9.3990 N.3    66  SER66      -0.1202
      8  CA         1.9930   64.7020   -9.6610 C.3    66  SER66       0.2020
      9  C          1.0490   64.5560   -8.5050 C.2    66  SER66       0.2618
     10  O          0.4090   65.5230   -8.1200 O.2    66  SER66      -0.2717
     11  CB         1.2400   64.3320  -10.9700 C.3    66  SER66       0.2103
     12  OG         2.1060   64.1450  -12.0590 O.3    66  SER66      -0.2182
     13  N          0.9520   63.3420   -7.9510 N.am   67  TYR67      -0.1975
     14  CA         0.0280   63.0790   -6.8410 C.3    67  TYR67       0.1639
     15  C          0.3360   64.0530   -5.7410 C.2    67  TYR67       0.2290
     16  O         -0.5300   64.7920   -5.2630 O.2    67  TYR67      -0.2864
     17  CB         0.1350   61.6310   -6.3170 C.3    67  TYR67       0.0560
     18  CG        -0.7230   61.3960   -5.0400 C.ar   67  TYR67      -0.0198
     19  CD1       -2.0860   61.1490   -5.1560 C.ar   67  TYR67      -0.0009
     20  CD2       -0.1730   61.5100   -3.7380 C.ar   67  TYR67      -0.0009
     21  CE1       -2.8910   60.9710   -4.0280 C.ar   67  TYR67       0.0417
     22  CE2       -0.9740   61.3200   -2.5970 C.ar   67  TYR67       0.0417
     23  CZ        -2.3290   61.0720   -2.7630 C.ar   67  TYR67       0.1957
     24  OH        -3.1920   60.8610   -1.6930 O.3    67  TYR67      -0.2866
     25  N         -0.3360   67.8320   -6.8300 N.3    70  ASP70      -0.1225
     26  CA        -1.7080   68.1600   -6.9850 C.3    70  ASP70       0.1805
     27  C         -2.4210   68.0630   -5.6150 C.2    70  ASP70       0.2597
     28  O         -3.3240   68.8420   -5.3280 O.2    70  ASP70      -0.2718
     29  CB        -2.3870   67.2470   -8.0070 C.3    70  ASP70       0.1424
     30  CG        -1.7300   67.2880   -9.4060 C.2    70  ASP70       0.3668
     31  OD1       -0.8850   68.1570   -9.7260 O.co2  70  ASP70      -0.2456
     32  OD2       -2.0630   66.3860  -10.2030 O.co2  70  ASP70      -0.2456
     33  N         -2.0010   67.1210   -4.7740 N.am   71  PHE71      -0.1976
     34  CA        -2.5610   66.9970   -3.3970 C.3    71  PHE71       0.1639
     35  C         -2.3680   68.3260   -2.7110 C.2    71  PHE71       0.2290
     36  O         -3.3210   68.9060   -2.2230 O.2    71  PHE71      -0.2864
     37  CB        -1.9400   65.8390   -2.6010 C.3    71  PHE71       0.0560
     38  CG        -2.7150   65.4500   -1.3230 C.ar   71  PHE71      -0.0200
     39  CD1       -3.3520   64.2050   -1.2180 C.ar   71  PHE71      -0.0042
     40  CD2       -2.7480   66.3060   -0.2030 C.ar   71  PHE71      -0.0042
     41  CE1       -4.0330   63.8530   -0.0510 C.ar   71  PHE71      -0.0003
     42  CE2       -3.4530   65.9710    0.9440 C.ar   71  PHE71      -0.0003
     43  CZ        -4.0830   64.7420    1.0310 C.ar   71  PHE71      -0.0000
     44  N         -4.5660   71.0440   -4.2980 N.3    74  LEU74      -0.1231
     45  CA        -5.9880   70.9620   -3.9610 C.3    74  LEU74       0.1693
     46  C         -6.2990   71.4550   -2.5490 C.2    74  LEU74       0.2591
     47  O         -7.3100   72.1570   -2.3480 O.2    74  LEU74      -0.2718
     48  CB        -6.5430   69.5510   -4.1440 C.3    74  LEU74       0.0284
     49  CG        -6.8150   69.1210   -5.5810 C.3    74  LEU74       0.0019
     50  CD1       -7.0440   67.6230   -5.5690 C.3    74  LEU74       0.0001
     51  CD2       -8.0300   69.8590   -6.1540 C.3    74  LEU74       0.0001
     52  N         -5.4330   71.0910   -1.5830 N.am   75  VAL75      -0.1980
     53  CA        -5.5770   71.5400   -0.2110 C.3    75  VAL75       0.1595
     54  C         -5.4610   73.0500   -0.0810 C.2    75  VAL75       0.2287
     55  O         -6.2910   73.6490    0.5690 O.2    75  VAL75      -0.2864
     56  CB        -4.5560   70.8690    0.7650 C.3    75  VAL75       0.0276
     57  CG1       -4.5220   71.6100    2.1060 C.3    75  VAL75       0.0022
     58  CG2       -4.8790   69.3930    0.9780 C.3    75  VAL75       0.0022
     59  N         -8.7270   74.8000   -1.4090 N.3    78  TYR78      -0.1227
     60  CA       -10.0560   74.5360   -0.8610 C.3    78  TYR78       0.1736
     61  C        -10.2060   74.5250    0.6630 C.2    78  TYR78       0.2596
     62  O        -11.2700   74.1630    1.1660 O.2    78  TYR78      -0.2718
     63  CB       -10.6100   73.2400   -1.4780 C.3    78  TYR78       0.0548
     64  CG       -10.9480   73.3450   -2.9690 C.ar   78  TYR78      -0.0200
     65  CD1      -12.1170   73.9820   -3.4130 C.ar   78  TYR78      -0.0009
     66  CD2      -10.1120   72.7910   -3.9230 C.ar   78  TYR78      -0.0009
     67  CE1      -12.4380   74.0630   -4.8000 C.ar   78  TYR78       0.0417
     68  CE2      -10.4130   72.8700   -5.2990 C.ar   78  TYR78       0.0417
     69  CZ       -11.5710   73.5020   -5.7300 C.ar   78  TYR78       0.1957
     70  OH       -11.8210   73.5600   -7.0880 O.3    78  TYR78      -0.2866
     71  N         -9.1730   74.9220    1.4080 N.am   79  THR79      -0.1953
     72  CA        -9.2770   74.9780    2.8780 C.3    79  THR79       0.1897
     73  C         -9.4100   76.4050    3.4260 C.2    79  THR79       0.2313
     74  O         -8.4850   77.2060    3.3120 O.2    79  THR79      -0.2863
     75  CB        -8.1140   74.2330    3.6130 C.3    79  THR79       0.1794
     76  OG1       -6.8450   74.8580    3.3360 O.3    79  THR79      -0.2208
     77  CG2       -8.0790   72.7660    3.2320 C.3    79  THR79       0.0378
     78  N         -2.0980   66.4790    6.5340 N.3    86  PHE86      -0.1241
     79  CA        -2.7740   65.4690    5.7540 C.3    86  PHE86       0.1605
     80  C         -1.8440   64.3060    5.5770 C.2    86  PHE86       0.2264
     81  O         -0.6260   64.4940    5.5020 O.2    86  PHE86      -0.2867
     82  CB        -3.1960   66.0110    4.3940 C.3    86  PHE86       0.0534
     83  CG        -4.4520   66.7930    4.4180 C.ar   86  PHE86      -0.0203
     84  CD1       -4.4220   68.1610    4.5600 C.ar   86  PHE86      -0.0042
     85  CD2       -5.6910   66.1560    4.2260 C.ar   86  PHE86      -0.0042
     86  CE1       -5.6130   68.9050    4.5920 C.ar   86  PHE86      -0.0003
     87  CE2       -6.9270   66.8980    4.2110 C.ar   86  PHE86      -0.0003
     88  CZ        -6.8710   68.2770    4.4120 C.ar   86  PHE86      -0.0000
     89  N         -7.4000   53.0810   -0.2280 N.3   104  PHE104     -0.1241
     90  CA        -6.9440   54.4350   -0.5490 C.3   104  PHE104      0.1605
     91  C         -7.6570   55.3410    0.4790 C.2   104  PHE104      0.2264
     92  O         -8.8700   55.6210    0.3310 O.2   104  PHE104     -0.2867
     93  CB        -7.3240   54.8070   -2.0040 C.3   104  PHE104      0.0534
     94  CG        -6.7820   56.1470   -2.4880 C.ar  104  PHE104     -0.0203
     95  CD1       -6.8540   56.4670   -3.8700 C.ar  104  PHE104     -0.0042
     96  CD2       -6.1560   57.0590   -1.6140 C.ar  104  PHE104     -0.0042
     97  CE1       -6.3580   57.6800   -4.3700 C.ar  104  PHE104     -0.0003
     98  CE2       -5.6670   58.2560   -2.0880 C.ar  104  PHE104     -0.0003
     99  CZ        -5.7760   58.5900   -3.4760 C.ar  104  PHE104     -0.0000
    100  N         -7.3240   58.9360    3.0490 N.3   106  ILE106     -0.1245
    101  CA        -6.7360   60.2070    3.3890 C.3   106  ILE106      0.1561
    102  C         -7.0970   60.5510    4.8380 C.2   106  ILE106      0.2260
    103  O         -8.2350   60.3430    5.2440 O.2   106  ILE106     -0.2867
    104  CB        -7.1680   61.2210    2.3850 C.3   106  ILE106      0.0252
    105  CG1       -6.5900   60.7490    1.0070 C.3   106  ILE106      0.0019
    106  CG2       -6.7340   62.6610    2.8190 C.3   106  ILE106      0.0019
    107  CD1       -7.0830   61.4530   -0.1360 C.3   106  ILE106      0.0001
    108  N        -10.3050   60.6560    6.9370 N.3   113  PHE113     -0.1227
    109  CA       -11.0060   61.8340    6.4160 C.3   113  PHE113      0.1736
    110  C        -11.7690   61.5440    5.0910 C.2   113  PHE113      0.2595
    111  O        -12.9240   61.9790    4.8780 O.2   113  PHE113     -0.2718
    112  CB        -9.9510   62.9300    6.2970 C.3   113  PHE113      0.0547
    113  CG       -10.4120   64.1920    5.5930 C.ar  113  PHE113     -0.0202
    114  CD1      -11.0940   65.1950    6.2900 C.ar  113  PHE113     -0.0042
    115  CD2      -10.0830   64.4020    4.2710 C.ar  113  PHE113     -0.0042
    116  CE1      -11.4750   66.3820    5.6560 C.ar  113  PHE113     -0.0003
    117  CE2      -10.4590   65.5860    3.6120 C.ar  113  PHE113     -0.0003
    118  CZ       -11.1710   66.5840    4.3150 C.ar  113  PHE113     -0.0000
    119  N        -11.1510   60.7530    4.2280 N.am  114  LEU114     -0.1980
    120  CA       -11.7870   60.3310    2.9970 C.3   114  LEU114      0.1596
    121  C        -11.3460   58.9070    2.7300 C.2   114  LEU114      0.2287
    122  O        -10.2030   58.5380    3.0300 O.2   114  LEU114     -0.2864
    123  CB       -11.3280   61.2490    1.8940 C.3   114  LEU114      0.0297
    124  CG       -12.2900   61.9860    0.9820 C.3   114  LEU114      0.0022
    125  CD1      -13.6720   62.3480    1.5310 C.3   114  LEU114      0.0001
    126  CD2      -11.5660   63.2170    0.3230 C.3   114  LEU114      0.0001
    127  N        -15.9200   58.2170   -3.4430 N.3   123  TRP123     -0.1241
    128  CA       -15.3710   58.5520   -2.1220 C.3   123  TRP123      0.1605
    129  C        -16.3860   58.5500   -0.9760 C.2   123  TRP123      0.2264
    130  O        -17.5110   59.0560   -1.1190 O.2   123  TRP123     -0.2867
    131  CB       -14.6830   59.9100   -2.2070 C.3   123  TRP123      0.0550
    132  CG       -13.5490   59.9140   -3.2130 C.ar  123  TRP123      0.0003
    133  CD1      -13.6380   60.1420   -4.5710 C.ar  123  TRP123      0.0946
    134  CD2      -12.1850   59.6140   -2.9440 C.ar  123  TRP123      0.0152
    135  NE1      -12.3760   60.0470   -5.1430 N.ar  123  TRP123     -0.2442
    136  CE2      -11.4790   59.7120   -4.1680 C.ar  123  TRP123      0.0810
    137  CE3      -11.4780   59.2850   -1.7670 C.ar  123  TRP123      0.0012
    138  CZ2      -10.1060   59.5090   -4.2550 C.ar  123  TRP123      0.0191
    139  CZ3      -10.1190   59.0800   -1.8480 C.ar  123  TRP123      0.0001
    140  CH2       -9.4450   59.1740   -3.0870 C.ar  123  TRP123      0.0015
    141  N        -15.5670   70.2920    6.3660 N.3   131  LEU131     -0.1245
    142  CA       -14.4060   70.1320    5.4970 C.3   131  LEU131      0.1561
    143  C        -14.4060   68.7750    4.7740 C.2   131  LEU131      0.2260
    144  O        -14.1060   68.7110    3.6050 O.2   131  LEU131     -0.2867
    145  CB       -13.0870   70.3670    6.2560 C.3   131  LEU131      0.0270
    146  CG       -11.8080   70.4240    5.4160 C.3   131  LEU131      0.0019
    147  CD1      -11.7750   71.6070    4.4810 C.3   131  LEU131      0.0001
    148  CD2      -10.6520   70.5040    6.3690 C.3   131  LEU131      0.0001
    149  N        -17.0510   68.7350    2.2520 N.3   134  LYS134     -0.1231
    150  CA       -16.6290   69.4800    1.0380 C.3   134  LYS134      0.1693
    151  C        -15.7410   68.5940    0.1740 C.2   134  LYS134      0.2591
    152  O        -15.9900   68.4380   -0.9990 O.2   134  LYS134     -0.2718
    153  CB       -15.8890   70.7730    1.3940 C.3   134  LYS134      0.0285
    154  CG       -15.5670   71.6850    0.1790 C.3   134  LYS134      0.0035
    155  CD       -14.6270   72.8510    0.6050 C.3   134  LYS134      0.0206
    156  CE       -14.7940   74.1410   -0.2560 C.3   134  LYS134      0.1093
    157  NZ       -13.9550   75.2740    0.2670 N.3   134  LYS134     -0.1314
    158  N        -14.7330   67.9820    0.7880 N.am  135  ALA135     -0.1980
    159  CA       -13.7700   67.1240    0.0750 C.3   135  ALA135      0.1597
    160  C        -14.4480   65.9990   -0.7020 C.2   135  ALA135      0.2287
    161  O        -14.0740   65.6740   -1.8430 O.2   135  ALA135     -0.2864
    162  CB       -12.7880   66.5200    1.0920 C.3   135  ALA135      0.0319
    163  N        -16.1670   67.3440   -3.7310 N.3   138  LEU138     -0.1231
    164  CA       -15.1420   67.7380   -4.6850 C.3   138  LEU138      0.1693
    165  C        -14.6600   66.4930   -5.4260 C.2   138  LEU138      0.2591
    166  O        -14.7970   66.4150   -6.6400 O.2   138  LEU138     -0.2718
    167  CB       -13.9740   68.3960   -3.9520 C.3   138  LEU138      0.0284
    168  CG       -12.8390   68.9800   -4.7770 C.3   138  LEU138      0.0019
    169  CD1      -13.3480   70.1010   -5.7150 C.3   138  LEU138      0.0001
    170  CD2      -11.7420   69.4670   -3.8440 C.3   138  LEU138      0.0001
    171  N        -14.1090   65.5320   -4.6760 N.am  139  MET139     -0.1979
    172  CA       -13.6090   64.2650   -5.2100 C.3   139  MET139      0.1605
    173  C        -14.6730   63.4000   -5.9010 C.2   139  MET139      0.2287
    174  O        -14.3530   62.6800   -6.8570 O.2   139  MET139     -0.2864
    175  CB       -12.8560   63.4950   -4.1250 C.3   139  MET139      0.0413
    176  CG       -11.6950   64.2920   -3.5860 C.3   139  MET139      0.0598
    177  SD       -10.4210   64.6430   -4.8450 S.3   139  MET139     -0.1393
    178  CE       -10.9990   66.0890   -5.7300 C.3   139  MET139      0.0692
    179  N        -10.9730   60.7590  -13.0850 N.3   145  LEU145     -0.1245
    180  CA        -9.9200   60.3900  -12.1060 C.3   145  LEU145      0.1561
    181  C        -10.3170   59.1230  -11.3300 C.2   145  LEU145      0.2260
    182  O         -9.5110   58.1930  -11.2330 O.2   145  LEU145     -0.2867
    183  CB        -9.5550   61.5360  -11.1160 C.3   145  LEU145      0.0270
    184  CG        -8.7140   61.1260   -9.8610 C.3   145  LEU145      0.0019
    185  CD1       -7.2990   60.5820  -10.1090 C.3   145  LEU145      0.0001
    186  CD2       -8.6470   62.1270   -8.6620 C.3   145  LEU145      0.0001
    187  N         -8.3610   55.6730  -10.8550 N.3   149  ILE149     -0.1245
    188  CA        -7.9970   55.1460   -9.5260 C.3   149  ILE149      0.1561
    189  C         -8.4370   53.6540   -9.3770 C.2   149  ILE149      0.2260
    190  O         -7.6850   52.8200   -8.8550 O.2   149  ILE149     -0.2867
    191  CB        -8.5490   56.0220   -8.3560 C.3   149  ILE149      0.0252
    192  CG1       -7.7650   57.3450   -8.2190 C.3   149  ILE149      0.0019
    193  CG2       -8.4480   55.2530   -7.0450 C.3   149  ILE149      0.0019
    194  CD1       -8.5490   58.4440   -7.6230 C.3   149  ILE149      0.0001
@<TRIPOS>BOND
     1   179   180    1
     2     6     5    1
     3   180   181    1
     4   180   183    1
     5    12    11    1
     6     1     2    1
     7     5     2    1
     8   181   182    2
     9     2     3    1
    10   183   184    1
    11    11     8    1
    12   187   188    1
    13    32    30   ar
    14   185   184    1
    15   184   186    1
    16     3     4    2
    17    31    30   ar
    18     8     7    1
    19     8     9    1
    20   188   189    1
    21   188   191    1
    22    30    29    1
    23   189   190    2
    24     9    10    2
    25     9    13   am
    26   191   192    1
    27   191   193    1
    28   192   194    1
    29    29    26    1
    30    13    14    1
    31    70    69    1
    32    26    25    1
    33    26    27    1
    34   174   173    2
    35    14    17    1
    36    14    15    1
    37   166   165    2
    38    17    18    1
    39    51    49    1
    40   173   172    1
    41    15    16    2
    42    69    68   ar
    43    69    67   ar
    44   178   177    1
    45   169   168    1
    46    27    28    2
    47    27    33   am
    48    49    50    1
    49    49    48    1
    50   165   164    1
    51   165   171   am
    52    68    66   ar
    53   172   171    1
    54   172   175    1
    55    19    18   ar
    56    19    21   ar
    57   135   133   ar
    58   135   136   ar
    59    18    20   ar
    60   177   176    1
    61    67    65   ar
    62   168   167    1
    63   168   170    1
    64    33    34    1
    65   164   167    1
    66   164   163    1
    67   133   132   ar
    68    97    95   ar
    69    97    99   ar
    70    44    45    1
    71   138   136   ar
    72   138   140   ar
    73   136   134   ar
    74    48    45    1
    75   175   176    1
    76    21    23   ar
    77    45    46    1
    78    66    64   ar
    79    95    94   ar
    80    20    22   ar
    81    99    98   ar
    82   127   128    1
    83    65    64   ar
    84    34    35    1
    85    34    37    1
    86   132   134   ar
    87   132   131    1
    88   140   139   ar
    89    64    63    1
    90   134   137   ar
    91    23    22   ar
    92    23    24    1
    93    35    36    2
    94    37    38    1
    95    46    47    2
    96    46    52   am
    97    94    93    1
    98    94    96   ar
    99   131   128    1
   100   128   129    1
   101    98    96   ar
   102    93    90    1
   103   139   137   ar
   104   161   160    2
   105    52    53    1
   106    63    60    1
   107    59    60    1
   108    38    39   ar
   109    38    40   ar
   110    39    41   ar
   111   130   129    2
   112   152   151    2
   113    60    61    1
   114   160   159    1
   115    90    89    1
   116    90    91    1
   117   156   157    1
   118   156   155    1
   119    53    54    1
   120    53    56    1
   121    40    42   ar
   122   107   105    1
   123    54    55    2
   124    41    43   ar
   125   159   158    1
   126   159   162    1
   127   151   158   am
   128   151   150    1
   129   154   155    1
   130   154   153    1
   131   126   124    1
   132    92    91    2
   133    61    62    2
   134    61    71   am
   135    56    58    1
   136    56    57    1
   137    42    43   ar
   138   124   125    1
   139   124   123    1
   140   105   104    1
   141   150   153    1
   142   150   149    1
   143    71    72    1
   144   123   120    1
   145   104   106    1
   146   104   101    1
   147   121   120    1
   148   121   122    2
   149    72    73    1
   150    72    75    1
   151   120   119    1
   152   100   101    1
   153    77    75    1
   154    74    73    2
   155    76    75    1
   156   101   102    1
   157   144   143    2
   158   117   115   ar
   159   117   118   ar
   160    87    85   ar
   161    87    88   ar
   162    85    83   ar
   163   119   110   am
   164   115   113   ar
   165   118   116   ar
   166    82    83    1
   167    82    79    1
   168    88    86   ar
   169    83    84   ar
   170   147   146    1
   171    84    86   ar
   172   143   142    1
   173   102   103    2
   174   111   110    2
   175   110   109    1
   176   146   145    1
   177   146   148    1
   178   142   145    1
   179   142   141    1
   180    81    80    2
   181    80    79    1
   182   113   114   ar
   183   113   112    1
   184   116   114   ar
   185    79    78    1
   186   112   109    1
   187   109   108    1
