@<TRIPOS>MOLECULE
tmp/3jvhC01.pdb
 86 85 0 0 0
SMALL
GASTEIGER

@<TRIPOS>ATOM
      1  N         24.1210  -39.7270   -8.2740 N.3     9  TYR9       -0.1227
      2  CA        24.7780  -38.4840   -8.6180 C.3     9  TYR9        0.1736
      3  C         25.6610  -38.0890   -7.4550 C.2     9  TYR9        0.2595
      4  O         25.2450  -38.1660   -6.2990 O.2     9  TYR9       -0.2718
      5  CB        23.7190  -37.3910   -8.8250 C.3     9  TYR9        0.0548
      6  CG        24.2770  -35.9950   -8.8920 C.ar    9  TYR9       -0.0200
      7  CD1       24.2820  -35.1590   -7.7630 C.ar    9  TYR9       -0.0009
      8  CD2       24.8070  -35.5050  -10.0870 C.ar    9  TYR9       -0.0009
      9  CE1       24.8070  -33.8550   -7.8350 C.ar    9  TYR9        0.0417
     10  CE2       25.3280  -34.2160  -10.1610 C.ar    9  TYR9        0.0417
     11  CZ        25.3280  -33.4090   -9.0410 C.ar    9  TYR9        0.1957
     12  OH        25.8310  -32.1320   -9.1490 O.3     9  TYR9       -0.2866
     13  N         26.8700  -37.6280   -7.7610 N.am   10  ASP10      -0.1960
     14  CA        27.7030  -37.0330   -6.7270 C.3    10  ASP10       0.1840
     15  C         28.6080  -35.9730   -7.3200 C.2    10  ASP10       0.2622
     16  O         28.9410  -36.0100   -8.5060 O.2    10  ASP10      -0.2715
     17  CB        28.5400  -38.1140   -6.0160 C.3    10  ASP10       0.1450
     18  CG        29.1360  -37.6330   -4.6990 C.2    10  ASP10       0.3671
     19  OD1       28.6690  -36.6320   -4.1010 O.co2  10  ASP10      -0.2456
     20  OD2       30.0890  -38.2840   -4.2410 O.co2  10  ASP10      -0.2456
     21  N         29.0090  -35.0210   -6.4900 N.am   11  VAL11      -0.1963
     22  CA        30.0120  -34.0430   -6.9020 C.3    11  VAL11       0.1727
     23  C         30.8290  -33.6610   -5.6760 C.2    11  VAL11       0.2616
     24  O         30.3000  -33.5970   -4.5660 O.2    11  VAL11      -0.2715
     25  CB        29.3770  -32.8020   -7.5770 C.3    11  VAL11       0.0290
     26  CG1       28.5220  -32.0130   -6.5880 C.3    11  VAL11       0.0023
     27  CG2       30.4470  -31.9220   -8.2020 C.3    11  VAL11       0.0023
     28  N         32.1230  -33.4570   -5.8830 N.am   12  HIS12      -0.1973
     29  CA        32.9960  -32.9890   -4.8220 C.3    12  HIS12       0.1656
     30  C         33.8680  -31.8850   -5.3450 C.2    12  HIS12       0.2291
     31  O         34.2110  -31.8560   -6.5290 O.2    12  HIS12      -0.2864
     32  CB        33.8800  -34.1280   -4.2960 C.3    12  HIS12       0.0771
     33  CG        33.1490  -35.0770   -3.4040 C.ar   12  HIS12       0.0820
     34  ND1       33.0770  -34.9030   -2.0370 N.ar   12  HIS12      -0.2267
     35  CD2       32.4240  -36.1850   -3.6840 C.ar   12  HIS12       0.1154
     36  CE1       32.3520  -35.8760   -1.5120 C.ar   12  HIS12       0.1986
     37  NE2       31.9450  -36.6670   -2.4910 N.ar   12  HIS12      -0.2212
     38  N         30.8390  -43.1560   -4.6980 N.3    44  HIS44      -0.1241
     39  CA        29.6340  -42.6380   -4.0730 C.3    44  HIS44       0.1621
     40  C         28.4160  -42.6690   -4.9990 C.2    44  HIS44       0.2264
     41  O         27.3340  -43.0700   -4.5700 O.2    44  HIS44      -0.2867
     42  CB        29.8510  -41.2220   -3.5550 C.3    44  HIS44       0.0745
     43  CG        30.8200  -41.1520   -2.4250 C.ar   44  HIS44       0.0817
     44  ND1       31.2700  -39.9600   -1.9010 N.ar   44  HIS44      -0.2268
     45  CD2       31.4480  -42.1310   -1.7350 C.ar   44  HIS44       0.1154
     46  CE1       32.1270  -40.2090   -0.9260 C.ar   44  HIS44       0.1986
     47  NE2       32.2570  -41.5200   -0.8100 N.ar   44  HIS44      -0.2212
     48  N         25.0320  -44.8150   -4.3130 N.3    48  ASP48      -0.1239
     49  CA        23.6660  -44.2830   -4.3340 C.3    48  ASP48       0.1674
     50  C         22.7830  -44.9620   -5.3820 C.2    48  ASP48       0.2266
     51  O         21.6170  -45.2280   -5.0910 O.2    48  ASP48      -0.2867
     52  CB        23.6480  -42.7740   -4.5330 C.3    48  ASP48       0.1410
     53  CG        23.4630  -42.0100   -3.2380 C.2    48  ASP48       0.3668
     54  OD1       23.3720  -42.6350   -2.1610 O.co2  48  ASP48      -0.2456
     55  OD2       23.3920  -40.7670   -3.3150 O.co2  48  ASP48      -0.2456
     56  N         19.6300  -43.8840    0.6790 N.3    58  ASP58      -0.1225
     57  CA        20.8590  -43.3120    0.1110 C.3    58  ASP58       0.1805
     58  C         22.0140  -43.4310    1.1060 C.2    58  ASP58       0.2598
     59  O         21.8140  -43.9150    2.2190 O.2    58  ASP58      -0.2718
     60  CB        20.6310  -41.8450   -0.3030 C.3    58  ASP58       0.1424
     61  CG        20.2000  -40.9470    0.8630 C.2    58  ASP58       0.3668
     62  OD1       20.6180  -41.1820    2.0280 O.co2  58  ASP58      -0.2456
     63  OD2       19.4390  -39.9790    0.6190 O.co2  58  ASP58      -0.2456
     64  N         23.2120  -42.9870    0.7160 N.am   59  ILE59      -0.1966
     65  CA        24.3740  -43.0800    1.6150 C.3    59  ILE59       0.1727
     66  C         24.1050  -42.4980    3.0040 C.2    59  ILE59       0.2616
     67  O         24.5140  -43.0730    4.0210 O.2    59  ILE59      -0.2715
     68  CB        25.6370  -42.4360    1.0260 C.3    59  ILE59       0.0290
     69  CG1       26.1470  -43.2550   -0.1530 C.3    59  ILE59       0.0022
     70  CG2       26.7520  -42.3430    2.0960 C.3    59  ILE59       0.0023
     71  CD1       27.3030  -42.5870   -0.9050 C.3    59  ILE59       0.0001
     72  N         23.3910  -41.3750    3.0430 N.am   60  GLY60      -0.1955
     73  CA        23.0920  -40.6920    4.3000 C.3    60  GLY60       0.1869
     74  C         22.2840  -41.5160    5.2810 C.2    60  GLY60       0.2309
     75  O         22.4490  -41.3770    6.4920 O.2    60  GLY60      -0.2863
     76  N         25.3730  -44.5460    6.2100 N.3    63  PHE63      -0.1241
     77  CA        26.7280  -44.2870    6.7030 C.3    63  PHE63       0.1605
     78  C         26.8670  -42.8960    7.3220 C.2    63  PHE63       0.2264
     79  O         26.7810  -41.8850    6.6200 O.2    63  PHE63      -0.2867
     80  CB        27.7510  -44.4800    5.5730 C.3    63  PHE63       0.0534
     81  CG        27.5830  -45.7720    4.8110 C.ar   63  PHE63      -0.0203
     82  CD1       27.5410  -46.9940    5.4850 C.ar   63  PHE63      -0.0042
     83  CD2       27.4880  -45.7710    3.4210 C.ar   63  PHE63      -0.0042
     84  CE1       27.3820  -48.1910    4.7900 C.ar   63  PHE63      -0.0003
     85  CE2       27.3390  -46.9720    2.7110 C.ar   63  PHE63      -0.0003
     86  CZ        27.2840  -48.1840    3.4000 C.ar   63  PHE63      -0.0000
@<TRIPOS>BOND
     1    10     8   ar
     2    10    11   ar
     3     8     6   ar
     4    12    11    1
     5    11     9   ar
     6     6     5    1
     7     6     7   ar
     8     5     2    1
     9     2     1    1
    10     2     3    1
    11    16    15    2
    12    27    25    1
    13     9     7   ar
    14    13     3   am
    15    13    14    1
    16    25    22    1
    17    25    26    1
    18     3     4    2
    19    15    14    1
    20    15    21   am
    21    22    21    1
    22    22    23    1
    23    14    17    1
    24    31    30    2
    25    17    18    1
    26    28    23   am
    27    28    29    1
    28    23    24    2
    29    50    51    2
    30    50    49    1
    31    30    29    1
    32    40    41    2
    33    40    39    1
    34    29    32    1
    35    18    20   ar
    36    18    19   ar
    37    38    39    1
    38    52    49    1
    39    52    53    1
    40    49    48    1
    41    32    33    1
    42    39    42    1
    43    35    33   ar
    44    35    37   ar
    45    42    43    1
    46    33    34   ar
    47    55    53   ar
    48    53    54   ar
    49    37    36   ar
    50    43    44   ar
    51    43    45   ar
    52    34    36   ar
    53    44    46   ar
    54    45    47   ar
    55    46    47   ar
    56    71    69    1
    57    60    57    1
    58    60    61    1
    59    69    68    1
    60    57    56    1
    61    57    58    1
    62    63    61   ar
    63    64    58   am
    64    64    65    1
    65    61    62   ar
    66    68    65    1
    67    68    70    1
    68    58    59    2
    69    65    66    1
    70    85    86   ar
    71    85    83   ar
    72    66    72   am
    73    66    67    2
    74    72    73    1
    75    86    84   ar
    76    83    81   ar
    77    73    74    1
    78    84    82   ar
    79    81    82   ar
    80    81    80    1
    81    74    75    2
    82    80    77    1
    83    76    77    1
    84    79    78    2
    85    77    78    1
