@<TRIPOS>MOLECULE
tmp/3jvrA00.pdb
 99 98 0 0 0
SMALL
GASTEIGER

@<TRIPOS>ATOM
      1  N         23.8750   -0.3890   18.4480 N.3    79  PHE79      -0.1227
      2  CA        24.5870   -1.5080   19.0560 C.3    79  PHE79       0.1736
      3  C         25.9850   -1.6550   18.4510 C.2    79  PHE79       0.2595
      4  O         26.9590   -1.8860   19.1690 O.2    79  PHE79      -0.2718
      5  CB        23.7900   -2.8040   18.8440 C.3    79  PHE79       0.0547
      6  CG        24.4290   -4.0280   19.4480 C.ar   79  PHE79      -0.0202
      7  CD1       25.4290   -4.7140   18.7720 C.ar   79  PHE79      -0.0042
      8  CD2       23.9960   -4.5200   20.6700 C.ar   79  PHE79      -0.0042
      9  CE1       25.9800   -5.8670   19.3040 C.ar   79  PHE79      -0.0003
     10  CE2       24.5430   -5.6740   21.2070 C.ar   79  PHE79      -0.0003
     11  CZ        25.5380   -6.3500   20.5210 C.ar   79  PHE79      -0.0000
     12  N         26.0720   -1.5070   17.1320 N.am   80  ASP80      -0.1960
     13  CA        27.3120   -1.7650   16.4020 C.3    80  ASP80       0.1840
     14  C         28.3620   -0.6690   16.5760 C.2    80  ASP80       0.2622
     15  O         29.5340   -0.8730   16.2490 O.2    80  ASP80      -0.2715
     16  CB        27.0170   -1.9540   14.9080 C.3    80  ASP80       0.1450
     17  CG        26.3900   -3.3020   14.6020 C.2    80  ASP80       0.3671
     18  OD1       25.9150   -3.4960   13.4640 O.co2  80  ASP80      -0.2456
     19  OD2       26.3740   -4.1680   15.4980 O.co2  80  ASP80      -0.2456
     20  N         27.9440    0.4870   17.0870 N.am   81  ARG81      -0.1963
     21  CA        28.8520    1.6180   17.2710 C.3    81  ARG81       0.1729
     22  C         29.6000    1.5390   18.5950 C.2    81  ARG81       0.2616
     23  O         30.4900    2.3430   18.8570 O.2    81  ARG81      -0.2715
     24  CB        28.0810    2.9380   17.2230 C.3    81  ARG81       0.0348
     25  CG        27.2490    3.1320   15.9730 C.3    81  ARG81       0.0492
     26  CD        28.0890    2.9880   14.7160 C.3    81  ARG81       0.2205
     27  NE        27.2940    3.2470   13.5210 N.pl3  81  ARG81      -0.0865
     28  CZ        27.1160    4.4510   12.9890 C.cat  81  ARG81       0.5346
     29  NH1       27.6810    5.5160   13.5440 N.pl3  81  ARG81       0.1354
     30  NH2       26.3680    4.5920   11.9050 N.pl3  81  ARG81       0.1354
     31  N         29.2280    0.5760   19.4310 N.am   82  ILE82      -0.1963
     32  CA        29.8010    0.4560   20.7620 C.3    82  ILE82       0.1727
     33  C         30.9770   -0.5090   20.7500 C.2    82  ILE82       0.2616
     34  O         30.8180   -1.6860   20.4300 O.2    82  ILE82      -0.2715
     35  CB        28.7430   -0.0530   21.7570 C.3    82  ILE82       0.0290
     36  CG1       27.5340    0.8840   21.7360 C.3    82  ILE82       0.0022
     37  CG2       29.3350   -0.1500   23.1520 C.3    82  ILE82       0.0023
     38  CD1       26.3670    0.4000   22.5760 C.3    82  ILE82       0.0001
     39  N         32.1600   -0.0140   21.0970 N.am   83  GLU83      -0.1964
     40  CA        33.3400   -0.8690   21.1240 C.3    83  GLU83       0.1718
     41  C         33.4380   -1.6230   22.4390 C.2    83  GLU83       0.2458
     42  O         33.3500   -1.0340   23.5160 O.2    83  GLU83      -0.2730
     43  CB        34.6160   -0.0450   20.9170 C.3    83  GLU83       0.0428
     44  CG        35.8860   -0.8760   21.0640 C.3    83  GLU83       0.1163
     45  CD        37.1450   -0.1110   20.7100 C.2    83  GLU83       0.3649
     46  OE1       37.0530    1.1040   20.4360 O.co2  83  GLU83      -0.2457
     47  OE2       38.2290   -0.7300   20.7080 O.co2  83  GLU83      -0.2457
     48  N         33.6320   -2.9490   22.3670 N.am   84  PRO84      -0.2727
     49  CA        33.7410   -3.7670   23.5770 C.3    84  PRO84       0.1402
     50  C         34.7630   -3.2120   24.5610 C.2    84  PRO84       0.2269
     51  O         35.9100   -2.9450   24.1970 O.2    84  PRO84      -0.2865
     52  CB        34.1360   -5.1440   23.0410 C.3    84  PRO84       0.0296
     53  CG        33.5600   -5.1710   21.6680 C.3    84  PRO84       0.0237
     54  CD        33.7070   -3.7660   21.1440 C.3    84  PRO84       0.0939
     55  N         20.2970   -1.0140   22.5720 N.3   119  PRO119     -0.2116
     56  CA        21.0090   -0.5220   21.3840 C.3   119  PRO119      0.1372
     57  C         20.6280   -1.2140   20.0730 C.2   119  PRO119      0.2244
     58  O         20.7560   -0.6230   19.0010 O.2   119  PRO119     -0.2868
     59  CB        22.4820   -0.7280   21.7360 C.3   119  PRO119      0.0268
     60  CG        22.5050   -0.7190   23.2420 C.3   119  PRO119      0.0207
     61  CD        21.2300   -1.4280   23.6330 C.3   119  PRO119      0.0892
     62  N         18.6080   -4.8550   30.5440 N.3   159  TYR159     -0.1241
     63  CA        18.0930   -3.4930   30.4180 C.3   159  TYR159      0.1605
     64  C         16.8440   -3.2360   31.2640 C.2   159  TYR159      0.2264
     65  O         16.3760   -2.1000   31.3690 O.2   159  TYR159     -0.2867
     66  CB        17.7700   -3.1960   28.9480 C.3   159  TYR159      0.0534
     67  CG        18.9650   -3.3080   28.0310 C.ar  159  TYR159     -0.0201
     68  CD1       19.7930   -2.2180   27.8120 C.ar  159  TYR159     -0.0009
     69  CD2       19.2850   -4.5120   27.4120 C.ar  159  TYR159     -0.0009
     70  CE1       20.9100   -2.3170   27.0110 C.ar  159  TYR159      0.0417
     71  CE2       20.4050   -4.6240   26.6060 C.ar  159  TYR159      0.0417
     72  CZ        21.2150   -3.5210   26.4120 C.ar  159  TYR159      0.1957
     73  OH        22.3390   -3.6100   25.6270 O.3   159  TYR159     -0.2866
     74  N         26.2440    1.4110   28.6320 N.3   186  ALA186     -0.1245
     75  CA        26.8440    0.6590   27.5340 C.3   186  ALA186      0.1562
     76  C         27.6400    1.5760   26.6140 C.2   186  ALA186      0.2260
     77  O         28.7400    1.2300   26.1870 O.2   186  ALA186     -0.2867
     78  CB        25.7560   -0.0640   26.7320 C.3   186  ALA186      0.0290
     79  N         31.2340    0.3240   27.2530 N.3   190  GLY190     -0.1210
     80  CA        31.4060   -0.8040   26.3590 C.3   190  GLY190      0.1956
     81  C         31.1720   -2.1290   27.0650 C.2   190  GLY190      0.2612
     82  O         31.6180   -3.1780   26.5980 O.2   190  GLY190     -0.2717
     83  N         30.4960   -2.0820   28.2070 N.am  191  GLU191     -0.1965
     84  CA        30.0260   -3.2970   28.8580 C.3   191  GLU191      0.1733
     85  C         28.7090   -3.0270   29.5760 C.2   191  GLU191      0.2616
     86  O         28.4260   -1.8940   29.9650 O.2   191  GLU191     -0.2715
     87  CB        31.0760   -3.8340   29.8430 C.3   191  GLU191      0.0429
     88  CG        31.4440   -2.9000   30.9780 C.3   191  GLU191      0.1163
     89  CD        32.4510   -3.5230   31.9350 C.2   191  GLU191      0.3649
     90  OE1       32.3740   -4.7480   32.1720 O.co2 191  GLU191     -0.2457
     91  OE2       33.3170   -2.7870   32.4500 O.co2 191  GLU191     -0.2457
     92  N         27.8960   -4.0660   29.7230 N.am  192  LEU192     -0.1977
     93  CA        26.6500   -3.9560   30.4720 C.3   192  LEU192      0.1596
     94  C         26.9580   -4.2860   31.9240 C.2   192  LEU192      0.2287
     95  O         27.7480   -5.1870   32.2080 O.2   192  LEU192     -0.2864
     96  CB        25.6030   -4.9290   29.9140 C.3   192  LEU192      0.0297
     97  CG        25.1570   -4.6650   28.4700 C.3   192  LEU192      0.0022
     98  CD1       24.2290   -5.7670   27.9830 C.3   192  LEU192      0.0001
     99  CD2       24.4620   -3.3140   28.4040 C.3   192  LEU192      0.0001
@<TRIPOS>BOND
     1    30    28    1
     2    28    27    2
     3    28    29    1
     4    18    17   ar
     5    27    26    1
     6    17    16    1
     7    17    19   ar
     8    26    25    1
     9    16    13    1
    10    25    24    1
    11    15    14    2
    12    13    14    1
    13    13    12    1
    14    14    20   am
    15    20    21    1
    16    12     3   am
    17    24    21    1
    18    21    22    1
    19     1     2    1
    20     3     2    1
    21     3     4    2
    22    22    23    2
    23    22    31   am
    24     7     9   ar
    25     7     6   ar
    26     5     2    1
    27     5     6    1
    28    58    57    2
    29     9    11   ar
    30    31    32    1
    31     6     8   ar
    32    57    56    1
    33    34    33    2
    34    46    45   ar
    35    11    10   ar
    36     8    10   ar
    37    47    45   ar
    38    45    44    1
    39    33    32    1
    40    33    39   am
    41    32    35    1
    42    43    44    1
    43    43    40    1
    44    39    40    1
    45    40    41    1
    46    54    53    1
    47    54    48    1
    48    56    59    1
    49    56    55    1
    50    53    52    1
    51    36    35    1
    52    36    38    1
    53    59    60    1
    54    35    37    1
    55    48    41   am
    56    48    49    1
    57    41    42    2
    58    55    61    1
    59    52    49    1
    60    60    61    1
    61    49    50    1
    62    51    50    2
    63    73    72    1
    64    77    76    2
    65    80    81    1
    66    80    79    1
    67    72    71   ar
    68    72    70   ar
    69    82    81    2
    70    71    69   ar
    71    76    75    1
    72    78    75    1
    73    70    68   ar
    74    81    83   am
    75    69    67   ar
    76    75    74    1
    77    68    67   ar
    78    98    97    1
    79    67    66    1
    80    83    84    1
    81    99    97    1
    82    97    96    1
    83    84    85    1
    84    84    87    1
    85    66    63    1
    86    85    92   am
    87    85    86    2
    88    92    93    1
    89    87    88    1
    90    96    93    1
    91    63    62    1
    92    63    64    1
    93    93    94    1
    94    88    89    1
    95    64    65    2
    96    94    95    2
    97    89    90   ar
    98    89    91   ar
