@<TRIPOS>MOLECULE
tmp/3jvsA00.pdb
 112 110 0 0 0
SMALL
GASTEIGER

@<TRIPOS>ATOM
      1  N         23.9070   -0.2780   18.2950 N.3    77  PHE77      -0.1227
      2  CA        24.6400   -1.4520   18.7600 C.3    77  PHE77       0.1736
      3  C         26.0410   -1.5080   18.1450 C.2    77  PHE77       0.2595
      4  O         27.0230   -1.8120   18.8310 O.2    77  PHE77      -0.2718
      5  CB        23.8410   -2.7070   18.3850 C.3    77  PHE77       0.0547
      6  CG        24.5330   -4.0050   18.7000 C.ar   77  PHE77      -0.0202
      7  CD1       25.5550   -4.4820   17.8910 C.ar   77  PHE77      -0.0042
      8  CD2       24.1160   -4.7830   19.7670 C.ar   77  PHE77      -0.0042
      9  CE1       26.1410   -5.7090   18.1370 C.ar   77  PHE77      -0.0003
     10  CE2       24.7000   -6.0150   20.0180 C.ar   77  PHE77      -0.0003
     11  CZ        25.7120   -6.4770   19.2010 C.ar   77  PHE77      -0.0000
     12  N         26.1250   -1.2070   16.8540 N.am   78  ASP78      -0.1960
     13  CA        27.3770   -1.3560   16.1170 C.3    78  ASP78       0.1840
     14  C         28.3560   -0.2020   16.3350 C.2    78  ASP78       0.2622
     15  O         29.5020   -0.2690   15.8920 O.2    78  ASP78      -0.2715
     16  CB        27.0920   -1.5100   14.6200 C.3    78  ASP78       0.1450
     17  CG        26.4530   -2.8470   14.2810 C.2    78  ASP78       0.3671
     18  OD1       25.7670   -2.9310   13.2450 O.co2  78  ASP78      -0.2456
     19  OD2       26.6370   -3.8160   15.0460 O.co2  78  ASP78      -0.2456
     20  N         27.9100    0.8470   17.0200 N.am   79  ARG79      -0.1963
     21  CA        28.7770    1.9890   17.3210 C.3    79  ARG79       0.1729
     22  C         29.4570    1.8530   18.6770 C.2    79  ARG79       0.2616
     23  O         30.2730    2.6900   19.0600 O.2    79  ARG79      -0.2715
     24  CB        27.9720    3.2870   17.2990 C.3    79  ARG79       0.0348
     25  CG        27.1980    3.5000   16.0210 C.3    79  ARG79       0.0492
     26  CD        28.1180    3.4400   14.8100 C.3    79  ARG79       0.2205
     27  NE        27.3730    3.6600   13.5760 N.pl3  79  ARG79      -0.0865
     28  CZ        27.1330    4.8570   13.0530 C.cat  79  ARG79       0.5346
     29  NH1       27.5830    5.9490   13.6570 N.pl3  79  ARG79       0.1354
     30  NH2       26.4340    4.9620   11.9330 N.pl3  79  ARG79       0.1354
     31  N         29.1040    0.8060   19.4130 N.am   80  ILE80      -0.1963
     32  CA        29.6330    0.6070   20.7520 C.3    80  ILE80       0.1727
     33  C         30.7720   -0.4070   20.7320 C.2    80  ILE80       0.2616
     34  O         30.5660   -1.5640   20.3720 O.2    80  ILE80      -0.2715
     35  CB        28.5240    0.0960   21.6980 C.3    80  ILE80       0.0290
     36  CG1       27.3950    1.1280   21.7750 C.3    80  ILE80       0.0022
     37  CG2       29.1010   -0.2000   23.0710 C.3    80  ILE80       0.0023
     38  CD1       26.1880    0.6520   22.5680 C.3    80  ILE80       0.0001
     39  N         31.9710    0.0260   21.1180 N.am   81  GLU81      -0.1964
     40  CA        33.1280   -0.8660   21.1450 C.3    81  GLU81       0.1718
     41  C         33.2200   -1.5920   22.4840 C.2    81  GLU81       0.2458
     42  O         33.1720   -0.9700   23.5440 O.2    81  GLU81      -0.2730
     43  CB        34.4210   -0.0720   20.8980 C.3    81  GLU81       0.0428
     44  CG        35.6910   -0.9180   20.9830 C.3    81  GLU81       0.1163
     45  CD        36.9660   -0.1190   20.7530 C.2    81  GLU81       0.3649
     46  OE1       36.8830    1.0930   20.4520 O.co2  81  GLU81      -0.2457
     47  OE2       38.0600   -0.7100   20.8760 O.co2  81  GLU81      -0.2457
     48  N         33.3650   -2.9270   22.4500 N.am   82  PRO82      -0.2727
     49  CA        33.4490   -3.7110   23.6870 C.3    82  PRO82       0.1402
     50  C         34.5130   -3.1630   24.6280 C.2    82  PRO82       0.2269
     51  O         35.6350   -2.8860   24.2080 O.2    82  PRO82      -0.2865
     52  CB        33.7920   -5.1200   23.1990 C.3    82  PRO82       0.0296
     53  CG        33.2790   -5.1640   21.8010 C.3    82  PRO82       0.0237
     54  CD        33.4890   -3.7760   21.2530 C.3    82  PRO82       0.0939
     55  N         33.1640    1.5050   24.7410 N.3    85  GLY85      -0.1225
     56  CA        32.0350    2.4010   24.5600 C.3    85  GLY85       0.1811
     57  C         32.2100    3.2450   23.3080 C.2    85  GLY85       0.2280
     58  O         32.4000    2.7170   22.2120 O.2    85  GLY85      -0.2866
     59  N         20.3160   -0.9990   22.5150 N.3   117  PRO117     -0.2102
     60  CA        21.0390   -0.4980   21.3400 C.3   117  PRO117      0.1504
     61  C         20.6560   -1.1590   20.0160 C.2   117  PRO117      0.2575
     62  O         20.7890   -0.5490   18.9560 O.2   117  PRO117     -0.2718
     63  CB        22.5090   -0.7260   21.6960 C.3   117  PRO117      0.0282
     64  CG        22.5230   -0.7450   23.2040 C.3   117  PRO117      0.0208
     65  CD        21.2330   -1.4210   23.5870 C.3   117  PRO117      0.0893
     66  N         20.1790   -2.3990   20.0710 N.am  118  GLU118     -0.1980
     67  CA        19.7190   -3.0770   18.8620 C.3   118  GLU118      0.1602
     68  C         18.4380   -2.4610   18.3040 C.2   118  GLU118      0.2287
     69  O         18.1270   -2.6320   17.1250 O.2   118  GLU118     -0.2864
     70  CB        19.4770   -4.5620   19.1430 C.3   118  GLU118      0.0415
     71  CG        20.7090   -5.2930   19.6360 C.3   118  GLU118      0.1163
     72  CD        20.6910   -5.5200   21.1360 C.2   118  GLU118      0.3649
     73  OE1       20.6510   -4.5270   21.9010 O.co2 118  GLU118     -0.2457
     74  OE2       20.7160   -6.6990   21.5450 O.co2 118  GLU118     -0.2457
     75  N         18.5950   -4.8120   30.6120 N.3   157  TYR157     -0.1241
     76  CA        18.0630   -3.4600   30.4580 C.3   157  TYR157      0.1605
     77  C         16.8160   -3.2000   31.2950 C.2   157  TYR157      0.2264
     78  O         16.3630   -2.0580   31.4050 O.2   157  TYR157     -0.2867
     79  CB        17.7280   -3.1910   28.9880 C.3   157  TYR157      0.0534
     80  CG        18.9280   -3.2430   28.0810 C.ar  157  TYR157     -0.0201
     81  CD1       19.6520   -2.0930   27.7910 C.ar  157  TYR157     -0.0009
     82  CD2       19.3660   -4.4490   27.5490 C.ar  157  TYR157     -0.0009
     83  CE1       20.7860   -2.1450   27.0030 C.ar  157  TYR157      0.0417
     84  CE2       20.4980   -4.5130   26.7570 C.ar  157  TYR157      0.0417
     85  CZ        21.2060   -3.3620   26.4900 C.ar  157  TYR157      0.1957
     86  OH        22.3450   -3.4280   25.7200 O.3   157  TYR157     -0.2866
     87  N         26.1880    1.5610   28.7010 N.3   184  ALA184     -0.1245
     88  CA        26.7780    0.8200   27.5920 C.3   184  ALA184      0.1562
     89  C         27.5650    1.7190   26.6390 C.2   184  ALA184      0.2260
     90  O         28.6730    1.3720   26.2180 O.2   184  ALA184     -0.2867
     91  CB        25.6870    0.0700   26.8190 C.3   184  ALA184      0.0290
     92  N         31.0710    0.4430   27.2650 N.3   188  GLY188     -0.1210
     93  CA        31.1960   -0.6950   26.3770 C.3   188  GLY188      0.1956
     94  C         30.9700   -2.0050   27.1050 C.2   188  GLY188      0.2612
     95  O         31.4360   -3.0570   26.6690 O.2   188  GLY188     -0.2717
     96  N         30.2690   -1.9420   28.2300 N.am  189  GLU189     -0.1965
     97  CA        29.8190   -3.1500   28.9080 C.3   189  GLU189      0.1733
     98  C         28.5230   -2.8790   29.6560 C.2   189  GLU189      0.2616
     99  O         28.2330   -1.7390   30.0270 O.2   189  GLU189     -0.2715
    100  CB        30.8910   -3.6660   29.8790 C.3   189  GLU189      0.0429
    101  CG        31.1980   -2.7530   31.0500 C.3   189  GLU189      0.1163
    102  CD        32.2970   -3.3070   31.9470 C.2   189  GLU189      0.3649
    103  OE1       32.2220   -4.4940   32.3240 O.co2 189  GLU189     -0.2457
    104  OE2       33.2360   -2.5550   32.2780 O.co2 189  GLU189     -0.2457
    105  N         27.7410   -3.9330   29.8580 N.am  190  LEU190     -0.1977
    106  CA        26.5250   -3.8500   30.6560 C.3   190  LEU190      0.1596
    107  C         26.8690   -4.1270   32.1140 C.2   190  LEU190      0.2287
    108  O         27.7040   -4.9770   32.4130 O.2   190  LEU190     -0.2864
    109  CB        25.4970   -4.8670   30.1500 C.3   190  LEU190      0.0297
    110  CG        24.9700   -4.6110   28.7350 C.3   190  LEU190      0.0022
    111  CD1       24.0740   -5.7600   28.2960 C.3   190  LEU190      0.0001
    112  CD2       24.2010   -3.2940   28.7050 C.3   190  LEU190      0.0001
@<TRIPOS>BOND
     1    30    28    1
     2    28    27    2
     3    28    29    1
     4    18    17   ar
     5    27    26    1
     6    17    16    1
     7    17    19   ar
     8    16    13    1
     9    26    25    1
    10    15    14    2
    11    25    24    1
    12    13    14    1
    13    13    12    1
    14    14    20   am
    15    12     3   am
    16    20    21    1
    17    69    68    2
    18    24    21    1
    19    21    22    1
    20     7     9   ar
    21     7     6   ar
    22     9    11   ar
    23     3     2    1
    24     3     4    2
    25     1     2    1
    26    68    67    1
    27     5     6    1
    28     5     2    1
    29    22    23    2
    30    22    31   am
    31     6     8   ar
    32    67    70    1
    33    67    66    1
    34    62    61    2
    35    70    71    1
    36    11    10   ar
    37    31    32    1
    38    71    72    1
    39     8    10   ar
    40    61    66   am
    41    61    60    1
    42    34    33    2
    43    46    45   ar
    44    33    32    1
    45    33    39   am
    46    32    35    1
    47    45    47   ar
    48    45    44    1
    49    43    44    1
    50    43    40    1
    51    39    40    1
    52    72    74   ar
    53    72    73   ar
    54    40    41    1
    55    54    53    1
    56    54    48    1
    57    60    63    1
    58    60    59    1
    59    63    64    1
    60    35    36    1
    61    35    37    1
    62    36    38    1
    63    53    52    1
    64    58    57    2
    65    48    41   am
    66    48    49    1
    67    41    42    2
    68    59    65    1
    69    52    49    1
    70    64    65    1
    71    57    56    1
    72    49    50    1
    73    51    50    2
    74    56    55    1
    75    86    85    1
    76    90    89    2
    77    93    94    1
    78    93    92    1
    79    85    84   ar
    80    85    83   ar
    81    89    88    1
    82    95    94    2
    83    84    82   ar
    84    91    88    1
    85    83    81   ar
    86    94    96   am
    87    82    80   ar
    88    88    87    1
    89    81    80   ar
    90    80    79    1
    91    96    97    1
    92   111   110    1
    93   112   110    1
    94   110   109    1
    95    97    98    1
    96    97   100    1
    97    79    76    1
    98    98   105   am
    99    98    99    2
   100   105   106    1
   101   100   101    1
   102   109   106    1
   103    76    75    1
   104    76    77    1
   105   106   107    1
   106   101   102    1
   107    77    78    2
   108   102   104   ar
   109   102   103   ar
   110   107   108    2
