@<TRIPOS>MOLECULE
tmp/3jvvC00.pdb
 165 157 0 0 0
SMALL
GASTEIGER

@<TRIPOS>ATOM
      1  N        -90.0470   33.3600   14.2230 N.3    15  ALA15      -0.1231
      2  CA       -88.6200   33.1200   14.4540 C.3    15  ALA15       0.1694
      3  C        -88.2350   33.0880   15.9290 C.2    15  ALA15       0.2592
      4  O        -88.7130   33.8960   16.7120 O.2    15  ALA15      -0.2718
      5  CB       -87.7960   34.1730   13.7580 C.3    15  ALA15       0.0304
      6  N        -87.3340   32.1810   16.2900 N.am   16  SER16      -0.1952
      7  CA       -86.7080   32.1780   17.6200 C.3    16  SER16       0.1924
      8  C        -85.5940   33.2190   17.7930 C.2    16  SER16       0.2314
      9  O        -85.4000   33.7650   18.8860 O.2    16  SER16      -0.2863
     10  CB       -86.1280   30.8050   17.9320 C.3    16  SER16       0.2116
     11  OG       -85.3610   30.3080   16.8580 O.3    16  SER16      -0.2180
     12  N        -82.6510   37.1230   20.7400 N.3    97  ARG97      -0.1245
     13  CA       -83.3490   35.8740   20.9100 C.3    97  ARG97       0.1563
     14  C        -84.6640   36.1860   21.5880 C.2    97  ARG97       0.2260
     15  O        -84.7020   36.8090   22.6490 O.2    97  ARG97      -0.2867
     16  CB       -82.5090   34.8510   21.6890 C.3    97  ARG97       0.0307
     17  CG       -81.0990   34.5880   21.1160 C.3    97  ARG97       0.0489
     18  CD       -80.4250   33.3800   21.8020 C.3    97  ARG97       0.2205
     19  NE       -80.1180   33.6870   23.2010 N.pl3  97  ARG97      -0.0865
     20  CZ       -79.9190   32.7940   24.1620 C.cat  97  ARG97       0.5346
     21  NH1      -79.6470   33.2220   25.3940 N.pl3  97  ARG97       0.1354
     22  NH2      -79.9840   31.4820   23.9060 N.pl3  97  ARG97       0.1354
     23  N        -90.0580   33.9120   25.0290 N.3   100  PRO100     -0.2116
     24  CA       -91.4430   33.5290   24.7620 C.3   100  PRO100      0.1372
     25  C        -92.4220   34.3050   25.6610 C.2   100  PRO100      0.2244
     26  O        -92.1640   34.4830   26.8560 O.2   100  PRO100     -0.2868
     27  CB       -91.4600   32.0360   25.0800 C.3   100  PRO100      0.0268
     28  CG       -90.3240   31.8430   26.0670 C.3   100  PRO100      0.0207
     29  CD       -89.2620   32.8190   25.6180 C.3   100  PRO100      0.0892
     30  N        -97.8780   28.4480   27.2040 N.3   104  LEU104     -0.1245
     31  CA       -98.6800   27.4660   26.5170 C.3   104  LEU104      0.1561
     32  C        -99.1190   26.4240   27.5160 C.2   104  LEU104      0.2260
     33  O        -98.3260   25.9830   28.3590 O.2   104  LEU104     -0.2867
     34  CB       -97.8670   26.8100   25.4040 C.3   104  LEU104      0.0270
     35  CG       -97.6830   27.6020   24.1090 C.3   104  LEU104      0.0019
     36  CD1      -96.4450   27.1660   23.3550 C.3   104  LEU104      0.0001
     37  CD2      -98.9120   27.4880   23.2260 C.3   104  LEU104      0.0001
     38  N        -99.9670   22.0210   24.3160 N.3   109  LEU109     -0.1245
     39  CA       -98.7550   21.2660   23.9670 C.3   109  LEU109      0.1561
     40  C        -98.9840   19.7570   23.8180 C.2   109  LEU109      0.2260
     41  O        -98.0540   19.0110   23.5220 O.2   109  LEU109     -0.2867
     42  CB       -97.6610   21.5070   25.0070 C.3   109  LEU109      0.0270
     43  CG       -97.1930   22.9540   25.1770 C.3   109  LEU109      0.0019
     44  CD1      -96.3830   23.1200   26.4670 C.3   109  LEU109      0.0001
     45  CD2      -96.3830   23.4240   23.9620 C.3   109  LEU109      0.0001
     46  N        -79.7510   22.5890   23.7760 N.3   132  THR132     -0.1203
     47  CA       -80.3180   23.9230   23.5100 C.3   132  THR132      0.1994
     48  C        -81.3940   23.8350   22.4520 C.2   132  THR132      0.2618
     49  O        -81.2890   23.0490   21.5200 O.2   132  THR132     -0.2717
     50  CB       -79.2660   24.9570   23.0530 C.3   132  THR132      0.1784
     51  OG1      -78.3000   24.3280   22.2020 O.3   132  THR132     -0.2211
     52  CG2      -78.5640   25.5430   24.2450 C.3   132  THR132      0.0376
     53  N        -82.4450   24.6230   22.6250 N.am  133  GLY133     -0.1942
     54  CA       -83.5440   24.6170   21.6670 C.3   133  GLY133      0.2014
     55  C        -84.4100   23.3670   21.6580 C.2   133  GLY133      0.2640
     56  O        -85.1230   23.1210   20.6880 O.2   133  GLY133     -0.2714
     57  N        -84.3790   22.5720   22.7230 N.am  134  SER134     -0.1935
     58  CA       -85.2440   21.4050   22.7700 C.3   134  SER134      0.2055
     59  C        -86.6100   21.6810   23.3990 C.2   134  SER134      0.2644
     60  O        -87.4360   20.7730   23.4740 O.2   134  SER134     -0.2714
     61  CB       -84.5720   20.2670   23.5270 C.3   134  SER134      0.2130
     62  OG       -84.2380   20.6960   24.8370 O.3   134  SER134     -0.2179
     63  N        -86.8560   22.9050   23.8660 N.am  135  GLY135     -0.1939
     64  CA       -88.1690   23.2450   24.4400 C.3   135  GLY135      0.2014
     65  C        -88.3460   23.0380   25.9430 C.2   135  GLY135      0.2639
     66  O        -89.4250   23.2670   26.4810 O.2   135  GLY135     -0.2714
     67  N        -87.2870   22.6240   26.6270 N.am  136  LYS136     -0.1963
     68  CA       -87.3760   22.3520   28.0400 C.3   136  LYS136      0.1728
     69  C        -88.1640   23.4390   28.7280 C.2   136  LYS136      0.2617
     70  O        -89.1110   23.1670   29.4770 O.2   136  LYS136     -0.2715
     71  CB       -85.9890   22.2800   28.6770 C.3   136  LYS136      0.0311
     72  CG       -84.9330   21.6020   27.8420 C.3   136  LYS136      0.0038
     73  CD       -83.6890   21.4840   28.6830 C.3   136  LYS136      0.0206
     74  CE       -83.0680   22.8320   28.9580 C.3   136  LYS136      0.1093
     75  NZ       -82.1650   23.2150   27.8440 N.3   136  LYS136     -0.1314
     76  N        -87.7700   24.6830   28.4980 N.am  137  SER137     -0.1936
     77  CA       -88.4170   25.7730   29.2420 C.3   137  SER137      0.2055
     78  C        -89.9200   25.8130   29.0310 C.2   137  SER137      0.2644
     79  O        -90.6830   26.1580   29.9360 O.2   137  SER137     -0.2714
     80  CB       -87.8130   27.1560   28.9230 C.3   137  SER137      0.2130
     81  OG       -87.0680   27.6610   30.0310 O.3   137  SER137     -0.2179
     82  N        -90.3560   25.5010   27.8230 N.am  138  THR138     -0.1936
     83  CA       -91.7610   25.6240   27.5430 C.3   138  THR138      0.2028
     84  C        -92.5070   24.5420   28.2970 C.2   138  THR138      0.2642
     85  O        -93.5750   24.7820   28.8630 O.2   138  THR138     -0.2714
     86  CB       -92.0140   25.5220   26.0610 C.3   138  THR138      0.1808
     87  OG1      -91.0290   26.3070   25.3820 O.3   138  THR138     -0.2208
     88  CG2      -93.3910   26.0420   25.7270 C.3   138  THR138      0.0379
     89  N        -91.9430   23.3410   28.2900 N.am  139  THR139     -0.1950
     90  CA       -92.5050   22.2530   29.0610 C.3   139  THR139      0.1897
     91  C        -92.6680   22.6840   30.5300 C.2   139  THR139      0.2313
     92  O        -93.7540   22.5370   31.1040 O.2   139  THR139     -0.2863
     93  CB       -91.6310   20.9980   28.9500 C.3   139  THR139      0.1794
     94  OG1      -91.5770   20.5730   27.5790 O.3   139  THR139     -0.2208
     95  CG2      -92.1680   19.8750   29.8360 C.3   139  THR139      0.0378
     96  N        -87.6470   34.2190   31.8170 N.3   163  GLU163     -0.1231
     97  CA       -88.2400   33.9860   30.4950 C.3   163  GLU163      0.1699
     98  C        -89.7550   34.2180   30.4610 C.2   163  GLU163      0.2592
     99  O        -90.2130   35.2880   30.0640 O.2   163  GLU163     -0.2718
    100  CB       -87.8550   32.6110   29.9380 C.3   163  GLU163      0.0402
    101  CG       -86.3770   32.3890   29.9370 C.3   163  GLU163      0.1161
    102  CD       -86.0080   31.1150   29.2290 C.2   163  GLU163      0.3649
    103  OE1      -86.4370   30.9480   28.0660 O.co2 163  GLU163     -0.2457
    104  OE2      -85.2910   30.2810   29.8350 O.co2 163  GLU163     -0.2457
    105  N        -90.5300   33.2240   30.8850 N.am  164  PHE164     -0.1976
    106  CA       -91.9730   33.3220   30.8600 C.3   164  PHE164      0.1639
    107  C        -92.3930   34.0870   32.0720 C.2   164  PHE164      0.2290
    108  O        -91.8750   33.8610   33.1540 O.2   164  PHE164     -0.2864
    109  CB       -92.5920   31.9500   30.9780 C.3   164  PHE164      0.0560
    110  CG       -92.5830   31.1690   29.7030 C.ar  164  PHE164     -0.0200
    111  CD1      -93.6190   31.3030   28.7980 C.ar  164  PHE164     -0.0042
    112  CD2      -91.5470   30.2970   29.4080 C.ar  164  PHE164     -0.0042
    113  CE1      -93.6360   30.5850   27.6250 C.ar  164  PHE164     -0.0003
    114  CE2      -91.5490   29.5820   28.2290 C.ar  164  PHE164     -0.0003
    115  CZ       -92.6020   29.7270   27.3360 C.ar  164  PHE164     -0.0000
    116  N        -78.6920   19.9560   30.2680 N.3   229  HIS229     -0.1241
    117  CA       -78.6440   19.7280   28.8290 C.3   229  HIS229      0.1621
    118  C        -78.4820   18.2790   28.3900 C.2   229  HIS229      0.2264
    119  O        -77.9650   18.0180   27.3120 O.2   229  HIS229     -0.2867
    120  CB       -77.5430   20.5660   28.2190 C.3   229  HIS229      0.0745
    121  CG       -77.8050   22.0350   28.3010 C.ar  229  HIS229      0.0817
    122  ND1      -77.2980   22.8290   29.3190 N.ar  229  HIS229     -0.2268
    123  CD2      -78.5100   22.8610   27.4840 C.ar  229  HIS229      0.1154
    124  CE1      -77.6820   24.0800   29.1200 C.ar  229  HIS229      0.1986
    125  NE2      -78.4250   24.1240   28.0190 N.ar  229  HIS229     -0.2212
    126  N        -85.8170   15.4660   26.6980 N.3   266  GLN266     -0.1245
    127  CA       -86.6780   15.8660   25.6000 C.3   266  GLN266      0.1566
    128  C        -85.9310   16.2990   24.3430 C.2   266  GLN266      0.2260
    129  O        -84.8080   16.7920   24.4210 O.2   266  GLN266     -0.2867
    130  CB       -87.5370   17.0150   26.1070 C.3   266  GLN266      0.0367
    131  CG       -88.5120   17.5690   25.1480 C.3   266  GLN266      0.0905
    132  CD       -89.3330   18.6590   25.7910 C.2   266  GLN266      0.2608
    133  OE1      -89.9160   18.4630   26.8600 O.2   266  GLN266     -0.2717
    134  NE2      -89.3840   19.8200   25.1510 N.am  266  GLN266     -0.0878
    135  N        -86.9180   17.9380   20.0650 N.3   268  LEU268     -0.1245
    136  CA       -87.9060   18.3420   19.0690 C.3   268  LEU268      0.1561
    137  C        -87.6010   17.6890   17.7300 C.2   268  LEU268      0.2260
    138  O        -86.4480   17.5600   17.3430 O.2   268  LEU268     -0.2867
    139  CB       -87.9330   19.8550   18.9110 C.3   268  LEU268      0.0270
    140  CG       -88.3790   20.6910   20.1100 C.3   268  LEU268      0.0019
    141  CD1      -88.2750   22.1840   19.7640 C.3   268  LEU268      0.0001
    142  CD2      -89.7960   20.3200   20.6200 C.3   268  LEU268      0.0001
    143  N        -92.6600   21.3040   14.2160 N.3   276  ARG276     -0.1231
    144  CA       -92.0140   20.2620   15.0220 C.3   276  ARG276      0.1694
    145  C        -92.9090   19.7510   16.1710 C.2   276  ARG276      0.2592
    146  O        -93.8990   20.3820   16.5420 O.2   276  ARG276     -0.2718
    147  CB       -90.6500   20.7200   15.5740 C.3   276  ARG276      0.0321
    148  CG       -89.6430   21.2210   14.5370 C.3   276  ARG276      0.0489
    149  CD       -89.5130   22.7400   14.6050 C.3   276  ARG276      0.2205
    150  NE       -88.5980   23.1870   15.6310 N.pl3 276  ARG276     -0.0865
    151  CZ       -88.7030   24.2960   16.3600 C.cat 276  ARG276      0.5346
    152  NH1      -89.7300   25.1400   16.2350 N.pl3 276  ARG276      0.1354
    153  NH2      -87.7440   24.5510   17.2310 N.pl3 276  ARG276      0.1354
    154  N        -92.5440   18.5980   16.7230 N.am  277  VAL277     -0.1966
    155  CA       -93.2490   18.0160   17.8530 C.3   277  VAL277      0.1727
    156  C        -92.2040   17.5250   18.8680 C.2   277  VAL277      0.2616
    157  O        -91.0800   17.1750   18.4870 O.2   277  VAL277     -0.2715
    158  CB       -94.2130   16.8750   17.3930 C.3   277  VAL277      0.0290
    159  CG1      -93.4580   15.7560   16.6720 C.3   277  VAL277      0.0023
    160  CG2      -95.0180   16.3260   18.5610 C.3   277  VAL277      0.0023
    161  N        -92.5580   17.5370   20.1540 N.am  278  ALA278     -0.1977
    162  CA       -91.6520   17.0830   21.2110 C.3   278  ALA278      0.1597
    163  C        -91.7670   15.5860   21.4320 C.2   278  ALA278      0.2287
    164  O        -92.8550   15.0170   21.3580 O.2   278  ALA278     -0.2864
    165  CB       -91.9300   17.8150   22.5150 C.3   278  ALA278      0.0319
@<TRIPOS>BOND
     1     5     2    1
     2   143   144    1
     3     1     2    1
     4     2     3    1
     5   148   149    1
     6   148   147    1
     7   149   150    1
     8   144   147    1
     9   144   145    1
    10   150   151    2
    11     3     6   am
    12     3     4    2
    13   145   146    2
    14   145   154   am
    15   152   151    1
    16     6     7    1
    17   151   153    1
    18   159   158    1
    19   154   155    1
    20    11    10    1
    21   138   137    2
    22   158   155    1
    23   158   160    1
    24     7     8    1
    25     7    10    1
    26   137   136    1
    27     8     9    2
    28   155   156    1
    29   157   156    2
    30   156   161   am
    31   139   136    1
    32   139   140    1
    33   136   135    1
    34   141   140    1
    35   140   142    1
    36   161   162    1
    37    56    55    2
    38    12    13    1
    39    13    14    1
    40    13    16    1
    41    17    16    1
    42    17    18    1
    43   162   163    1
    44   162   165    1
    45   164   163    2
    46    49    48    2
    47    14    15    2
    48    55    54    1
    49    55    57   am
    50    54    53    1
    51    18    19    1
    52    51    50    1
    53    48    53   am
    54    48    47    1
    55    57    58    1
    56    58    59    1
    57    58    61    1
    58    50    47    1
    59    50    52    1
    60    19    20    2
    61    37    35    1
    62    36    35    1
    63    59    60    2
    64    59    63   am
    65    47    46    1
    66    41    40    2
    67    61    62    1
    68    40    39    1
    69    63    64    1
    70    22    20    1
    71    45    43    1
    72    39    38    1
    73    39    42    1
    74    35    34    1
    75    20    21    1
    76   128   129    2
    77   128   127    1
    78    64    65    1
    79    24    23    1
    80    24    27    1
    81    24    25    1
    82    42    43    1
    83    23    29    1
    84    27    28    1
    85   131   132    1
    86   131   130    1
    87   134   132   am
    88    43    44    1
    89    87    86    1
    90    34    31    1
    91   127   130    1
    92   127   126    1
    93    29    28    1
    94    25    26    2
    95    88    86    1
    96   132   133    2
    97    65    66    2
    98    65    67   am
    99    86    83    1
   100    31    30    1
   101    31    32    1
   102    67    68    1
   103   119   118    2
   104   115   113   ar
   105   115   114   ar
   106   123   125   ar
   107   123   121   ar
   108    32    33    2
   109    83    82    1
   110    83    84    1
   111    94    93    1
   112   113   111   ar
   113    82    78   am
   114    72    71    1
   115    72    73    1
   116    75    74    1
   117   125   124   ar
   118    68    71    1
   119    68    69    1
   120   103   102   ar
   121   120   121    1
   122   120   117    1
   123   114   112   ar
   124    89    84   am
   125    89    90    1
   126    84    85    2
   127   121   122   ar
   128   118   117    1
   129    76    69   am
   130    76    77    1
   131    73    74    1
   132    69    70    2
   133   111   110   ar
   134   117   116    1
   135    80    77    1
   136    80    81    1
   137    93    90    1
   138    93    95    1
   139    78    77    1
   140    78    79    2
   141    90    91    1
   142   124   122   ar
   143   102   104   ar
   144   102   101    1
   145   112   110   ar
   146   110   109    1
   147   101   100    1
   148   100    97    1
   149    99    98    2
   150    98    97    1
   151    98   105   am
   152    97    96    1
   153    91    92    2
   154   106   105    1
   155   106   109    1
   156   106   107    1
   157   107   108    2
