@<TRIPOS>MOLECULE
tmp/3jw1B00.pdb
 118 114 0 0 0
SMALL
GASTEIGER

@<TRIPOS>ATOM
      1  N        -21.9040  -22.7190    0.3850 N.3    11  GLN11      -0.1231
      2  CA       -21.1650  -23.4630   -0.6360 C.3    11  GLN11       0.1698
      3  C        -19.6470  -23.4850   -0.4140 C.2    11  GLN11       0.2592
      4  O        -19.0010  -24.4780   -0.7310 O.2    11  GLN11      -0.2718
      5  CB       -21.5100  -22.9550   -2.0500 C.3    11  GLN11       0.0381
      6  CG       -22.9870  -23.0220   -2.3500 C.3    11  GLN11       0.0905
      7  CD       -23.3550  -22.9450   -3.8260 C.2    11  GLN11       0.2608
      8  OE1      -24.0590  -23.8200   -4.3390 O.2    11  GLN11      -0.2717
      9  NE2      -23.0760  -21.8210   -4.4430 N.am   11  GLN11      -0.0878
     10  N        -19.0480  -22.3980    0.0760 N.am   12  HIS12      -0.1976
     11  CA       -17.6250  -22.2480   -0.1170 C.3    12  HIS12       0.1656
     12  C        -16.7830  -21.9720    1.1010 C.2    12  HIS12       0.2291
     13  O        -15.5690  -22.1740    1.0450 O.2    12  HIS12      -0.2864
     14  CB       -17.3380  -21.1780   -1.1850 C.3    12  HIS12       0.0771
     15  CG       -18.0180  -21.4520   -2.4930 C.ar   12  HIS12       0.0820
     16  ND1      -17.6770  -22.5240   -3.2940 N.ar   12  HIS12      -0.2267
     17  CD2      -19.0590  -20.8460   -3.1040 C.ar   12  HIS12       0.1154
     18  CE1      -18.4580  -22.5450   -4.3540 C.ar   12  HIS12       0.1986
     19  NE2      -19.2990  -21.5330   -4.2650 N.ar   12  HIS12      -0.2212
     20  N        -22.9460  -32.5240   -7.1930 N.3    41  LYS41      -0.1245
     21  CA       -22.3210  -31.3290   -7.7760 C.3    41  LYS41       0.1561
     22  C        -20.9130  -31.7870   -8.2010 C.2    41  LYS41       0.2260
     23  O        -20.2320  -32.4480   -7.4220 O.2    41  LYS41      -0.2867
     24  CB       -22.2240  -30.2060   -6.7840 C.3    41  LYS41       0.0271
     25  CG       -21.5220  -29.0070   -7.3540 C.3    41  LYS41       0.0035
     26  CD       -21.5090  -27.8560   -6.4250 C.3    41  LYS41       0.0206
     27  CE       -20.7360  -26.7240   -7.0940 C.3    41  LYS41       0.1093
     28  NZ       -20.8800  -25.4820   -6.3560 N.3    41  LYS41      -0.1314
     29  N        -17.8150  -30.2770   -9.2710 N.3    43  VAL43      -0.1231
     30  CA       -16.6530  -29.7270   -8.6180 C.3    43  VAL43       0.1692
     31  C        -17.0810  -28.6280   -7.6520 C.2    43  VAL43       0.2592
     32  O        -18.0270  -27.8800   -7.8920 O.2    43  VAL43      -0.2718
     33  CB       -15.5990  -29.2350   -9.6330 C.3    43  VAL43       0.0266
     34  CG1      -16.2790  -28.6940  -10.8790 C.3    43  VAL43       0.0020
     35  CG2      -14.6560  -28.2080   -8.9980 C.3    43  VAL43       0.0020
     36  N        -16.4300  -28.5990   -6.5020 N.am   44  ASN44      -0.1960
     37  CA       -16.7370  -27.5820   -5.5160 C.3    44  ASN44       0.1819
     38  C        -15.5510  -27.2300   -4.6660 C.2    44  ASN44       0.2621
     39  O        -14.7840  -28.0760   -4.2180 O.2    44  ASN44      -0.2715
     40  CB       -17.9200  -27.9830   -4.6450 C.3    44  ASN44       0.1195
     41  CG       -18.4010  -26.8390   -3.7570 C.2    44  ASN44       0.2630
     42  OD1      -19.1890  -25.9810   -4.1760 O.2    44  ASN44      -0.2716
     43  ND2      -17.9450  -26.8460   -2.5020 N.am   44  ASN44      -0.0877
     44  N        -15.3580  -25.9370   -4.4700 N.am   45  THR45      -0.1951
     45  CA       -14.2080  -25.5120   -3.7230 C.3    45  THR45       0.1897
     46  C        -14.6710  -24.9920   -2.3760 C.2    45  THR45       0.2313
     47  O        -15.6090  -24.1600   -2.2860 O.2    45  THR45      -0.2863
     48  CB       -13.4250  -24.4050   -4.4540 C.3    45  THR45       0.1794
     49  OG1      -13.1920  -24.8130   -5.8060 O.3    45  THR45      -0.2208
     50  CG2      -12.0810  -24.1420   -3.7800 C.3    45  THR45       0.0378
     51  N        -15.1670  -15.7340  -15.6510 N.3    66  LYS66      -0.1245
     52  CA       -15.0950  -16.6570  -16.7810 C.3    66  LYS66       0.1561
     53  C        -16.3100  -16.5510  -17.7340 C.2    66  LYS66       0.2260
     54  O        -16.2180  -16.8800  -18.9260 O.2    66  LYS66      -0.2867
     55  CB       -14.9600  -18.0850  -16.2450 C.3    66  LYS66       0.0271
     56  CG       -16.2100  -18.5910  -15.6280 C.3    66  LYS66       0.0035
     57  CD       -16.2570  -20.1120  -15.6470 C.3    66  LYS66       0.0206
     58  CE       -15.1050  -20.7010  -14.8700 C.3    66  LYS66       0.1093
     59  NZ       -15.0040  -22.1670  -15.0950 N.3    66  LYS66      -0.1314
     60  N        -10.2000  -28.6940   -3.2450 N.3    83  ASP83      -0.1239
     61  CA       -11.0670  -28.9630   -4.3730 C.3    83  ASP83       0.1674
     62  C        -11.6750  -30.3560   -4.1920 C.2    83  ASP83       0.2266
     63  O        -10.9700  -31.3340   -3.9600 O.2    83  ASP83      -0.2867
     64  CB       -10.2740  -28.9390   -5.6730 C.3    83  ASP83       0.1410
     65  CG        -9.8250  -27.5480   -6.0830 C.2    83  ASP83       0.3668
     66  OD1      -10.6140  -26.5880   -5.9640 O.co2  83  ASP83      -0.2456
     67  OD2       -8.6980  -27.4580   -6.6250 O.co2  83  ASP83      -0.2456
     68  N        -13.6530  -32.9750   -6.4660 N.3    85  ARG85      -0.1245
     69  CA       -14.1010  -33.3080   -7.8060 C.3    85  ARG85       0.1563
     70  C        -14.6710  -34.7260   -7.8640 C.2    85  ARG85       0.2260
     71  O        -14.0100  -35.6650   -7.4280 O.2    85  ARG85      -0.2867
     72  CB       -12.9250  -33.1850   -8.7750 C.3    85  ARG85       0.0307
     73  CG       -12.4720  -31.7590   -9.0120 C.3    85  ARG85       0.0489
     74  CD       -11.3850  -31.6900  -10.0740 C.3    85  ARG85       0.2205
     75  NE       -10.7880  -30.3610  -10.1500 N.pl3  85  ARG85      -0.0865
     76  CZ       -11.3710  -29.3070  -10.7110 C.cat  85  ARG85       0.5346
     77  NH1      -12.5770  -29.4200  -11.2570 N.pl3  85  ARG85       0.1354
     78  NH2      -10.7440  -28.1380  -10.7320 N.pl3  85  ARG85       0.1354
     79  N        -20.3060  -15.5270   -5.6130 N.3   119  HIS119     -0.1226
     80  CA       -20.0530  -16.6850   -6.4730 C.3   119  HIS119      0.1752
     81  C        -18.5660  -17.0070   -6.4020 C.2   119  HIS119      0.2596
     82  O        -17.7380  -16.0970   -6.3110 O.2   119  HIS119     -0.2718
     83  CB       -20.5130  -16.3480   -7.9150 C.3   119  HIS119      0.0759
     84  CG       -19.8390  -17.1340   -9.0060 C.ar  119  HIS119      0.0818
     85  ND1      -20.2620  -18.3940   -9.3820 N.ar  119  HIS119     -0.2268
     86  CD2      -18.9420  -16.7470   -9.9490 C.ar  119  HIS119      0.1154
     87  CE1      -19.5740  -18.7930  -10.4390 C.ar  119  HIS119      0.1986
     88  NE2      -18.7680  -17.8100  -10.8060 N.ar  119  HIS119     -0.2212
     89  N        -18.2140  -18.2830   -6.4140 N.am  120  PHE120     -0.1962
     90  CA       -16.8220  -18.7100   -6.4920 C.3   120  PHE120      0.1771
     91  C        -16.5870  -18.9860   -7.9800 C.2   120  PHE120      0.2620
     92  O        -17.2700  -19.8230   -8.5620 O.2   120  PHE120     -0.2715
     93  CB       -16.5700  -20.0000   -5.6830 C.3   120  PHE120      0.0574
     94  CG       -15.1060  -20.3830   -5.5890 C.ar  120  PHE120     -0.0200
     95  CD1      -14.4570  -21.0200   -6.6350 C.ar  120  PHE120     -0.0042
     96  CD2      -14.3520  -19.9670   -4.5030 C.ar  120  PHE120     -0.0042
     97  CE1      -13.1070  -21.3120   -6.5660 C.ar  120  PHE120     -0.0003
     98  CE2      -13.0010  -20.2540   -4.4150 C.ar  120  PHE120     -0.0003
     99  CZ       -12.3690  -20.9290   -5.4430 C.ar  120  PHE120     -0.0000
    100  N        -15.6370  -18.2960   -8.5910 N.am  121  ASP121     -0.1957
    101  CA       -15.4050  -18.4000  -10.0320 C.3   121  ASP121      0.1840
    102  C        -14.3300  -19.4100  -10.3870 C.2   121  ASP121      0.2622
    103  O        -14.5410  -20.2920  -11.2160 O.2   121  ASP121     -0.2715
    104  CB       -15.0320  -17.0430  -10.6600 C.3   121  ASP121      0.1450
    105  CG       -15.4340  -16.9620  -12.1240 C.2   121  ASP121      0.3671
    106  OD1      -16.5930  -17.3070  -12.4200 O.co2 121  ASP121     -0.2456
    107  OD2      -14.6040  -16.5370  -12.9530 O.co2 121  ASP121     -0.2456
    108  N        -13.1860  -19.3430   -9.7250 N.am  122  ALA122     -0.1963
    109  CA       -12.0610  -20.1560  -10.1320 C.3   122  ALA122      0.1728
    110  C        -10.9760  -20.0570   -9.0750 C.2   122  ALA122      0.2616
    111  O        -11.0200  -19.1810   -8.2100 O.2   122  ALA122     -0.2715
    112  CB       -11.5330  -19.6990  -11.5450 C.3   122  ALA122      0.0334
    113  N        -10.0200  -20.9580   -9.1480 N.am  123  SER123     -0.1950
    114  CA        -8.7420  -20.7790   -8.4700 C.3   123  SER123      0.1924
    115  C         -7.5790  -20.8960   -9.4510 C.2   123  SER123      0.2314
    116  O         -7.6240  -21.6540  -10.4290 O.2   123  SER123     -0.2863
    117  CB        -8.5830  -21.7840   -7.3270 C.3   123  SER123      0.2116
    118  OG        -8.3950  -23.0990   -7.8140 O.3   123  SER123     -0.2180
@<TRIPOS>BOND
     1    54    53    2
     2    53    52    1
     3    52    55    1
     4    52    51    1
     5    55    56    1
     6    57    56    1
     7    57    58    1
     8    59    58    1
     9   107   105   ar
    10   106   105   ar
    11   105   104    1
    12   112   109    1
    13    77    76    1
    14   103   102    2
    15    34    33    1
    16    88    87   ar
    17    88    86   ar
    18    78    76    1
    19    76    75    2
    20   104   101    1
    21    87    85   ar
    22   116   115    2
    23   102   101    1
    24   102   108   am
    25    75    74    1
    26   109   108    1
    27   109   110    1
    28    74    73    1
    29   101   100    1
    30    86    84   ar
    31    33    35    1
    32    33    30    1
    33   115   114    1
    34    85    84   ar
    35    29    30    1
    36   113   110   am
    37   113   114    1
    38   110   111    2
    39    73    72    1
    40    84    83    1
    41    72    69    1
    42    30    31    1
    43   100    91   am
    44    92    91    2
    45   114   117    1
    46    22    21    1
    47    22    23    2
    48    91    90    1
    49    83    80    1
    50    32    31    2
    51    70    69    1
    52    70    71    2
    53   118   117    1
    54    69    68    1
    55    21    20    1
    56    21    24    1
    57    31    36   am
    58    25    24    1
    59    25    26    1
    60    27    26    1
    61    27    28    1
    62    95    97   ar
    63    95    94   ar
    64    67    65   ar
    65    97    99   ar
    66    36    37    1
    67    90    89    1
    68    90    93    1
    69    80    81    1
    70    80    79    1
    71    89    81   am
    72    81    82    2
    73    65    66   ar
    74    65    64    1
    75    49    48    1
    76    93    94    1
    77    64    61    1
    78    94    96   ar
    79    37    38    1
    80    37    40    1
    81    99    98   ar
    82    38    44   am
    83    38    39    2
    84    40    41    1
    85    96    98   ar
    86    44    45    1
    87    48    50    1
    88    48    45    1
    89     9     7   am
    90    61    62    1
    91    61    60    1
    92    18    19   ar
    93    18    16   ar
    94     8     7    2
    95    19    17   ar
    96    62    63    2
    97    42    41    2
    98     7     6    1
    99    41    43   am
   100    45    46    1
   101    16    15   ar
   102    17    15   ar
   103    15    14    1
   104    46    47    2
   105     6     5    1
   106     5     2    1
   107    14    11    1
   108     4     3    2
   109     2     3    1
   110     2     1    1
   111     3    10   am
   112    11    10    1
   113    11    12    1
   114    13    12    2
