@<TRIPOS>MOLECULE
tmp/3jw7C00.pdb
 101 92 0 0 0
SMALL
GASTEIGER

@<TRIPOS>ATOM
      1  N        -80.2540   28.8750   -3.7770 N.3    19  PHE19      -0.1241
      2  CA       -79.3140   27.7760   -3.5960 C.3    19  PHE19       0.1605
      3  C        -77.9500   28.0880   -4.1870 C.2    19  PHE19       0.2264
      4  O        -77.8430   28.6220   -5.2930 O.2    19  PHE19      -0.2867
      5  CB       -79.8740   26.4870   -4.2030 C.3    19  PHE19       0.0534
      6  CG       -80.5360   25.5890   -3.1970 C.ar   19  PHE19      -0.0203
      7  CD1      -81.5990   26.0520   -2.4250 C.ar   19  PHE19      -0.0042
      8  CD2      -80.0760   24.2920   -2.9940 C.ar   19  PHE19      -0.0042
      9  CE1      -82.1940   25.2370   -1.4640 C.ar   19  PHE19      -0.0003
     10  CE2      -80.6640   23.4680   -2.0360 C.ar   19  PHE19      -0.0003
     11  CZ       -81.7250   23.9430   -1.2690 C.ar   19  PHE19      -0.0000
     12  N        -74.0740   26.5370   -5.1200 N.3    21  ILE21      -0.1245
     13  CA       -73.1850   25.4000   -5.3110 C.3    21  ILE21       0.1561
     14  C        -71.8800   25.9620   -5.8630 C.2    21  ILE21       0.2260
     15  O        -71.8000   27.1450   -6.1980 O.2    21  ILE21      -0.2867
     16  CB       -73.7580   24.3380   -6.2880 C.3    21  ILE21       0.0252
     17  CG1      -73.8750   24.9080   -7.7000 C.3    21  ILE21       0.0019
     18  CG2      -75.1080   23.8580   -5.7930 C.3    21  ILE21       0.0019
     19  CD1      -74.1290   23.8430   -8.7430 C.3    21  ILE21       0.0001
     20  N        -78.6860   29.7160   -7.9480 N.3    26  ILE26      -0.1245
     21  CA       -79.9540   29.6900   -8.6620 C.3    26  ILE26       0.1561
     22  C        -81.0030   30.3880   -7.7900 C.2    26  ILE26       0.2260
     23  O        -81.0690   30.1680   -6.5800 O.2    26  ILE26      -0.2867
     24  CB       -80.3730   28.2240   -8.9770 C.3    26  ILE26       0.0252
     25  CG1      -81.5140   28.1990   -9.9990 C.3    26  ILE26       0.0019
     26  CG2      -80.7570   27.4980   -7.6960 C.3    26  ILE26       0.0019
     27  CD1      -82.8430   28.6680   -9.4730 C.3    26  ILE26       0.0001
     28  N        -80.9270   18.1420   -0.8100 N.3   134  THR134     -0.1218
     29  CA       -79.6910   18.9070   -0.8850 C.3   134  THR134      0.1862
     30  C        -79.6580   20.1700   -0.0360 C.2   134  THR134      0.2287
     31  O        -80.6360   20.9110    0.0370 O.2   134  THR134     -0.2866
     32  CB       -79.4000   19.3380   -2.3370 C.3   134  THR134      0.1770
     33  OG1      -79.3920   18.1870   -3.1890 O.3   134  THR134     -0.2211
     34  CG2      -78.0500   20.0440   -2.4240 C.3   134  THR134      0.0375
     35  N        -77.5600   15.2400    0.9320 N.3   159  LYS159     -0.1245
     36  CA       -76.5330   15.5160   -0.0740 C.3   159  LYS159      0.1561
     37  C        -75.9330   16.8770    0.2640 C.2   159  LYS159      0.2260
     38  O        -76.5960   17.9080    0.1320 O.2   159  LYS159     -0.2867
     39  CB       -77.1560   15.5390   -1.4750 C.3   159  LYS159      0.0271
     40  CG       -76.1910   15.9360   -2.5860 C.3   159  LYS159      0.0035
     41  CD       -76.8250   15.7590   -3.9550 C.3   159  LYS159      0.0206
     42  CE       -75.8830   16.2140   -5.0650 C.3   159  LYS159      0.1093
     43  NZ       -76.3770   15.8280   -6.4210 N.3   159  LYS159     -0.1314
     44  N        -73.5540   19.9800   -0.3430 N.3   161  LYS161     -0.1245
     45  CA       -72.8270   20.7400   -1.3560 C.3   161  LYS161      0.1561
     46  C        -71.6140   21.4140   -0.7230 C.2   161  LYS161      0.2260
     47  O        -71.7080   22.0330    0.3380 O.2   161  LYS161     -0.2867
     48  CB       -73.7250   21.8050   -1.9870 C.3   161  LYS161      0.0271
     49  CG       -74.8060   21.2610   -2.8980 C.3   161  LYS161      0.0035
     50  CD       -74.2210   20.5680   -4.1160 C.3   161  LYS161      0.0206
     51  CE       -75.3240   20.1570   -5.0810 C.3   161  LYS161      0.1093
     52  NZ       -74.7980   19.4430   -6.2790 N.3   161  LYS161     -0.1314
     53  N        -79.1110   12.2950  -15.3120 N.3   264  LYS264     -0.1245
     54  CA       -80.0680   13.4050  -15.3290 C.3   264  LYS264      0.1561
     55  C        -80.7010   13.4610  -16.7110 C.2   264  LYS264      0.2260
     56  O        -79.9970   13.5080  -17.7200 O.2   264  LYS264     -0.2867
     57  CB       -79.3770   14.7410  -15.0530 C.3   264  LYS264      0.0271
     58  CG       -78.8120   14.9060  -13.6630 C.3   264  LYS264      0.0035
     59  CD       -78.1600   16.2720  -13.5220 C.3   264  LYS264      0.0206
     60  CE       -77.6940   16.5290  -12.1030 C.3   264  LYS264      0.1093
     61  NZ       -76.7480   15.4840  -11.6280 N.3   264  LYS264     -0.1314
     62  N        -81.2410   15.6390  -10.6820 N.3   292  CYS292     -0.1221
     63  CA       -82.0550   16.6810  -11.2920 C.3   292  CYS292      0.1808
     64  C        -81.3680   18.0420  -11.3280 C.2   292  CYS292      0.2601
     65  O        -80.3530   18.2690  -10.6710 O.2   292  CYS292     -0.2717
     66  CB       -83.3730   16.8240  -10.5250 C.3   292  CYS292      0.0970
     67  SG       -83.1370   17.4080   -8.8290 S.3   292  CYS292     -0.0800
     68  N        -81.9450   18.9440  -12.1120 N.am  293  MET293     -0.1965
     69  CA       -81.4500   20.3090  -12.2230 C.3   293  MET293      0.1736
     70  C        -82.3860   21.1220  -11.3290 C.2   293  MET293      0.2616
     71  O        -83.5380   20.7320  -11.1280 O.2   293  MET293     -0.2715
     72  CB       -81.5690   20.8060  -13.6650 C.3   293  MET293      0.0427
     73  CG       -80.7760   19.9980  -14.6810 C.3   293  MET293      0.0599
     74  SD       -79.0110   20.1140  -14.3640 S.3   293  MET293     -0.1393
     75  CE       -78.6150   21.5880  -15.2940 C.3   293  MET293      0.0692
     76  N        -81.8990   22.2320  -10.7840 N.am  294  ALA294     -0.1977
     77  CA       -82.7390   23.0720   -9.9370 C.3   294  ALA294      0.1597
     78  C        -83.7130   23.8340  -10.8300 C.2   294  ALA294      0.2287
     79  O        -84.6840   24.4250  -10.3470 O.2   294  ALA294     -0.2864
     80  CB       -81.8830   24.0490   -9.1390 C.3   294  ALA294      0.0319
     81  N        -81.8740   11.6080   -6.1850 N.3   318  ASP318     -0.1239
     82  CA       -81.6730   12.9760   -5.7340 C.3   318  ASP318      0.1674
     83  C        -82.6260   13.8270   -6.5520 C.2   318  ASP318      0.2266
     84  O        -82.2070   14.5650   -7.4430 O.2   318  ASP318     -0.2867
     85  CB       -80.2290   13.4230   -5.9700 C.3   318  ASP318      0.1410
     86  CG       -80.0280   14.9040   -5.7050 C.2   318  ASP318      0.3668
     87  OD1      -80.4790   15.3880   -4.6420 O.co2 318  ASP318     -0.2456
     88  OD2      -79.4150   15.5830   -6.5610 O.co2 318  ASP318     -0.2456
     89  N        -85.0800   16.5030   -5.7060 N.3   320  ASP320     -0.1225
     90  CA       -85.6220   17.4580   -4.7520 C.3   320  ASP320      0.1805
     91  C        -85.8750   18.8420   -5.3460 C.2   320  ASP320      0.2597
     92  O        -86.0300   19.8150   -4.6070 O.2   320  ASP320     -0.2718
     93  CB       -84.6580   17.5740   -3.5720 C.3   320  ASP320      0.1424
     94  CG       -83.2490   17.9430   -4.0100 C.2   320  ASP320      0.3668
     95  OD1      -82.9340   17.7670   -5.2070 O.co2 320  ASP320     -0.2456
     96  OD2      -82.4550   18.3960   -3.1590 O.co2 320  ASP320     -0.2456
     97  N        -85.9240   18.9230   -6.6720 N.am  321  ALA321     -0.1979
     98  CA       -86.1430   20.1920   -7.3600 C.3   321  ALA321      0.1597
     99  C        -87.4750   20.8670   -7.0220 C.2   321  ALA321      0.2287
    100  O        -87.5460   22.0940   -6.9470 O.2   321  ALA321     -0.2864
    101  CB       -86.0360   19.9910   -8.8670 C.3   321  ALA321      0.0319
@<TRIPOS>BOND
     1    56    55    2
     2    55    54    1
     3    54    53    1
     4    54    57    1
     5    75    74    1
     6    57    58    1
     7    73    74    1
     8    73    72    1
     9    72    69    1
    10    58    59    1
    11    59    60    1
    12    69    68    1
    13    69    70    1
    14    68    64   am
    15    60    61    1
    16    70    71    2
    17    70    76   am
    18    64    63    1
    19    64    65    2
    20    63    62    1
    21    63    66    1
    22    78    79    2
    23    78    77    1
    24    76    77    1
    25    66    67    1
    26    25    27    1
    27    25    24    1
    28    77    80    1
    29    24    21    1
    30    24    26    1
    31   101    98    1
    32    19    17    1
    33    21    20    1
    34    21    22    1
    35    22    23    2
    36    17    16    1
    37    84    83    2
    38    98    99    1
    39    98    97    1
    40    99   100    2
    41    97    91   am
    42    88    86   ar
    43    83    82    1
    44    43    42    1
    45    16    18    1
    46    16    13    1
    47    52    51    1
    48    15    14    2
    49    81    82    1
    50    85    82    1
    51    85    86    1
    52    14    13    1
    53    89    90    1
    54    86    87   ar
    55    91    90    1
    56    91    92    2
    57    13    12    1
    58     4     3    2
    59    95    94   ar
    60    51    50    1
    61    42    41    1
    62    90    93    1
    63     5     2    1
    64     5     6    1
    65     3     2    1
    66    50    49    1
    67    94    93    1
    68    94    96   ar
    69    41    40    1
    70     1     2    1
    71     6     8   ar
    72     6     7   ar
    73    33    32    1
    74     8    10   ar
    75    49    48    1
    76    40    39    1
    77     7     9   ar
    78    34    32    1
    79    32    29    1
    80    10    11   ar
    81    48    45    1
    82    39    36    1
    83     9    11   ar
    84    45    46    1
    85    45    44    1
    86    29    28    1
    87    29    30    1
    88    46    47    2
    89    36    37    1
    90    36    35    1
    91    30    31    2
    92    38    37    2
