@<TRIPOS>MOLECULE
tmp/3jw8A00.pdb
 89 81 0 0 0
SMALL
GASTEIGER

@<TRIPOS>ATOM
      1  N         20.4060   14.7150   15.5460 N.3   137  LEU137     -0.1245
      2  CA        19.1660   14.3350   14.8660 C.3   137  LEU137      0.1561
      3  C         18.0400   14.9710   15.6400 C.2   137  LEU137      0.2260
      4  O         17.8080   14.6540   16.8050 O.2   137  LEU137     -0.2867
      5  CB        19.0370   12.7790   14.8570 C.3   137  LEU137      0.0270
      6  CG        17.6800   12.1970   14.4510 C.3   137  LEU137      0.0019
      7  CD1       17.3310   12.6240   13.0030 C.3   137  LEU137      0.0001
      8  CD2       17.7050   10.6510   14.5770 C.3   137  LEU137      0.0001
      9  N         15.3020   16.9160   13.3710 N.3   139  LEU139     -0.1231
     10  CA        14.2300   17.0990   12.3800 C.3   139  LEU139      0.1693
     11  C         14.1900   15.9300   11.3800 C.2   139  LEU139      0.2592
     12  O         15.2370   15.5340   10.9230 O.2   139  LEU139     -0.2718
     13  CB        14.6350   18.3770   11.6340 C.3   139  LEU139      0.0284
     14  CG        13.7030   19.2140   10.8110 C.3   139  LEU139      0.0019
     15  CD1       12.8830   20.2280   11.7060 C.3   139  LEU139      0.0001
     16  CD2       14.5270   20.0140    9.7830 C.3   139  LEU139      0.0001
     17  N         12.9790   15.4320   10.9800 N.am  140  ALA140     -0.1966
     18  CA        12.8740   14.4310    9.9350 C.3   140  ALA140      0.1728
     19  C         13.5580   15.0990    8.6840 C.2   140  ALA140      0.2616
     20  O         13.4780   16.3250    8.4870 O.2   140  ALA140     -0.2715
     21  CB        11.3820   14.1260    9.6440 C.3   140  ALA140      0.0334
     22  N         14.3000   14.3150    7.9220 N.am  141  ASN141     -0.1972
     23  CA        15.0250   14.8050    6.7480 C.3   141  ASN141      0.1688
     24  C         14.0340   15.3930    5.6350 C.2   141  ASN141      0.2292
     25  O         13.0260   14.7570    5.3120 O.2   141  ASN141     -0.2864
     26  CB        15.8940   13.6790    6.2200 C.3   141  ASN141      0.1181
     27  CG        16.8340   14.1190    5.1610 C.2   141  ASN141      0.2629
     28  OD1       16.4510   14.2320    3.9990 O.2   141  ASN141     -0.2716
     29  ND2       18.0770   14.3660    5.5440 N.am  141  ASN141     -0.0877
     30  N         14.1830   12.6140    2.3960 N.3   144  SER144     -0.1202
     31  CA        13.7680   11.2420    2.6790 C.3   144  SER144      0.2020
     32  C         12.5010   11.1000    3.5190 C.2   144  SER144      0.2618
     33  O         11.9350   10.0000    3.5460 O.2   144  SER144     -0.2717
     34  CB        14.9070   10.4840    3.3440 C.3   144  SER144      0.2103
     35  OG        15.3110   11.0890    4.5600 O.3   144  SER144     -0.2182
     36  N         12.0560   12.1700    4.1990 N.am  145  ALA145     -0.1979
     37  CA        10.9270   12.0690    5.1190 C.3   145  ALA145      0.1597
     38  C          9.9190   13.1980    5.0660 C.2   145  ALA145      0.2287
     39  O          9.5450   13.8050    6.0860 O.2   145  ALA145     -0.2864
     40  CB        11.4220   11.8240    6.5670 C.3   145  ALA145      0.0319
     41  N         19.5810    1.2330    5.4800 N.3   194  LEU194     -0.1245
     42  CA        18.5550    1.2730    6.5230 C.3   194  LEU194      0.1561
     43  C         17.3960    0.2260    6.4670 C.2   194  LEU194      0.2260
     44  O         16.7090    0.1620    5.4520 O.2   194  LEU194     -0.2867
     45  CB        18.0340    2.7280    6.4260 C.3   194  LEU194      0.0270
     46  CG        17.0690    3.1940    7.5130 C.3   194  LEU194      0.0019
     47  CD1       17.7690    3.2440    8.8560 C.3   194  LEU194      0.0001
     48  CD2       16.4640    4.5500    7.1610 C.3   194  LEU194      0.0001
     49  N         14.1880    2.7540   10.3990 N.3   199  GLY199     -0.1225
     50  CA        13.7750    4.1020    9.9260 C.3   199  GLY199      0.1811
     51  C         12.5860    4.5850   10.7380 C.2   199  GLY199      0.2280
     52  O         12.5660    5.7460   11.1470 O.2   199  GLY199     -0.2866
     53  N         13.9020    5.7950   14.0620 N.3   202  LEU202     -0.1231
     54  CA        14.4890    7.1410   13.9150 C.3   202  LEU202      0.1693
     55  C         13.3880    8.2520   13.8720 C.2   202  LEU202      0.2591
     56  O         13.5840    9.3830   14.3520 O.2   202  LEU202     -0.2718
     57  CB        15.3570    7.2180   12.6420 C.3   202  LEU202      0.0284
     58  CG        16.6740    6.3470   12.6430 C.3   202  LEU202      0.0019
     59  CD1       17.5100    6.5880   11.2970 C.3   202  LEU202      0.0001
     60  CD2       17.5230    6.7170   13.8460 C.3   202  LEU202      0.0001
     61  N         12.2480    7.9240   13.2550 N.am  203  LEU203     -0.1980
     62  CA        11.0830    8.8180   13.2080 C.3   203  LEU203      0.1596
     63  C         10.5020    8.9380   14.6150 C.2   203  LEU203      0.2287
     64  O         10.0870   10.0190   14.9650 O.2   203  LEU203     -0.2864
     65  CB         9.9900    8.2840   12.2150 C.3   203  LEU203      0.0297
     66  CG        10.3940    8.4380   10.7280 C.3   203  LEU203      0.0022
     67  CD1        9.3920    7.6820    9.7750 C.3   203  LEU203      0.0001
     68  CD2       10.5210    9.9720   10.3350 C.3   203  LEU203      0.0001
     69  N         12.7310   11.4630   16.4660 N.3   206  VAL206     -0.1245
     70  CA        12.4430   12.8700   16.1100 C.3   206  VAL206      0.1561
     71  C         11.1720   13.3670   16.8000 C.2   206  VAL206      0.2260
     72  O         11.1350   14.4520   17.3770 O.2   206  VAL206     -0.2867
     73  CB        12.3810   13.0730   14.5470 C.3   206  VAL206      0.0252
     74  CG1       11.8230   14.4600   14.1830 C.3   206  VAL206      0.0019
     75  CG2       13.7360   12.7860   13.8580 C.3   206  VAL206      0.0019
     76  N         22.0180   15.4450    5.8800 N.3   230  LEU230     -0.1231
     77  CA        21.4910   14.3730    6.7590 C.3   230  LEU230      0.1693
     78  C         20.6500   14.8940    7.9260 C.2   230  LEU230      0.2592
     79  O         19.5240   14.4110    8.1580 O.2   230  LEU230     -0.2718
     80  CB        22.6570   13.5180    7.2370 C.3   230  LEU230      0.0284
     81  CG        23.3100   12.6940    6.1300 C.3   230  LEU230      0.0019
     82  CD1       24.6030   12.1060    6.6000 C.3   230  LEU230      0.0001
     83  CD2       22.3500   11.5610    5.6760 C.3   230  LEU230      0.0001
     84  N         21.1600   15.9160    8.6240 N.am  231  CYS231     -0.1970
     85  CA        20.4640   16.5960    9.7550 C.3   231  CYS231      0.1712
     86  C         20.4410   18.0460    9.3800 C.2   231  CYS231      0.2296
     87  O         21.4210   18.7810    9.4770 O.2   231  CYS231     -0.2864
     88  CB        21.1550   16.3280   11.1080 C.3   231  CYS231      0.0983
     89  SG        20.9930   14.5930   11.6680 S.3   231  CYS231     -0.0798
@<TRIPOS>BOND
     1    30    31    1
     2    31    34    1
     3    31    32    1
     4    34    35    1
     5    32    33    2
     6    32    36   am
     7    28    27    2
     8    36    37    1
     9    38    37    1
    10    38    39    2
    11    37    40    1
    12    27    29   am
    13    27    26    1
    14    25    24    2
    15    44    43    2
    16    41    42    1
    17    24    23    1
    18    83    81    1
    19    76    77    1
    20    81    82    1
    21    81    80    1
    22    26    23    1
    23    45    42    1
    24    45    46    1
    25    43    42    1
    26    23    22    1
    27    77    80    1
    28    77    78    1
    29    48    46    1
    30    46    47    1
    31    22    19   am
    32    78    79    2
    33    78    84   am
    34    20    19    2
    35    84    85    1
    36    19    18    1
    37    86    87    2
    38    86    85    1
    39    21    18    1
    40    85    88    1
    41    67    66    1
    42    16    14    1
    43    50    49    1
    44    50    51    1
    45    18    17    1
    46    68    66    1
    47    66    65    1
    48    51    52    2
    49    14    13    1
    50    14    15    1
    51    12    11    2
    52    17    11   am
    53    88    89    1
    54    59    58    1
    55    11    10    1
    56    13    10    1
    57    65    62    1
    58    10     9    1
    59    57    58    1
    60    57    54    1
    61    58    60    1
    62     7     6    1
    63    62    61    1
    64    62    63    1
    65    61    55   am
    66    75    73    1
    67    55    54    1
    68    55    56    2
    69    54    53    1
    70    74    73    1
    71     6     8    1
    72     6     5    1
    73    73    70    1
    74    63    64    2
    75     5     2    1
    76     2     1    1
    77     2     3    1
    78     3     4    2
    79    70    69    1
    80    70    71    1
    81    71    72    2
