@<TRIPOS>MOLECULE
tmp/3jw8B02.pdb
 108 102 0 0 0
SMALL
GASTEIGER

@<TRIPOS>ATOM
      1  N         22.7190   52.5280   20.8800 N.3    33  GLY33      -0.1210
      2  CA        21.4190   52.4820   20.1970 C.3    33  GLY33       0.1956
      3  C         20.6170   53.7590   20.2040 C.2    33  GLY33       0.2612
      4  O         21.1000   54.8440   20.6000 O.2    33  GLY33      -0.2717
      5  N         19.4300   53.6600   19.6190 N.am   34  ALA34      -0.1965
      6  CA        18.5400   54.8210   19.4320 C.3    34  ALA34       0.1728
      7  C         18.1660   55.4280   20.7680 C.2    34  ALA34       0.2617
      8  O         17.8380   54.7260   21.7440 O.2    34  ALA34      -0.2715
      9  CB        17.2370   54.4280   18.6530 C.3    34  ALA34       0.0334
     10  N         18.2060   56.7450   20.7950 N.am   35  GLY35      -0.1940
     11  CA        17.8020   57.4860   21.9660 C.3    35  GLY35       0.2014
     12  C         18.7780   57.3790   23.1550 C.2    35  GLY35       0.2638
     13  O         18.6060   58.1110   24.1350 O.2    35  GLY35      -0.2714
     14  N         19.8040   56.5290   23.1270 N.am   36  GLU36      -0.1977
     15  CA        20.7240   56.4770   24.2930 C.3    36  GLU36       0.1602
     16  C         22.0750   57.1390   23.9810 C.2    36  GLU36       0.2287
     17  O         22.1010   58.0720   23.2110 O.2    36  GLU36      -0.2864
     18  CB        20.9300   55.0420   24.8500 C.3    36  GLU36       0.0415
     19  CG        21.4740   54.0310   23.8400 C.3    36  GLU36       0.1163
     20  CD        22.0390   52.7360   24.4100 C.2    36  GLU36       0.3649
     21  OE1       21.9560   52.5770   25.6350 O.co2  36  GLU36      -0.2457
     22  OE2       22.6080   51.9140   23.6590 O.co2  36  GLU36      -0.2457
     23  N         26.3780   54.8730   28.7040 N.3    40  ARG40      -0.1245
     24  CA        25.6650   53.6380   29.1420 C.3    40  ARG40       0.1563
     25  C         26.5840   52.3890   29.0240 C.2    40  ARG40       0.2260
     26  O         26.2680   51.3360   29.5810 O.2    40  ARG40      -0.2867
     27  CB        24.3590   53.4840   28.2520 C.3    40  ARG40       0.0307
     28  CG        23.4130   54.6140   28.8240 C.3    40  ARG40       0.0489
     29  CD        21.9730   54.5660   28.7310 C.3    40  ARG40       0.2205
     30  NE        21.3410   53.2510   28.6030 N.pl3  40  ARG40      -0.0865
     31  CZ        20.7220   52.6180   29.5790 C.cat  40  ARG40       0.5346
     32  NH1       20.7010   53.1290   30.8010 N.pl3  40  ARG40       0.1354
     33  NH2       20.0950   51.4650   29.3360 N.pl3  40  ARG40       0.1354
     34  N         24.8490   47.6480   19.9440 N.3   100  HIS100     -0.1226
     35  CA        23.5920   47.1740   20.5240 C.3   100  HIS100      0.1752
     36  C         22.4290   47.8410   19.7600 C.2   100  HIS100      0.2596
     37  O         22.4590   49.0490   19.6200 O.2   100  HIS100     -0.2718
     38  CB        23.5030   47.5550   22.0380 C.3   100  HIS100      0.0759
     39  CG        22.1110   47.5190   22.6190 C.ar  100  HIS100      0.0818
     40  ND1       21.3380   46.3530   22.5650 N.ar  100  HIS100     -0.2268
     41  CD2       21.3680   48.5090   23.1860 C.ar  100  HIS100      0.1154
     42  CE1       20.1830   46.6340   23.1510 C.ar  100  HIS100      0.1986
     43  NE2       20.1310   47.9090   23.5640 N.ar  100  HIS100     -0.2212
     44  N         21.3620   47.0830   19.4070 N.am  101  SER101     -0.1952
     45  CA        20.1140   47.6300   18.8780 C.3   101  SER101      0.1924
     46  C         20.3820   48.4050   17.5560 C.2   101  SER101      0.2314
     47  O         21.0120   47.8570   16.6630 O.2   101  SER101     -0.2863
     48  CB        19.4560   48.4700   19.9760 C.3   101  SER101      0.2116
     49  OG        18.0440   48.6160   19.8530 O.3   101  SER101     -0.2180
     50  N          7.8730   54.0960   23.4070 N.3   156  ILE156     -0.1245
     51  CA         7.7050   52.6990   23.7860 C.3   156  ILE156      0.1561
     52  C          7.4280   52.5440   25.2960 C.2   156  ILE156      0.2260
     53  O          7.6700   53.4490   26.1060 O.2   156  ILE156     -0.2867
     54  CB         8.8570   51.7900   23.3100 C.3   156  ILE156      0.0252
     55  CG1        8.3820   50.2750   23.3520 C.3   156  ILE156      0.0019
     56  CG2       10.1130   52.0290   24.1750 C.3   156  ILE156      0.0019
     57  CD1        7.5860   49.6730   22.0170 C.3   156  ILE156      0.0001
     58  N         12.1490   46.9230   27.9830 N.3   161  LEU161     -0.1245
     59  CA        13.6030   46.9750   27.8130 C.3   161  LEU161      0.1561
     60  C         14.3330   45.8720   28.5700 C.2   161  LEU161      0.2260
     61  O         15.3080   45.3490   28.0860 O.2   161  LEU161     -0.2867
     62  CB        14.1300   48.3600   28.3070 C.3   161  LEU161      0.0270
     63  CG        13.6880   49.5960   27.3860 C.3   161  LEU161      0.0019
     64  CD1       14.1020   50.9140   28.0490 C.3   161  LEU161      0.0001
     65  CD2       14.3400   49.5840   25.9790 C.3   161  LEU161      0.0001
     66  N         17.2290   53.9900   33.1930 N.3   171  TYR171     -0.1241
     67  CA        16.9690   54.4210   31.8350 C.3   171  TYR171      0.1605
     68  C         15.9580   55.6130   31.8460 C.2   171  TYR171      0.2264
     69  O         16.1510   56.6370   31.1320 O.2   171  TYR171     -0.2867
     70  CB        16.4260   53.1770   31.0240 C.3   171  TYR171      0.0534
     71  CG        15.9120   53.5830   29.6790 C.ar  171  TYR171     -0.0201
     72  CD1       16.7570   53.5750   28.5550 C.ar  171  TYR171     -0.0009
     73  CD2       14.5930   54.0130   29.5170 C.ar  171  TYR171     -0.0009
     74  CE1       16.2880   53.9740   27.3090 C.ar  171  TYR171      0.0417
     75  CE2       14.1270   54.4390   28.2750 C.ar  171  TYR171      0.0417
     76  CZ        14.9830   54.4160   27.1850 C.ar  171  TYR171      0.1957
     77  OH        14.5170   54.8000   25.9660 O.3   171  TYR171     -0.2866
     78  N         17.0650   60.1580   25.1740 N.3   178  CYS178     -0.1235
     79  CA        15.8400   60.7860   24.6280 C.3   178  CYS178      0.1677
     80  C         14.7280   59.7320   24.6760 C.2   178  CYS178      0.2270
     81  O         14.8400   58.6960   24.0270 O.2   178  CYS178     -0.2867
     82  CB        16.0420   61.3060   23.2100 C.3   178  CYS178      0.0956
     83  SG        14.5230   61.9950   22.4810 S.3   178  CYS178     -0.0801
     84  N         11.3290   44.4580   20.9620 N.3   218  LEU218     -0.1245
     85  CA        11.8510   45.5500   20.1320 C.3   218  LEU218      0.1561
     86  C         12.6220   45.0590   18.9200 C.2   218  LEU218      0.2260
     87  O         12.3900   45.5540   17.8100 O.2   218  LEU218     -0.2867
     88  CB        12.7400   46.4920   21.0100 C.3   218  LEU218      0.0270
     89  CG        11.9730   47.2280   22.0690 C.3   218  LEU218      0.0019
     90  CD1       12.8820   47.9300   22.9660 C.3   218  LEU218      0.0001
     91  CD2       10.9620   48.2670   21.4230 C.3   218  LEU218      0.0001
     92  N         15.1840   43.1020   25.8470 N.3   245  HIS245     -0.1226
     93  CA        16.0700   43.7620   24.8730 C.3   245  HIS245      0.1752
     94  C         17.5070   44.1080   25.3250 C.2   245  HIS245      0.2595
     95  O         18.4660   43.7980   24.6330 O.2   245  HIS245     -0.2718
     96  CB        15.3570   45.0100   24.2910 C.3   245  HIS245      0.0759
     97  CG        16.0890   45.6690   23.1250 C.ar  245  HIS245      0.0818
     98  ND1       16.3990   44.9590   21.9570 N.ar  245  HIS245     -0.2268
     99  CD2       16.4250   46.9750   22.9500 C.ar  245  HIS245      0.1154
    100  CE1       16.9500   45.8510   21.1380 C.ar  245  HIS245      0.1986
    101  NE2       17.0100   47.0710   21.7120 N.ar  245  HIS245     -0.2212
    102  N         17.6430   44.7840   26.4640 N.am  246  VAL246     -0.1980
    103  CA        18.9590   45.3240   26.9080 C.3   246  VAL246      0.1595
    104  C         19.6860   44.2440   27.7350 C.2   246  VAL246      0.2287
    105  O         19.7340   44.3320   28.9380 O.2   246  VAL246     -0.2864
    106  CB        18.7710   46.6810   27.6760 C.3   246  VAL246      0.0276
    107  CG1       20.1200   47.4590   27.7690 C.3   246  VAL246      0.0022
    108  CG2       17.7290   47.5540   26.9520 C.3   246  VAL246      0.0022
@<TRIPOS>BOND
     1    47    46    2
     2    46    45    1
     3    87    86    2
     4     9     6    1
     5    45    44    1
     6    45    48    1
     7    86    85    1
     8    44    36   am
     9     6     5    1
    10     6     7    1
    11     5     3   am
    12    37    36    2
    13    36    35    1
    14    49    48    1
    15    34    35    1
    16    85    84    1
    17    85    88    1
    18     2     3    1
    19     2     1    1
    20     3     4    2
    21    35    38    1
    22     7    10   am
    23     7     8    2
    24    10    11    1
    25    88    89    1
    26   100   101   ar
    27   100    98   ar
    28    91    89    1
    29   101    99   ar
    30    98    97   ar
    31    11    12    1
    32    57    55    1
    33    38    39    1
    34    89    90    1
    35    83    82    1
    36    40    39   ar
    37    40    42   ar
    38    39    41   ar
    39    99    97   ar
    40    97    96    1
    41    14    12   am
    42    14    15    1
    43    42    43   ar
    44    12    13    2
    45    41    43   ar
    46    82    79    1
    47    17    16    2
    48    54    55    1
    49    54    51    1
    50    54    56    1
    51    50    51    1
    52    22    20   ar
    53    51    52    1
    54    19    20    1
    55    19    18    1
    56    16    15    1
    57    81    80    2
    58    96    93    1
    59    15    18    1
    60    20    21   ar
    61    79    80    1
    62    79    78    1
    63    95    94    2
    64    93    94    1
    65    93    92    1
    66    52    53    2
    67    94   102   am
    68    77    76    1
    69    65    63    1
    70   102   103    1
    71   103   106    1
    72   103   104    1
    73   108   106    1
    74    76    74   ar
    75    76    75   ar
    76    74    72   ar
    77    63    64    1
    78    63    62    1
    79   106   107    1
    80   104   105    2
    81    59    58    1
    82    59    62    1
    83    59    60    1
    84    61    60    2
    85    27    28    1
    86    27    24    1
    87    75    73   ar
    88    72    71   ar
    89    30    29    1
    90    30    31    2
    91    23    24    1
    92    29    28    1
    93    25    24    1
    94    25    26    2
    95    33    31    1
    96    73    71   ar
    97    31    32    1
    98    71    70    1
    99    70    67    1
   100    69    68    2
   101    67    68    1
   102    67    66    1
