@<TRIPOS>MOLECULE
tmp/3jw8A03.pdb
 88 79 0 0 0
SMALL
GASTEIGER

@<TRIPOS>ATOM
      1  N         14.1830   12.6140    2.3960 N.3   144  SER144     -0.1202
      2  CA        13.7680   11.2420    2.6790 C.3   144  SER144      0.2020
      3  C         12.5010   11.1000    3.5190 C.2   144  SER144      0.2618
      4  O         11.9350   10.0000    3.5460 O.2   144  SER144     -0.2717
      5  CB        14.9070   10.4840    3.3440 C.3   144  SER144      0.2103
      6  OG        15.3110   11.0890    4.5600 O.3   144  SER144     -0.2182
      7  N         12.0560   12.1700    4.1990 N.am  145  ALA145     -0.1979
      8  CA        10.9270   12.0690    5.1190 C.3   145  ALA145      0.1597
      9  C          9.9190   13.1980    5.0660 C.2   145  ALA145      0.2287
     10  O          9.5450   13.8050    6.0860 O.2   145  ALA145     -0.2864
     11  CB        11.4220   11.8240    6.5670 C.3   145  ALA145      0.0319
     12  N          6.3040   10.2780    2.3380 N.3   149  LYS149     -0.1231
     13  CA         7.3100    9.2460    2.6040 C.3   149  LYS149      0.1693
     14  C          7.1740    8.6680    4.0220 C.2   149  LYS149      0.2591
     15  O          7.3760    7.4840    4.1800 O.2   149  LYS149     -0.2718
     16  CB         8.7370    9.7660    2.3470 C.3   149  LYS149      0.0285
     17  CG         9.0000    9.9280    0.8400 C.3   149  LYS149      0.0035
     18  CD        10.4280   10.3310    0.5570 C.3   149  LYS149      0.0206
     19  CE        10.7500   10.4210   -0.9180 C.3   149  LYS149      0.1093
     20  NZ        12.1460   10.9230   -1.1540 N.3   149  LYS149     -0.1314
     21  N          6.7710    9.4650    5.0110 N.am  150  VAL150     -0.1980
     22  CA         6.5840    8.9800    6.3880 C.3   150  VAL150      0.1595
     23  C          5.3770    8.0030    6.4080 C.2   150  VAL150      0.2287
     24  O          5.4880    6.9390    6.9930 O.2   150  VAL150     -0.2864
     25  CB         6.4570   10.1390    7.4160 C.3   150  VAL150      0.0276
     26  CG1        5.9450    9.6220    8.7670 C.3   150  VAL150      0.0022
     27  CG2        7.8040   10.8960    7.5620 C.3   150  VAL150      0.0022
     28  N          4.2820    6.3020    3.8390 N.3   152  ALA152     -0.1231
     29  CA         4.8280    5.1680    3.0950 C.3   152  ALA152      0.1694
     30  C          5.6830    4.2430    3.9820 C.2   152  ALA152      0.2591
     31  O          5.4860    3.0240    3.9380 O.2   152  ALA152     -0.2718
     32  CB         5.6220    5.6440    1.8800 C.3   152  ALA152      0.0304
     33  N          6.5760    4.8140    4.8240 N.am  153  ALA153     -0.1980
     34  CA         7.4650    4.0250    5.7260 C.3   153  ALA153      0.1597
     35  C          6.6110    3.2650    6.7370 C.2   153  ALA153      0.2287
     36  O          6.8810    2.1020    6.9780 O.2   153  ALA153     -0.2864
     37  CB         8.4750    4.9370    6.4650 C.3   153  ALA153      0.0319
     38  N          5.0190    0.4310    4.8860 N.3   156  LEU156     -0.1245
     39  CA         6.0430   -0.6300    4.6600 C.3   156  LEU156      0.1561
     40  C          6.3610   -1.3860    5.9290 C.2   156  LEU156      0.2260
     41  O          6.6620   -2.5570    5.8900 O.2   156  LEU156     -0.2867
     42  CB         7.3550   -0.0570    4.1480 C.3   156  LEU156      0.0270
     43  CG         7.4150    0.2460    2.6670 C.3   156  LEU156      0.0019
     44  CD1        8.6450    1.0360    2.3470 C.3   156  LEU156      0.0001
     45  CD2        7.2950   -1.0580    1.8050 C.3   156  LEU156      0.0001
     46  N         16.6440   -0.6110    2.9220 N.3   165  LEU165     -0.1245
     47  CA        16.6530    0.5070    2.0080 C.3   165  LEU165      0.1561
     48  C         18.0920    0.8390    1.6470 C.2   165  LEU165      0.2260
     49  O         18.9730    0.1680    2.1110 O.2   165  LEU165     -0.2867
     50  CB        15.8650    1.7360    2.4720 C.3   165  LEU165      0.0270
     51  CG        14.4000    1.5050    2.8970 C.3   165  LEU165      0.0019
     52  CD1       13.8530    2.7320    3.5980 C.3   165  LEU165      0.0001
     53  CD2       13.5130    1.0560    1.6920 C.3   165  LEU165      0.0001
     54  N         19.5810    1.2330    5.4800 N.3   194  LEU194     -0.1245
     55  CA        18.5550    1.2730    6.5230 C.3   194  LEU194      0.1561
     56  C         17.3960    0.2260    6.4670 C.2   194  LEU194      0.2260
     57  O         16.7090    0.1620    5.4520 O.2   194  LEU194     -0.2867
     58  CB        18.0340    2.7280    6.4260 C.3   194  LEU194      0.0270
     59  CG        17.0690    3.1940    7.5130 C.3   194  LEU194      0.0019
     60  CD1       17.7690    3.2440    8.8560 C.3   194  LEU194      0.0001
     61  CD2       16.4640    4.5500    7.1610 C.3   194  LEU194      0.0001
     62  N         13.5990   -0.8090    7.2260 N.3   196  VAL196     -0.1245
     63  CA        12.4060    0.0030    7.4160 C.3   196  VAL196      0.1561
     64  C         12.0540    0.1100    8.9050 C.2   196  VAL196      0.2260
     65  O         11.7070    1.1810    9.3300 O.2   196  VAL196     -0.2867
     66  CB        11.2380   -0.6100    6.5970 C.3   196  VAL196      0.0252
     67  CG1        9.9350    0.0740    6.9790 C.3   196  VAL196      0.0019
     68  CG2       11.5210   -0.4690    5.0650 C.3   196  VAL196      0.0019
     69  N         14.1880    2.7540   10.3990 N.3   199  GLY199     -0.1210
     70  CA        13.7750    4.1020    9.9260 C.3   199  GLY199      0.1956
     71  C         12.5860    4.5850   10.7380 C.2   199  GLY199      0.2611
     72  O         12.5660    5.7460   11.1470 O.2   199  GLY199     -0.2717
     73  N         11.6550    3.6610   11.1160 N.am  200  ILE200     -0.1979
     74  CA        10.5070    3.9890   11.9960 C.3   200  ILE200      0.1595
     75  C         11.0480    4.4170   13.4060 C.2   200  ILE200      0.2287
     76  O         10.5290    5.3740   13.9810 O.2   200  ILE200     -0.2864
     77  CB         9.5300    2.7790   12.1710 C.3   200  ILE200      0.0276
     78  CG1        8.8120    2.4080   10.8270 C.3   200  ILE200      0.0022
     79  CG2        8.4330    3.0720   13.2980 C.3   200  ILE200      0.0022
     80  CD1        7.9500    3.3700   10.2960 C.3   200  ILE200      0.0001
     81  N         12.2480    7.9240   13.2550 N.3   203  LEU203     -0.1245
     82  CA        11.0830    8.8180   13.2080 C.3   203  LEU203      0.1561
     83  C         10.5020    8.9380   14.6150 C.2   203  LEU203      0.2260
     84  O         10.0870   10.0190   14.9650 O.2   203  LEU203     -0.2867
     85  CB         9.9900    8.2840   12.2150 C.3   203  LEU203      0.0270
     86  CG        10.3940    8.4380   10.7280 C.3   203  LEU203      0.0019
     87  CD1        9.3920    7.6820    9.7750 C.3   203  LEU203      0.0001
     88  CD2       10.5210    9.9720   10.3350 C.3   203  LEU203      0.0001
@<TRIPOS>BOND
     1    20    19    1
     2    19    18    1
     3    18    17    1
     4    17    16    1
     5    48    47    1
     6    48    49    2
     7    53    51    1
     8    45    43    1
     9    32    29    1
    10    47    50    1
    11    47    46    1
    12    12    13    1
    13    44    43    1
    14    16    13    1
    15     1     2    1
    16    50    51    1
    17    13    14    1
    18    43    42    1
    19     2     5    1
    20     2     3    1
    21    51    52    1
    22    29    28    1
    23    29    30    1
    24     5     6    1
    25     3     4    2
    26     3     7   am
    27    31    30    2
    28    30    33   am
    29    14    15    2
    30    14    21   am
    31    42    39    1
    32     7     8    1
    33    39    38    1
    34    39    40    1
    35    33    34    1
    36    21    22    1
    37    68    66    1
    38     9     8    1
    39     9    10    2
    40     8    11    1
    41    57    56    2
    42    54    55    1
    43    34    37    1
    44    34    35    1
    45    41    40    2
    46    22    23    1
    47    22    25    1
    48    23    24    2
    49    58    55    1
    50    58    59    1
    51    56    55    1
    52    66    67    1
    53    66    63    1
    54    35    36    2
    55    61    59    1
    56    62    63    1
    57    25    27    1
    58    25    26    1
    59    63    64    1
    60    59    60    1
    61    64    65    2
    62    87    86    1
    63    70    69    1
    64    70    71    1
    65    80    78    1
    66    88    86    1
    67    86    85    1
    68    71    73   am
    69    71    72    2
    70    78    77    1
    71    73    74    1
    72    74    77    1
    73    74    75    1
    74    77    79    1
    75    85    82    1
    76    82    81    1
    77    82    83    1
    78    75    76    2
    79    83    84    2
