@<TRIPOS>MOLECULE
tmp/3jw8A01.pdb
 75 67 0 0 0
SMALL
GASTEIGER

@<TRIPOS>ATOM
      1  N         24.2880    6.7010   14.0710 N.3    46  ALA46      -0.1245
      2  CA        23.7750    5.5240   13.3680 C.3    46  ALA46       0.1562
      3  C         24.8310    4.8660   12.5120 C.2    46  ALA46       0.2260
      4  O         25.5530    5.5510   11.7780 O.2    46  ALA46      -0.2867
      5  CB        22.5320    5.8780   12.4930 C.3    46  ALA46       0.0290
      6  N         24.7380   13.3840   15.7410 N.3   113  SER113     -0.1217
      7  CA        23.7490   12.7590   14.8450 C.3   113  SER113      0.1889
      8  C         22.6840   12.0110   15.6650 C.2   113  SER113      0.2288
      9  O         22.1360   12.6010   16.5900 O.2   113  SER113     -0.2866
     10  CB        24.5080   11.8640   13.8350 C.3   113  SER113      0.2089
     11  OG        23.8160   11.6950   12.6110 O.3   113  SER113     -0.2183
     12  N         20.4060   14.7150   15.5460 N.3   137  LEU137     -0.1245
     13  CA        19.1660   14.3350   14.8660 C.3   137  LEU137      0.1561
     14  C         18.0400   14.9710   15.6400 C.2   137  LEU137      0.2260
     15  O         17.8080   14.6540   16.8050 O.2   137  LEU137     -0.2867
     16  CB        19.0370   12.7790   14.8570 C.3   137  LEU137      0.0270
     17  CG        17.6800   12.1970   14.4510 C.3   137  LEU137      0.0019
     18  CD1       17.3310   12.6240   13.0030 C.3   137  LEU137      0.0001
     19  CD2       17.7050   10.6510   14.5770 C.3   137  LEU137      0.0001
     20  N         14.3000   14.3150    7.9220 N.3   141  ASN141     -0.1240
     21  CA        15.0250   14.8050    6.7480 C.3   141  ASN141      0.1653
     22  C         14.0340   15.3930    5.6350 C.2   141  ASN141      0.2266
     23  O         13.0260   14.7570    5.3120 O.2   141  ASN141     -0.2867
     24  CB        15.8940   13.6790    6.2200 C.3   141  ASN141      0.1155
     25  CG        16.8340   14.1190    5.1610 C.2   141  ASN141      0.2627
     26  OD1       16.4510   14.2320    3.9990 O.2   141  ASN141     -0.2716
     27  ND2       18.0770   14.3660    5.5440 N.am  141  ASN141     -0.0877
     28  N         23.3160    5.5340    2.4740 N.3   168  ILE168     -0.1245
     29  CA        23.5730    6.9470    2.1320 C.3   168  ILE168      0.1561
     30  C         24.8210    7.1120    1.2680 C.2   168  ILE168      0.2260
     31  O         25.7290    6.2650    1.2900 O.2   168  ILE168     -0.2867
     32  CB        23.6440    7.8530    3.3920 C.3   168  ILE168      0.0252
     33  CG1       24.6580    7.3550    4.4330 C.3   168  ILE168      0.0019
     34  CG2       22.2600    8.0880    4.0690 C.3   168  ILE168      0.0019
     35  CD1       25.6550    8.4270    4.7410 C.3   168  ILE168      0.0001
     36  N         19.5810    1.2330    5.4800 N.3   194  LEU194     -0.1245
     37  CA        18.5550    1.2730    6.5230 C.3   194  LEU194      0.1561
     38  C         17.3960    0.2260    6.4670 C.2   194  LEU194      0.2260
     39  O         16.7090    0.1620    5.4520 O.2   194  LEU194     -0.2867
     40  CB        18.0340    2.7280    6.4260 C.3   194  LEU194      0.0270
     41  CG        17.0690    3.1940    7.5130 C.3   194  LEU194      0.0019
     42  CD1       17.7690    3.2440    8.8560 C.3   194  LEU194      0.0001
     43  CD2       16.4640    4.5500    7.1610 C.3   194  LEU194      0.0001
     44  N         13.9020    5.7950   14.0620 N.3   202  LEU202     -0.1245
     45  CA        14.4890    7.1410   13.9150 C.3   202  LEU202      0.1561
     46  C         13.3880    8.2520   13.8720 C.2   202  LEU202      0.2260
     47  O         13.5840    9.3830   14.3520 O.2   202  LEU202     -0.2867
     48  CB        15.3570    7.2180   12.6420 C.3   202  LEU202      0.0270
     49  CG        16.6740    6.3470   12.6430 C.3   202  LEU202      0.0019
     50  CD1       17.5100    6.5880   11.2970 C.3   202  LEU202      0.0001
     51  CD2       17.5230    6.7170   13.8460 C.3   202  LEU202      0.0001
     52  N         22.0180   15.4450    5.8800 N.3   230  LEU230     -0.1231
     53  CA        21.4910   14.3730    6.7590 C.3   230  LEU230      0.1693
     54  C         20.6500   14.8940    7.9260 C.2   230  LEU230      0.2592
     55  O         19.5240   14.4110    8.1580 O.2   230  LEU230     -0.2718
     56  CB        22.6570   13.5180    7.2370 C.3   230  LEU230      0.0284
     57  CG        23.3100   12.6940    6.1300 C.3   230  LEU230      0.0019
     58  CD1       24.6030   12.1060    6.6000 C.3   230  LEU230      0.0001
     59  CD2       22.3500   11.5610    5.6760 C.3   230  LEU230      0.0001
     60  N         21.1600   15.9160    8.6240 N.am  231  CYS231     -0.1970
     61  CA        20.4640   16.5960    9.7550 C.3   231  CYS231      0.1712
     62  C         20.4410   18.0460    9.3800 C.2   231  CYS231      0.2296
     63  O         21.4210   18.7810    9.4770 O.2   231  CYS231     -0.2864
     64  CB        21.1550   16.3280   11.1080 C.3   231  CYS231      0.0983
     65  SG        20.9930   14.5930   11.6680 S.3   231  CYS231     -0.0798
     66  N         28.0380   17.0330    7.3150 N.3   257  HIS257     -0.1241
     67  CA        27.5400   16.4030    8.5480 C.3   257  HIS257      0.1621
     68  C         28.5190   16.1520    9.6780 C.2   257  HIS257      0.2264
     69  O         28.2620   16.5130   10.8250 O.2   257  HIS257     -0.2867
     70  CB        26.7230   15.1240    8.1750 C.3   257  HIS257      0.0745
     71  CG        25.9740   14.5020    9.3390 C.ar  257  HIS257      0.0817
     72  ND1       24.9920   15.2120   10.0470 N.ar  257  HIS257     -0.2268
     73  CD2       25.9870   13.2060    9.7710 C.ar  257  HIS257      0.1154
     74  CE1       24.5220   14.3610   10.9610 C.ar  257  HIS257      0.1986
     75  NE2       25.0570   13.1410   10.8200 N.ar  257  HIS257     -0.2212
@<TRIPOS>BOND
     1    30    31    2
     2    30    29    1
     3    29    28    1
     4    29    32    1
     5    32    34    1
     6    32    33    1
     7    26    25    2
     8    33    35    1
     9    25    27   am
    10    25    24    1
    11    23    22    2
    12    39    38    2
    13    36    37    1
    14    22    21    1
    15    59    57    1
    16    52    53    1
    17    57    58    1
    18    57    56    1
    19    24    21    1
    20    40    37    1
    21    40    41    1
    22    38    37    1
    23    21    20    1
    24    53    56    1
    25    53    54    1
    26    43    41    1
    27    66    67    1
    28    41    42    1
    29    54    55    2
    30    54    60   am
    31    70    67    1
    32    70    71    1
    33    67    68    1
    34    60    61    1
    35    71    73   ar
    36    71    72   ar
    37    62    63    2
    38    62    61    1
    39    68    69    2
    40    61    64    1
    41    73    75   ar
    42    72    74   ar
    43    75    74   ar
    44    64    65    1
    45    50    49    1
    46     4     3    2
    47     5     2    1
    48     3     2    1
    49    11    10    1
    50    48    49    1
    51    48    45    1
    52    49    51    1
    53    18    17    1
    54     2     1    1
    55    10     7    1
    56    46    45    1
    57    46    47    2
    58    45    44    1
    59    17    19    1
    60    17    16    1
    61     7     8    1
    62     7     6    1
    63    16    13    1
    64    13    12    1
    65    13    14    1
    66    14    15    2
    67     8     9    2
