@<TRIPOS>MOLECULE
tmp/3jwdA02.pdb
 111 110 0 0 0
SMALL
GASTEIGER

@<TRIPOS>ATOM
      1  N         28.0870   50.7710  102.1460 N.3   107  PHE107     -0.1227
      2  CA        27.9150   52.1750  102.4880 C.3   107  PHE107      0.1736
      3  C         26.5470   52.4400  103.1020 C.2   107  PHE107      0.2595
      4  O         25.5620   52.6380  102.3880 O.2   107  PHE107     -0.2718
      5  CB        28.1000   53.0230  101.2330 C.3   107  PHE107      0.0547
      6  CG        28.2600   54.4900  101.4990 C.ar  107  PHE107     -0.0202
      7  CD1       29.5080   55.0260  101.7600 C.ar  107  PHE107     -0.0042
      8  CD2       27.1670   55.3380  101.4540 C.ar  107  PHE107     -0.0042
      9  CE1       29.6630   56.3780  101.9890 C.ar  107  PHE107     -0.0003
     10  CE2       27.3140   56.6930  101.6780 C.ar  107  PHE107     -0.0003
     11  CZ        28.5640   57.2140  101.9460 C.ar  107  PHE107     -0.0000
     12  N         26.4930   52.4400  104.4310 N.am  108  GLU108     -0.1966
     13  CA        25.2620   52.7390  105.1470 C.3   108  GLU108      0.1718
     14  C         25.5580   53.6190  106.3500 C.2   108  GLU108      0.2458
     15  O         26.2860   53.2120  107.2530 O.2   108  GLU108     -0.2730
     16  CB        24.5720   51.4520  105.5930 C.3   108  GLU108      0.0428
     17  CG        23.0940   51.6200  105.8920 C.3   108  GLU108      0.1163
     18  CD        22.3970   50.2950  106.1230 C.2   108  GLU108      0.3649
     19  OE1       22.9570   49.4480  106.8480 O.co2 108  GLU108     -0.2457
     20  OE2       21.2900   50.1010  105.5790 O.co2 108  GLU108     -0.2457
     21  N         24.9890   54.8320  106.3620 N.am  109  PRO109     -0.2727
     22  CA        25.2150   55.8430  107.4000 C.3   109  PRO109      0.1402
     23  C         24.9050   55.3420  108.8080 C.2   109  PRO109      0.2269
     24  O         23.9000   54.6660  109.0300 O.2   109  PRO109     -0.2865
     25  CB        24.2420   56.9590  107.0170 C.3   109  PRO109      0.0296
     26  CG        24.0340   56.7880  105.5620 C.3   109  PRO109      0.0237
     27  CD        24.0660   55.3130  105.3230 C.3   109  PRO109      0.0939
     28  N         22.4700   60.6830  111.7370 N.3   149  ARG149     -0.1245
     29  CA        22.9510   59.9950  110.5430 C.3   149  ARG149      0.1563
     30  C         23.3450   61.0020  109.4690 C.2   149  ARG149      0.2260
     31  O         22.5570   61.8840  109.1230 O.2   149  ARG149     -0.2867
     32  CB        21.8930   59.0330  109.9960 C.3   149  ARG149      0.0307
     33  CG        21.6280   57.8230  110.8760 C.3   149  ARG149      0.0489
     34  CD        20.9050   56.7330  110.1010 C.3   149  ARG149      0.2205
     35  NE        20.7260   55.5200  110.8910 N.pl3 149  ARG149     -0.0865
     36  CZ        19.5950   55.1930  111.5090 C.cat 149  ARG149      0.5346
     37  NH1       18.5370   55.9890  111.4240 N.pl3 149  ARG149      0.1354
     38  NH2       19.5210   54.0690  112.2100 N.pl3 149  ARG149      0.1354
     39  N         23.2250   61.5220  106.4470 N.3   151  VAL151     -0.1231
     40  CA        22.5490   61.2340  105.1880 C.3   151  VAL151      0.1692
     41  C         22.6940   62.3820  104.1890 C.2   151  VAL151      0.2591
     42  O         22.1340   63.4640  104.3790 O.2   151  VAL151     -0.2718
     43  CB        21.0560   60.9170  105.4140 C.3   151  VAL151      0.0266
     44  CG1       20.3570   60.6790  104.0900 C.3   151  VAL151      0.0020
     45  CG2       20.8970   59.7070  106.3380 C.3   151  VAL151      0.0020
     46  N         23.4560   62.1280  103.1290 N.am  152  VAL152     -0.1980
     47  CA        23.6810   63.0990  102.0620 C.3   152  VAL152      0.1595
     48  C         22.6560   62.9260  100.9500 C.2   152  VAL152      0.2287
     49  O         22.5100   61.8340  100.3960 O.2   152  VAL152     -0.2864
     50  CB        25.0800   62.9380  101.4580 C.3   152  VAL152      0.0276
     51  CG1       25.2480   63.8500  100.2610 C.3   152  VAL152      0.0022
     52  CG2       26.1360   63.2270  102.5080 C.3   152  VAL152      0.0022
     53  N         16.2730   62.1450  104.7060 N.3   158  LEU158     -0.1231
     54  CA        16.0400   60.7330  104.9830 C.3   158  LEU158      0.1693
     55  C         16.6500   60.2440  106.2950 C.2   158  LEU158      0.2592
     56  O         17.7220   60.6930  106.7050 O.2   158  LEU158     -0.2718
     57  CB        16.5530   59.8850  103.8200 C.3   158  LEU158      0.0284
     58  CG        16.0330   60.2860  102.4390 C.3   158  LEU158      0.0019
     59  CD1       16.5280   59.3150  101.3870 C.3   158  LEU158      0.0001
     60  CD2       14.5150   60.3500  102.4370 C.3   158  LEU158      0.0001
     61  N         15.9510   59.3140  106.9410 N.am  159  ASN159     -0.1974
     62  CA        16.4070   58.7130  108.1920 C.3   159  ASN159      0.1688
     63  C         16.7090   59.7410  109.2800 C.2   159  ASN159      0.2292
     64  O         17.6450   59.5690  110.0610 O.2   159  ASN159     -0.2864
     65  CB        17.6400   57.8420  107.9450 C.3   159  ASN159      0.1181
     66  CG        17.4020   56.7750  106.8950 C.2   159  ASN159      0.2629
     67  OD1       16.2710   56.3360  106.6800 O.2   159  ASN159     -0.2716
     68  ND2       18.4730   56.3530  106.2330 N.am  159  ASN159     -0.0877
     69  N         20.4000   61.0380   95.9530 N.3   244  PHE244     -0.1227
     70  CA        20.6880   60.3900   97.2260 C.3   244  PHE244      0.1736
     71  C         21.5060   59.1180   97.0290 C.2   244  PHE244      0.2595
     72  O         21.3890   58.4480   96.0070 O.2   244  PHE244     -0.2718
     73  CB        19.3890   60.0370   97.9380 C.3   244  PHE244      0.0547
     74  CG        18.7080   58.8290   97.3780 C.ar  244  PHE244     -0.0202
     75  CD1       17.7890   58.9540   96.3560 C.ar  244  PHE244     -0.0042
     76  CD2       18.9890   57.5630   97.8730 C.ar  244  PHE244     -0.0042
     77  CE1       17.1580   57.8400   95.8360 C.ar  244  PHE244     -0.0003
     78  CE2       18.3620   56.4510   97.3620 C.ar  244  PHE244     -0.0003
     79  CZ        17.4460   56.5870   96.3400 C.ar  244  PHE244     -0.0000
     80  N         22.3180   58.7800   98.0240 N.am  245  ASN245     -0.1960
     81  CA        23.1330   57.5720   97.9820 C.3   245  ASN245      0.1819
     82  C         22.3870   56.3800   98.5710 C.2   245  ASN245      0.2621
     83  O         21.6220   56.5310   99.5200 O.2   245  ASN245     -0.2715
     84  CB        24.4420   57.8010   98.7400 C.3   245  ASN245      0.1195
     85  CG        25.3720   56.6120   98.6730 C.2   245  ASN245      0.2630
     86  OD1       25.0660   55.5360   99.1920 O.2   245  ASN245     -0.2716
     87  ND2       26.5250   56.8010   98.0430 N.am  245  ASN245     -0.0877
     88  N         22.6110   55.1950   98.0130 N.am  246  CYS246     -0.1968
     89  CA        21.9460   53.9880   98.4980 C.3   246  CYS246      0.1704
     90  C         22.7280   52.7190   98.1710 C.2   246  CYS246      0.2296
     91  O         22.4410   52.0330   97.1900 O.2   246  CYS246     -0.2864
     92  CB        20.5280   53.8910   97.9260 C.3   246  CYS246      0.0888
     93  SG        19.6670   52.3300   98.2580 S.3   246  CYS246     -0.1160
     94  N         16.9290   49.5840   98.9560 N.3   304  CYS304     -0.1212
     95  CA        17.1620   50.5000  100.0690 C.3   304  CYS304      0.1899
     96  C         15.8610   51.1490  100.5260 C.2   304  CYS304      0.2610
     97  O         15.2340   51.8960   99.7750 O.2   304  CYS304     -0.2717
     98  CB        18.1790   51.5770   99.6890 C.3   304  CYS304      0.1314
     99  SG        19.9030   51.0550   99.8200 S.3   304  CYS304     -0.0788
    100  N         15.4600   50.8570  101.7590 N.am  305  SER305     -0.1938
    101  CA        14.2430   51.4270  102.3250 C.3   305  SER305      0.2055
    102  C         14.5750   52.5050  103.3520 C.2   305  SER305      0.2643
    103  O         15.3110   52.2570  104.3060 O.2   305  SER305     -0.2714
    104  CB        13.3860   50.3330  102.9640 C.3   305  SER305      0.2130
    105  OG        12.2300   50.8820  103.5710 O.3   305  SER305     -0.2179
    106  N         14.0250   53.7000  103.1540 N.am  306  SER306     -0.1949
    107  CA        14.3380   54.8370  104.0100 C.3   306  SER306      0.1924
    108  C         13.0820   55.5680  104.4710 C.2   306  SER306      0.2314
    109  O         12.0120   55.4100  103.8850 O.2   306  SER306     -0.2863
    110  CB        15.2570   55.8060  103.2700 C.3   306  SER306      0.2116
    111  OG        16.3340   55.1170  102.6630 O.3   306  SER306     -0.2180
@<TRIPOS>BOND
     1    77    79   ar
     2    77    75   ar
     3    69    70    1
     4    72    71    2
     5    79    78   ar
     6    75    74   ar
     7    71    70    1
     8    71    80   am
     9    91    90    2
    10    70    73    1
    11    78    76   ar
    12    74    76   ar
    13    74    73    1
    14    92    93    1
    15    92    89    1
    16    81    80    1
    17    81    82    1
    18    81    84    1
    19    88    89    1
    20    88    82   am
    21    87    85   am
    22    90    89    1
    23    93    98    1
    24    93    99    1
    25    82    83    2
    26    85    84    1
    27    85    86    2
    28    94    95    1
    29    98    99    1
    30    98    95    1
    31    97    96    2
    32    95    96    1
    33    51    50    1
    34    49    48    2
    35    96   100   am
    36    48    47    1
    37     5     6    1
    38     5     2    1
    39    59    58    1
    40     8     6   ar
    41     8    10   ar
    42    50    47    1
    43    50    52    1
    44     6     7   ar
    45    10    11   ar
    46   100   101    1
    47     7     9   ar
    48    11     9   ar
    49    47    46    1
    50     1     2    1
    51   101   104    1
    52   101   102    1
    53     4     3    2
    54    60    58    1
    55    58    57    1
    56     2     3    1
    57   111   110    1
    58   104   105    1
    59     3    12   am
    60    46    41   am
    61   106   102   am
    62   106   107    1
    63   110   107    1
    64   102   103    2
    65    57    54    1
    66   109   108    2
    67   107   108    1
    68    44    43    1
    69    41    42    2
    70    41    40    1
    71    12    13    1
    72    53    54    1
    73    54    55    1
    74    13    16    1
    75    13    14    1
    76    40    43    1
    77    40    39    1
    78    27    26    1
    79    27    21    1
    80    43    45    1
    81    26    25    1
    82    20    18   ar
    83    16    17    1
    84    17    18    1
    85    18    19   ar
    86    68    66   am
    87    55    56    2
    88    55    61   am
    89    14    21   am
    90    14    15    2
    91    21    22    1
    92    67    66    2
    93    66    65    1
    94    61    62    1
    95    25    22    1
    96    22    23    1
    97    65    62    1
    98    62    63    1
    99    23    24    2
   100    31    30    2
   101    63    64    2
   102    30    29    1
   103    32    29    1
   104    32    33    1
   105    34    33    1
   106    34    35    1
   107    29    28    1
   108    35    36    2
   109    37    36    1
   110    36    38    1
