@<TRIPOS>MOLECULE
tmp/3jweB00.pdb
 131 120 0 0 0
SMALL
GASTEIGER

@<TRIPOS>ATOM
      1  N         23.0280   20.8460   10.8150 N.3    33  GLY33      -0.1210
      2  CA        21.7160   20.2080   10.8680 C.3    33  GLY33       0.1956
      3  C         20.9840   20.1630    9.5430 C.2    33  GLY33       0.2611
      4  O         21.4910   20.6660    8.5390 O.2    33  GLY33      -0.2717
      5  N         19.7830   19.5450    9.5360 N.am   34  ALA34      -0.1979
      6  CA        18.9180   19.3970    8.3600 C.3    34  ALA34       0.1597
      7  C         18.4300   20.7390    7.9010 C.2    34  ALA34       0.2287
      8  O         18.0210   21.5590    8.7270 O.2    34  ALA34      -0.2864
      9  CB        17.7240   18.5120    8.6830 C.3    34  ALA34       0.0319
     10  N         21.7270   19.1430   15.7830 N.3   105  SER105     -0.1202
     11  CA        20.5130   18.4820   15.2950 C.3   105  SER105      0.2020
     12  C         21.0460   17.2880   14.4740 C.2   105  SER105      0.2618
     13  O         21.8300   16.5100   15.0100 O.2   105  SER105     -0.2717
     14  CB        19.5660   19.4170   14.5380 C.3   105  SER105      0.2103
     15  OG        18.3040   18.8020   14.3370 O.3   105  SER105     -0.2182
     16  N         20.6850   17.1780   13.1830 N.am  106  MET106     -0.1979
     17  CA        21.0240   16.0260   12.3200 C.3   106  MET106      0.1605
     18  C         22.5480   15.7870   12.3760 C.2   106  MET106      0.2287
     19  O         22.9790   14.6430   12.5070 O.2   106  MET106     -0.2864
     20  CB        20.5500   16.2840   10.8740 C.3   106  MET106      0.0413
     21  CG        20.7690   15.1250    9.9200 C.3   106  MET106      0.0598
     22  SD        20.2150   15.5360    8.2660 S.3   106  MET106     -0.1393
     23  CE        21.6140   16.4360    7.7050 C.3   106  MET106      0.0692
     24  N         19.8170   15.3250   17.1860 N.3   131  LEU131     -0.1245
     25  CA        18.7160   14.4700   16.7740 C.3   131  LEU131      0.1561
     26  C         18.9820   13.0990   17.3970 C.2   131  LEU131      0.2260
     27  O         19.8640   12.3810   16.9290 O.2   131  LEU131     -0.2867
     28  CB        18.6520   14.3860   15.2320 C.3   131  LEU131      0.0270
     29  CG        17.5950   13.4510   14.6310 C.3   131  LEU131      0.0019
     30  CD1       16.2090   13.7460   15.1740 C.3   131  LEU131      0.0001
     31  CD2       17.6050   13.5260   13.1290 C.3   131  LEU131      0.0001
     32  N         16.0360   11.4930   19.5940 N.3   133  LEU133     -0.1231
     33  CA        14.7390   10.9360   19.9560 C.3   133  LEU133      0.1693
     34  C         13.6200   11.3900   19.0330 C.2   133  LEU133      0.2592
     35  O         13.5700   12.5540   18.6240 O.2   133  LEU133     -0.2718
     36  CB        14.4460   11.3520   21.4210 C.3   133  LEU133      0.0284
     37  CG        13.1120   10.9790   22.0690 C.3   133  LEU133      0.0019
     38  CD1       13.0370    9.4850   22.3680 C.3   133  LEU133      0.0001
     39  CD2       12.9050   11.7700   23.3540 C.3   133  LEU133      0.0001
     40  N         12.7090   10.4720   18.7080 N.am  134  ALA134     -0.1966
     41  CA        11.5440   10.7810   17.8770 C.3   134  ALA134      0.1728
     42  C         10.2820   10.8710   18.7480 C.2   134  ALA134      0.2616
     43  O         10.1720   10.1300   19.7340 O.2   134  ALA134     -0.2715
     44  CB        11.3670    9.6970   16.8300 C.3   134  ALA134      0.0334
     45  N          9.3300   11.7590   18.3940 N.am  135  ASN135     -0.1972
     46  CA         8.0520   11.8390   19.1030 C.3   135  ASN135      0.1688
     47  C          7.4140   10.4320   19.0040 C.2   135  ASN135      0.2292
     48  O          7.2710    9.9180   17.8910 O.2   135  ASN135     -0.2864
     49  CB         7.1360   12.8970   18.4990 C.3   135  ASN135      0.1181
     50  CG         5.7840   12.9070   19.1660 C.2   135  ASN135      0.2629
     51  OD1        5.6180   13.4180   20.2780 O.2   135  ASN135     -0.2716
     52  ND2        4.8150   12.2570   18.5460 N.am  135  ASN135     -0.0877
     53  N          5.8060   17.2580    4.5050 N.3   159  LEU159     -0.1231
     54  CA         5.0890   17.3320    5.7730 C.3   159  LEU159      0.1693
     55  C          4.5090   18.7350    6.0190 C.2   159  LEU159      0.2592
     56  O          3.6670   18.9080    6.9090 O.2   159  LEU159     -0.2718
     57  CB         6.0650   16.9450    6.8990 C.3   159  LEU159      0.0284
     58  CG         5.5070   16.4920    8.2480 C.3   159  LEU159      0.0019
     59  CD1        4.3470   15.4940    8.0930 C.3   159  LEU159      0.0001
     60  CD2        6.6210   15.9250    9.1290 C.3   159  LEU159      0.0001
     61  N          4.9340   19.7130    5.2230 N.am  160  GLY160     -0.1957
     62  CA         4.4860   21.0910    5.3830 C.3   160  GLY160      0.1869
     63  C          5.5020   21.8820    6.1830 C.2   160  GLY160      0.2309
     64  O          5.9780   21.3960    7.2120 O.2   160  GLY160     -0.2863
     65  N          7.7190   24.0380    8.7120 N.3   162  ILE162     -0.1245
     66  CA         7.6450   24.2560   10.1540 C.3   162  ILE162      0.1561
     67  C          7.5010   25.7600   10.4280 C.2   162  ILE162      0.2260
     68  O          7.8390   26.5670    9.5590 O.2   162  ILE162     -0.2867
     69  CB         8.8590   23.5850   10.8790 C.3   162  ILE162      0.0252
     70  CG1        8.4490   22.9400   12.2080 C.3   162  ILE162      0.0019
     71  CG2       10.0810   24.5060   11.0490 C.3   162  ILE162      0.0019
     72  CD1        8.1650   21.4530   12.1310 C.3   162  ILE162      0.0001
     73  N          9.4310   18.6930    5.4500 N.3   188  LEU188     -0.1245
     74  CA        10.1060   17.3840    5.4590 C.3   188  LEU188      0.1561
     75  C          9.4440   16.3970    4.4830 C.2   188  LEU188      0.2260
     76  O          8.2410   16.1740    4.5710 O.2   188  LEU188     -0.2867
     77  CB        10.0880   16.8190    6.9040 C.3   188  LEU188      0.0270
     78  CG        11.0150   15.6530    7.2600 C.3   188  LEU188      0.0019
     79  CD1       12.4700   15.9520    6.8920 C.3   188  LEU188      0.0001
     80  CD2       10.8920   15.3170    8.7360 C.3   188  LEU188      0.0001
     81  N         12.2830   11.7750    5.9730 N.3   193  GLY193     -0.1225
     82  CA        11.6530   11.5380    7.2690 C.3   193  GLY193      0.1811
     83  C         11.9320   10.1350    7.7700 C.2   193  GLY193      0.2280
     84  O         12.2490    9.9530    8.9530 O.2   193  GLY193     -0.2866
     85  N         15.7180    9.9210    8.7950 N.3   196  LEU196     -0.1231
     86  CA        15.9650   10.5350   10.1020 C.3   196  LEU196      0.1693
     87  C         15.5570    9.5990   11.2320 C.2   196  LEU196      0.2591
     88  O         16.1340    9.6580   12.3190 O.2   196  LEU196     -0.2718
     89  CB        15.2830   11.9060   10.2350 C.3   196  LEU196      0.0284
     90  CG        15.7350   13.0250    9.2780 C.3   196  LEU196      0.0019
     91  CD1       15.0840   14.3530    9.6500 C.3   196  LEU196      0.0001
     92  CD2       17.2540   13.1810    9.2630 C.3   196  LEU196      0.0001
     93  N         14.5830    8.7160   10.9660 N.am  197  LEU197     -0.1980
     94  CA        14.1590    7.7040   11.9300 C.3   197  LEU197      0.1596
     95  C         15.2010    6.5990   12.0250 C.2   197  LEU197      0.2287
     96  O         15.4240    6.0800   13.1160 O.2   197  LEU197     -0.2864
     97  CB        12.7700    7.1340   11.6160 C.3   197  LEU197      0.0297
     98  CG        11.5770    8.0430   11.9100 C.3   197  LEU197      0.0022
     99  CD1       10.3140    7.2370   11.9400 C.3   197  LEU197      0.0001
    100  CD2       11.7270    8.7650   13.2420 C.3   197  LEU197      0.0001
    101  N         17.9590    7.9490   14.2740 N.3   200  VAL200     -0.1245
    102  CA        17.4990    7.8530   15.6780 C.3   200  VAL200      0.1561
    103  C         17.6810    6.4120   16.2300 C.2   200  VAL200      0.2260
    104  O         18.1620    6.2190   17.3510 O.2   200  VAL200     -0.2867
    105  CB        16.0320    8.3920   15.8340 C.3   200  VAL200      0.0252
    106  CG1       15.4270    8.0260   17.1840 C.3   200  VAL200      0.0019
    107  CG2       15.9590    9.9070   15.6130 C.3   200  VAL200      0.0019
    108  N         11.5480   20.8370   18.5680 N.3   224  LEU224     -0.1231
    109  CA        12.0390   19.9850   17.4850 C.3   224  LEU224      0.1693
    110  C         12.7520   18.7520   18.0180 C.2   224  LEU224      0.2592
    111  O         12.4330   17.6370   17.6150 O.2   224  LEU224     -0.2718
    112  CB        12.9540   20.7910   16.5510 C.3   224  LEU224      0.0284
    113  CG        12.2470   21.8350   15.6720 C.3   224  LEU224      0.0019
    114  CD1       13.2130   22.8760   15.2060 C.3   224  LEU224      0.0001
    115  CD2       11.5670   21.1930   14.4770 C.3   224  LEU224      0.0001
    116  N         13.7160   18.9560   18.9250 N.am  225  CYS225     -0.1970
    117  CA        14.4650   17.9010   19.5980 C.3   225  CYS225      0.1712
    118  C         14.1220   18.0390   21.0810 C.2   225  CYS225      0.2296
    119  O         14.7120   18.8910   21.7540 O.2   225  CYS225     -0.2864
    120  CB        15.9660   18.0540   19.3590 C.3   225  CYS225      0.0983
    121  SG        16.4980   17.6570   17.6820 S.3   225  CYS225     -0.0798
    122  N         15.5260   25.7160   19.8110 N.3   252  HIS252     -0.1241
    123  CA        16.4010   24.7960   19.0860 C.3   252  HIS252      0.1621
    124  C         17.8230   25.2980   18.7320 C.2   252  HIS252      0.2264
    125  O         18.8070   24.6820   19.1420 O.2   252  HIS252     -0.2867
    126  CB        15.6640   24.2230   17.8530 C.3   252  HIS252      0.0745
    127  CG        16.3630   23.0710   17.1960 C.ar  252  HIS252      0.0817
    128  ND1       16.6420   21.8890   17.8910 N.ar  252  HIS252     -0.2268
    129  CD2       16.7860   22.9400   15.9200 C.ar  252  HIS252      0.1154
    130  CE1       17.2290   21.0940   17.0170 C.ar  252  HIS252      0.1986
    131  NE2       17.3450   21.6830   15.8200 N.ar  252  HIS252     -0.2212
@<TRIPOS>BOND
     1    75    76    2
     2    75    74    1
     3    53    54    1
     4    61    62    1
     5    61    55   am
     6    62    63    1
     7    73    74    1
     8    74    77    1
     9    54    55    1
    10    54    57    1
    11    81    82    1
    12    55    56    2
    13    63    64    2
    14    79    78    1
    15    57    58    1
    16    77    78    1
    17    78    80    1
    18    82    83    1
    19    23    22    1
    20    83    84    2
    21     7     6    1
    22     7     8    2
    23    59    58    1
    24    58    60    1
    25    22    21    1
    26     6     9    1
    27     6     5    1
    28     4     3    2
    29    65    66    1
    30    85    86    1
    31    92    90    1
    32    90    91    1
    33    90    89    1
    34     5     3   am
    35     3     2    1
    36    68    67    2
    37    21    20    1
    38    86    89    1
    39    86    87    1
    40    66    67    1
    41    66    69    1
    42     1     2    1
    43    20    17    1
    44    69    71    1
    45    69    70    1
    46    93    87   am
    47    93    94    1
    48    87    88    2
    49    97    98    1
    50    97    94    1
    51    98    99    1
    52    98   100    1
    53    94    95    1
    54    95    96    2
    55    72    70    1
    56    17    18    1
    57    17    16    1
    58    18    19    2
    59    31    29    1
    60    16    12   am
    61   101   102    1
    62    15    14    1
    63    12    13    2
    64    12    11    1
    65   115   113    1
    66    14    11    1
    67    29    30    1
    68    29    28    1
    69   114   113    1
    70    28    25    1
    71    11    10    1
    72   107   105    1
    73   113   112    1
    74   102   105    1
    75   102   103    1
    76   131   129   ar
    77   131   130   ar
    78   105   106    1
    79   129   127   ar
    80   103   104    2
    81   112   109    1
    82    25    24    1
    83    25    26    1
    84    44    41    1
    85    27    26    2
    86   130   128   ar
    87   127   126    1
    88   127   128   ar
    89   109   110    1
    90   109   108    1
    91   111   110    2
    92   121   120    1
    93   126   123    1
    94    41    40    1
    95    41    42    1
    96    48    47    2
    97   110   116   am
    98    45    42   am
    99    45    46    1
   100    49    46    1
   101    49    50    1
   102    52    50   am
   103    35    34    2
   104    40    34   am
   105   124   123    1
   106   124   125    2
   107    42    43    2
   108   116   117    1
   109    47    46    1
   110    34    33    1
   111   123   122    1
   112    50    51    2
   113   120   117    1
   114    32    33    1
   115   117   118    1
   116    33    36    1
   117   118   119    2
   118    36    37    1
   119    37    38    1
   120    37    39    1
