@<TRIPOS>MOLECULE
tmp/3jweB01.pdb
 155 145 0 0 0
SMALL
GASTEIGER

@<TRIPOS>ATOM
      1  N         16.0360   11.4930   19.5940 N.3   133  LEU133     -0.1231
      2  CA        14.7390   10.9360   19.9560 C.3   133  LEU133      0.1693
      3  C         13.6200   11.3900   19.0330 C.2   133  LEU133      0.2592
      4  O         13.5700   12.5540   18.6240 O.2   133  LEU133     -0.2718
      5  CB        14.4460   11.3520   21.4210 C.3   133  LEU133      0.0284
      6  CG        13.1120   10.9790   22.0690 C.3   133  LEU133      0.0019
      7  CD1       13.0370    9.4850   22.3680 C.3   133  LEU133      0.0001
      8  CD2       12.9050   11.7700   23.3540 C.3   133  LEU133      0.0001
      9  N         12.7090   10.4720   18.7080 N.am  134  ALA134     -0.1966
     10  CA        11.5440   10.7810   17.8770 C.3   134  ALA134      0.1728
     11  C         10.2820   10.8710   18.7480 C.2   134  ALA134      0.2616
     12  O         10.1720   10.1300   19.7340 O.2   134  ALA134     -0.2715
     13  CB        11.3670    9.6970   16.8300 C.3   134  ALA134      0.0334
     14  N          9.3300   11.7590   18.3940 N.am  135  ASN135     -0.1972
     15  CA         8.0520   11.8390   19.1030 C.3   135  ASN135      0.1688
     16  C          7.4140   10.4320   19.0040 C.2   135  ASN135      0.2292
     17  O          7.2710    9.9180   17.8910 O.2   135  ASN135     -0.2864
     18  CB         7.1360   12.8970   18.4990 C.3   135  ASN135      0.1181
     19  CG         5.7840   12.9070   19.1660 C.2   135  ASN135      0.2629
     20  OD1        5.6180   13.4180   20.2780 O.2   135  ASN135     -0.2716
     21  ND2        4.8150   12.2570   18.5460 N.am  135  ASN135     -0.0877
     22  N          4.2200    9.4280   16.7200 N.3   138  SER138     -0.1202
     23  CA         4.2750    9.5880   15.2720 C.3   138  SER138      0.2020
     24  C          5.1980    8.5530   14.6380 C.2   138  SER138      0.2618
     25  O          5.3940    8.5430   13.4220 O.2   138  SER138     -0.2717
     26  CB         4.7370   11.0000   14.9050 C.3   138  SER138      0.2103
     27  OG         6.0380   11.2560   15.4040 O.3   138  SER138     -0.2182
     28  N          5.7640    7.6840   15.4690 N.am  139  ALA139     -0.1979
     29  CA         6.7060    6.6700   14.9970 C.3   139  ALA139      0.1597
     30  C          6.3130    5.2280   15.4040 C.2   139  ALA139      0.2287
     31  O          7.1580    4.3310   15.4510 O.2   139  ALA139     -0.2864
     32  CB         8.1130    7.0090   15.4530 C.3   139  ALA139      0.0319
     33  N          2.2190    4.0830   12.1180 N.3   143  LYS143     -0.1231
     34  CA         2.7560    5.3180   11.5110 C.3   143  LYS143      0.1693
     35  C          3.9390    5.0420   10.5830 C.2   143  LYS143      0.2591
     36  O          4.0720    5.7100    9.5630 O.2   143  LYS143     -0.2718
     37  CB         3.1220    6.3820   12.5610 C.3   143  LYS143      0.0285
     38  CG         1.9360    6.9950   13.3000 C.3   143  LYS143      0.0035
     39  CD         1.1580    8.0330   12.4970 C.3   143  LYS143      0.0206
     40  CE        -0.0690    8.5390   13.2310 C.3   143  LYS143      0.1093
     41  NZ         0.2740    9.2650   14.4900 N.3   143  LYS143     -0.1314
     42  N          4.7670    4.0450   10.9130 N.am  144  VAL144     -0.1980
     43  CA         5.9050    3.6220   10.0920 C.3   144  VAL144      0.1595
     44  C          5.4100    2.9210    8.8190 C.2   144  VAL144      0.2287
     45  O          5.8820    3.2450    7.7190 O.2   144  VAL144     -0.2864
     46  CB         6.9380    2.7910   10.8970 C.3   144  VAL144      0.0276
     47  CG1        7.9990    2.1890    9.9850 C.3   144  VAL144      0.0022
     48  CG2        7.5930    3.6410   11.9900 C.3   144  VAL144      0.0022
     49  N          3.7190    5.6280    6.4320 N.3   147  ALA147     -0.1231
     50  CA         4.7700    6.3980    5.7600 C.3   147  ALA147      0.1694
     51  C          5.4610    5.5970    4.6670 C.2   147  ALA147      0.2591
     52  O          5.5960    6.1100    3.5560 O.2   147  ALA147     -0.2718
     53  CB         5.7900    6.8850    6.7710 C.3   147  ALA147      0.0304
     54  N          5.8790    4.3370    4.9680 N.am  148  LYS148     -0.1980
     55  CA         6.5450    3.4530    3.9920 C.3   148  LYS148      0.1596
     56  C          5.6920    3.1480    2.7520 C.2   148  LYS148      0.2287
     57  O          6.2280    3.1170    1.6420 O.2   148  LYS148     -0.2864
     58  CB         7.0700    2.1670    4.6440 C.3   148  LYS148      0.0298
     59  CG         8.3130    2.4010    5.4920 C.3   148  LYS148      0.0038
     60  CD         9.0370    1.1140    5.8260 C.3   148  LYS148      0.0206
     61  CE        10.3190    1.3880    6.5670 C.3   148  LYS148      0.1093
     62  NZ        11.1950    0.1930    6.6000 N.3   148  LYS148     -0.1314
     63  N          3.2260    5.1500    1.6750 N.3   150  LEU150     -0.1245
     64  CA         3.1550    6.4770    1.0800 C.3   150  LEU150      0.1561
     65  C          4.4180    6.7850    0.2750 C.2   150  LEU150      0.2260
     66  O          4.3220    7.3430   -0.8170 O.2   150  LEU150     -0.2867
     67  CB         2.9560    7.5090    2.1880 C.3   150  LEU150      0.0270
     68  CG         2.0610    8.6990    1.8610 C.3   150  LEU150      0.0019
     69  CD1        0.5830    8.2960    1.8380 C.3   150  LEU150      0.0001
     70  CD2        2.2640    9.7940    2.8790 C.3   150  LEU150      0.0001
     71  N          6.3810   13.7470   -1.2860 N.3   157  LEU157     -0.1231
     72  CA         5.3080   14.3480   -0.5130 C.3   157  LEU157      0.1693
     73  C          5.8940   14.8780    0.7900 C.2   157  LEU157      0.2593
     74  O          6.4940   14.1230    1.5580 O.2   157  LEU157     -0.2718
     75  CB         4.1650   13.3490   -0.2450 C.3   157  LEU157      0.0284
     76  CG         2.8880   13.9360    0.3750 C.3   157  LEU157      0.0019
     77  CD1        2.0310   14.6510   -0.6750 C.3   157  LEU157      0.0001
     78  CD2        2.0710   12.8730    1.0710 C.3   157  LEU157      0.0001
     79  N          5.7580   16.2050    0.9820 N.am  158  SER158     -0.1938
     80  CA         6.2370   16.9980    2.1100 C.3   158  SER158      0.2055
     81  C          5.2620   17.0180    3.3080 C.2   158  SER158      0.2642
     82  O          4.0590   16.8590    3.1430 O.2   158  SER158     -0.2714
     83  CB         6.5750   18.4140    1.6420 C.3   158  SER158      0.2130
     84  OG         6.6010   19.3710    2.6910 O.3   158  SER158     -0.2179
     85  N          5.8060   17.2580    4.5050 N.am  159  LEU159     -0.1977
     86  CA         5.0890   17.3320    5.7730 C.3   159  LEU159      0.1596
     87  C          4.5090   18.7350    6.0190 C.2   159  LEU159      0.2287
     88  O          3.6670   18.9080    6.9090 O.2   159  LEU159     -0.2864
     89  CB         6.0650   16.9450    6.8990 C.3   159  LEU159      0.0297
     90  CG         5.5070   16.4920    8.2480 C.3   159  LEU159      0.0022
     91  CD1        4.3470   15.4940    8.0930 C.3   159  LEU159      0.0001
     92  CD2        6.6210   15.9250    9.1290 C.3   159  LEU159      0.0001
     93  N          9.4310   18.6930    5.4500 N.3   188  LEU188     -0.1231
     94  CA        10.1060   17.3840    5.4590 C.3   188  LEU188      0.1693
     95  C          9.4440   16.3970    4.4830 C.2   188  LEU188      0.2592
     96  O          8.2410   16.1740    4.5710 O.2   188  LEU188     -0.2718
     97  CB        10.0880   16.8190    6.9040 C.3   188  LEU188      0.0284
     98  CG        11.0150   15.6530    7.2600 C.3   188  LEU188      0.0019
     99  CD1       12.4700   15.9520    6.8920 C.3   188  LEU188      0.0001
    100  CD2       10.8920   15.3170    8.7360 C.3   188  LEU188      0.0001
    101  N         10.2220   15.8180    3.5520 N.am  189  LYS189     -0.1966
    102  CA         9.6930   14.8200    2.6100 C.3   189  LYS189      0.1728
    103  C          9.6490   13.4520    3.3000 C.2   189  LYS189      0.2616
    104  O         10.4930   13.1810    4.1590 O.2   189  LYS189     -0.2715
    105  CB        10.5160   14.7640    1.3200 C.3   189  LYS189      0.0311
    106  CG        10.4170   16.0340    0.4860 C.3   189  LYS189      0.0038
    107  CD        11.5720   16.1600   -0.5030 C.3   189  LYS189      0.0206
    108  CE        11.2920   17.2020   -1.5620 C.3   189  LYS189      0.1093
    109  NZ        12.3490   17.2100   -2.6090 N.3   189  LYS189     -0.1314
    110  N          8.6480   12.6070    2.9460 N.am  190  VAL190     -0.1977
    111  CA         8.4260   11.2620    3.4990 C.3   190  VAL190      0.1596
    112  C          9.7300   10.4570    3.5340 C.2   190  VAL190      0.2287
    113  O         10.0930    9.9760    4.6060 O.2   190  VAL190     -0.2864
    114  CB         7.2730   10.4700    2.7980 C.3   190  VAL190      0.0276
    115  CG1        7.0500    9.1220    3.4730 C.3   190  VAL190      0.0022
    116  CG2        5.9640   11.2570    2.7810 C.3   190  VAL190      0.0022
    117  N         12.2830   11.7750    5.9730 N.3   193  GLY193     -0.1210
    118  CA        11.6530   11.5380    7.2690 C.3   193  GLY193      0.1956
    119  C         11.9320   10.1350    7.7700 C.2   193  GLY193      0.2611
    120  O         12.2490    9.9530    8.9530 O.2   193  GLY193     -0.2717
    121  N         11.8710    9.1380    6.8420 N.am  194  ILE194     -0.1979
    122  CA        12.2170    7.7260    7.0730 C.3   194  ILE194      0.1595
    123  C         13.7170    7.6310    7.4680 C.2   194  ILE194      0.2287
    124  O         14.0450    6.9820    8.4620 O.2   194  ILE194     -0.2864
    125  CB        11.8850    6.8860    5.8010 C.3   194  ILE194      0.0276
    126  CG1       10.3560    6.7580    5.6290 C.3   194  ILE194      0.0022
    127  CG2       12.5380    5.5020    5.8410 C.3   194  ILE194      0.0022
    128  CD1        9.8700    6.6040    4.2070 C.3   194  ILE194      0.0001
    129  N         14.5830    8.7160   10.9660 N.3   197  LEU197     -0.1245
    130  CA        14.1590    7.7040   11.9300 C.3   197  LEU197      0.1561
    131  C         15.2010    6.5990   12.0250 C.2   197  LEU197      0.2260
    132  O         15.4240    6.0800   13.1160 O.2   197  LEU197     -0.2867
    133  CB        12.7700    7.1340   11.6160 C.3   197  LEU197      0.0270
    134  CG        11.5770    8.0430   11.9100 C.3   197  LEU197      0.0019
    135  CD1       10.3140    7.2370   11.9400 C.3   197  LEU197      0.0001
    136  CD2       11.7270    8.7650   13.2420 C.3   197  LEU197      0.0001
    137  N         11.1320   22.5520   20.6560 N.3   223  ARG223     -0.1231
    138  CA         9.9430   21.8750   20.1430 C.3   223  ARG223      0.1694
    139  C         10.2560   20.9020   18.9890 C.2   223  ARG223      0.2591
    140  O          9.3510   20.2090   18.5100 O.2   223  ARG223     -0.2718
    141  CB         8.8520   22.9020   19.7660 C.3   223  ARG223      0.0321
    142  CG         8.2040   23.5690   20.9860 C.3   223  ARG223      0.0489
    143  CD         7.1330   24.5780   20.6190 C.3   223  ARG223      0.2205
    144  NE         5.9400   23.9290   20.0680 N.pl3 223  ARG223     -0.0865
    145  CZ         4.9170   24.5750   19.5100 C.cat 223  ARG223      0.5346
    146  NH1        4.9240   25.9000   19.4240 N.pl3 223  ARG223      0.1354
    147  NH2        3.8800   23.8990   19.0310 N.pl3 223  ARG223      0.1354
    148  N         11.5480   20.8370   18.5680 N.am  224  LEU224     -0.1980
    149  CA        12.0390   19.9850   17.4850 C.3   224  LEU224      0.1596
    150  C         12.7520   18.7520   18.0180 C.2   224  LEU224      0.2287
    151  O         12.4330   17.6370   17.6150 O.2   224  LEU224     -0.2864
    152  CB        12.9540   20.7910   16.5510 C.3   224  LEU224      0.0297
    153  CG        12.2470   21.8350   15.6720 C.3   224  LEU224      0.0022
    154  CD1       13.2130   22.8760   15.2060 C.3   224  LEU224      0.0001
    155  CD2       11.5670   21.1930   14.4770 C.3   224  LEU224      0.0001
@<TRIPOS>BOND
     1   109   108    1
     2   108   107    1
     3    71    72    1
     4    66    65    2
     5    77    76    1
     6    72    75    1
     7    72    73    1
     8   107   106    1
     9    75    76    1
    10    65    64    1
    11    76    78    1
    12   106   105    1
    13    73    79   am
    14    73    74    2
    15    79    80    1
    16    64    63    1
    17    64    67    1
    18   105   102    1
    19    83    80    1
    20    83    84    1
    21    57    56    2
    22    69    68    1
    23    68    67    1
    24    68    70    1
    25    80    81    1
    26   102   103    1
    27   102   101    1
    28    56    55    1
    29   116   114    1
    30   114   115    1
    31   114   111    1
    32   110   103   am
    33   110   111    1
    34    82    81    2
    35   103   104    2
    36    81    85   am
    37   111   112    1
    38   112   113    2
    39   101    95   am
    40    52    51    2
    41    55    58    1
    42    55    54    1
    43   128   126    1
    44    95    96    2
    45    95    94    1
    46    85    86    1
    47    58    59    1
    48    51    54   am
    49    51    50    1
    50    93    94    1
    51    94    97    1
    52    59    60    1
    53   126   125    1
    54    50    49    1
    55    50    53    1
    56    86    87    1
    57    86    89    1
    58   125   127    1
    59   125   122    1
    60    60    61    1
    61   117   118    1
    62    87    88    2
    63    61    62    1
    64   121   122    1
    65   121   119   am
    66    99    98    1
    67    89    90    1
    68    97    98    1
    69   122   123    1
    70    98   100    1
    71   118   119    1
    72   123   124    2
    73    45    44    2
    74   119   120    2
    75    91    90    1
    76    90    92    1
    77    44    43    1
    78    36    35    2
    79    47    46    1
    80    43    46    1
    81    43    42    1
    82    35    42   am
    83    35    34    1
    84    46    48    1
    85   129   130    1
    86    34    33    1
    87    34    37    1
    88   133   134    1
    89   133   130    1
    90   134   135    1
    91   134   136    1
    92   130   131    1
    93   131   132    2
    94    39    40    1
    95    39    38    1
    96    37    38    1
    97    40    41    1
    98    25    24    2
    99   155   153    1
   100    24    23    1
   101    24    28   am
   102    26    23    1
   103    26    27    1
   104    29    30    1
   105    29    32    1
   106    29    28    1
   107   154   153    1
   108    23    22    1
   109    30    31    2
   110   153   152    1
   111   152   149    1
   112    13    10    1
   113   149   150    1
   114   149   148    1
   115   151   150    2
   116    10     9    1
   117    10    11    1
   118    17    16    2
   119    14    11   am
   120    14    15    1
   121    18    15    1
   122    18    19    1
   123   140   139    2
   124    21    19   am
   125   148   139   am
   126     4     3    2
   127     9     3   am
   128    11    12    2
   129   139   138    1
   130    16    15    1
   131   147   145    1
   132     3     2    1
   133    19    20    2
   134   146   145    1
   135   145   144    2
   136     1     2    1
   137   141   138    1
   138   141   142    1
   139     2     5    1
   140   144   143    1
   141   138   137    1
   142   143   142    1
   143     5     6    1
   144     6     7    1
   145     6     8    1
