@<TRIPOS>MOLECULE
tmp/3jwfB01.pdb
 155 148 0 0 0
SMALL
GASTEIGER

@<TRIPOS>ATOM
      1  N         10.3410   14.8070   10.4310 N.3     9  MET9       -0.1230
      2  CA        10.5440   15.2130    9.0480 C.3     9  MET9        0.1702
      3  C          9.4190   14.5920    8.2350 C.2     9  MET9        0.2592
      4  O          9.3680   13.3710    8.0610 O.2     9  MET9       -0.2718
      5  CB        11.9260   14.7560    8.5550 C.3     9  MET9        0.0401
      6  CG        12.2130   14.9880    7.0790 C.3     9  MET9        0.0596
      7  SD        12.0030   16.6910    6.5220 S.3     9  MET9       -0.1393
      8  CE        13.5370   17.4350    7.0750 C.3     9  MET9        0.0692
      9  N          8.5030   15.4360    7.7670 N.am   10  VAL10      -0.1966
     10  CA         7.3230   14.9610    7.0520 C.3    10  VAL10       0.1727
     11  C          6.8310   15.9630    6.0100 C.2    10  VAL10       0.2616
     12  O          7.0450   17.1750    6.1430 O.2    10  VAL10      -0.2715
     13  CB         6.1700   14.5930    8.0350 C.3    10  VAL10       0.0290
     14  CG1        5.5900   15.8470    8.6990 C.3    10  VAL10       0.0023
     15  CG2        5.0760   13.7760    7.3350 C.3    10  VAL10       0.0023
     16  N          6.1910   15.4240    4.9720 N.am   11  ALA11      -0.1977
     17  CA         5.4390   16.1970    3.9930 C.3    11  ALA11       0.1597
     18  C          4.0160   15.6430    3.9240 C.2    11  ALA11       0.2287
     19  O          3.8200   14.4310    3.8300 O.2    11  ALA11      -0.2864
     20  CB         6.1010   16.1260    2.6360 C.3    11  ALA11       0.0319
     21  N          3.5650    4.0790   -1.1560 N.3    23  ASN23      -0.1225
     22  CA         4.5040    5.0690   -1.6950 C.3    23  ASN23       0.1785
     23  C          3.9690    6.5100   -1.6440 C.2    23  ASN23       0.2597
     24  O          2.8940    6.7680   -1.1050 O.2    23  ASN23      -0.2718
     25  CB         5.1060    4.6800   -3.0740 C.3    23  ASN23       0.1169
     26  CG         4.0840    4.6790   -4.2130 C.2    23  ASN23       0.2627
     27  OD1        4.1280    3.8130   -5.0900 O.2    23  ASN23      -0.2716
     28  ND2        3.1800    5.6570   -4.2200 N.am   23  ASN23      -0.0877
     29  N          4.7530    7.4390   -2.1780 N.am   24  LEU24      -0.1980
     30  CA         4.4150    8.8490   -2.1820 C.3    24  LEU24       0.1596
     31  C          3.3840    9.1600   -3.2700 C.2    24  LEU24       0.2287
     32  O          3.5580    8.7620   -4.4260 O.2    24  LEU24      -0.2864
     33  CB         5.6870    9.6860   -2.3910 C.3    24  LEU24       0.0297
     34  CG         6.5140   10.2470   -1.2200 C.3    24  LEU24       0.0022
     35  CD1        6.4790    9.4000    0.0480 C.3    24  LEU24       0.0001
     36  CD2        7.9530   10.4910   -1.6620 C.3    24  LEU24       0.0001
     37  N          2.8450   12.0270   -4.5580 N.3    26  TRP26      -0.1241
     38  CA         3.3520   13.1410   -5.3670 C.3    26  TRP26       0.1605
     39  C          4.8380   12.9680   -5.6360 C.2    26  TRP26       0.2264
     40  O          5.5490   12.3660   -4.8410 O.2    26  TRP26      -0.2867
     41  CB         3.1260   14.4790   -4.6470 C.3    26  TRP26       0.0550
     42  CG         3.6970   14.5030   -3.2390 C.ar   26  TRP26       0.0003
     43  CD1        5.0040   14.7250   -2.8840 C.ar   26  TRP26       0.0946
     44  CD2        2.9830   14.2780   -2.0090 C.ar   26  TRP26       0.0152
     45  NE1        5.1460   14.6450   -1.5190 N.ar   26  TRP26      -0.2442
     46  CE2        3.9250   14.3690   -0.9550 C.ar   26  TRP26       0.0810
     47  CE3        1.6430   13.9940   -1.6960 C.ar   26  TRP26       0.0012
     48  CZ2        3.5640   14.2010    0.3940 C.ar   26  TRP26       0.0191
     49  CZ3        1.2860   13.8300   -0.3570 C.ar   26  TRP26       0.0001
     50  CH2        2.2420   13.9360    0.6680 C.ar   26  TRP26       0.0015
     51  N         11.4840   19.2020   -3.2180 N.3    31  GLU31      -0.1231
     52  CA        11.1490   18.9290   -1.8280 C.3    31  GLU31       0.1699
     53  C         12.0870   17.8590   -1.2800 C.2    31  GLU31       0.2592
     54  O         12.5520   17.9540   -0.1440 O.2    31  GLU31      -0.2718
     55  CB         9.6920   18.4740   -1.7180 C.3    31  GLU31       0.0402
     56  CG         8.9970   18.7990   -0.3900 C.3    31  GLU31       0.1161
     57  CD         9.3100   17.8060    0.7100 C.2    31  GLU31       0.3649
     58  OE1        9.4650   16.6070    0.3950 O.co2  31  GLU31      -0.2457
     59  OE2        9.4000   18.2250    1.8900 O.co2  31  GLU31      -0.2457
     60  N         12.3800   16.8530   -2.1030 N.am   32  LEU32      -0.1980
     61  CA        13.2860   15.7680   -1.7150 C.3    32  LEU32       0.1596
     62  C         14.7150   16.2450   -1.5200 C.2    32  LEU32       0.2287
     63  O         15.4400   15.7030   -0.7000 O.2    32  LEU32      -0.2864
     64  CB        13.2520   14.6270   -2.7340 C.3    32  LEU32       0.0297
     65  CG        12.4490   13.3560   -2.4010 C.3    32  LEU32       0.0022
     66  CD1       10.9480   13.6070   -2.2750 C.3    32  LEU32       0.0001
     67  CD2       12.7170   12.2910   -3.4590 C.3    32  LEU32       0.0001
     68  N         15.5270   19.3510   -0.4920 N.3    34  TYR34      -0.1227
     69  CA        15.4670   20.0260    0.7990 C.3    34  TYR34       0.1736
     70  C         15.5380   19.0330    1.9600 C.2    34  TYR34       0.2595
     71  O         16.2130   19.2900    2.9520 O.2    34  TYR34      -0.2718
     72  CB        14.2010   20.8730    0.8940 C.3    34  TYR34       0.0548
     73  CG        13.7670   21.1960    2.3090 C.ar   34  TYR34      -0.0200
     74  CD1       14.2850   22.3070    2.9880 C.ar   34  TYR34      -0.0009
     75  CD2       12.8300   20.3920    2.9700 C.ar   34  TYR34      -0.0009
     76  CE1       13.8770   22.6090    4.2840 C.ar   34  TYR34       0.0417
     77  CE2       12.4220   20.6820    4.2650 C.ar   34  TYR34       0.0417
     78  CZ        12.9440   21.7880    4.9150 C.ar   34  TYR34       0.1957
     79  OH        12.5260   22.0660    6.1980 O.3    34  TYR34      -0.2866
     80  N         14.8280   17.9140    1.8300 N.am   35  VAL35      -0.1980
     81  CA        14.8660   16.8320    2.8110 C.3    35  VAL35       0.1595
     82  C         16.2960   16.3070    2.9990 C.2    35  VAL35       0.2287
     83  O         16.7490   16.1290    4.1310 O.2    35  VAL35      -0.2864
     84  CB        13.8970   15.6680    2.4160 C.3    35  VAL35       0.0276
     85  CG1       14.1350   14.4330    3.2580 C.3    35  VAL35       0.0022
     86  CG2       12.4580   16.1110    2.5550 C.3    35  VAL35       0.0022
     87  N          8.0460    1.8130    5.8270 N.3    50  ASN50      -0.1240
     88  CA         8.6490    2.9750    5.1860 C.3    50  ASN50       0.1653
     89  C          9.9740    2.6270    4.5120 C.2    50  ASN50       0.2266
     90  O         10.1910    2.9960    3.3590 O.2    50  ASN50      -0.2867
     91  CB         8.8320    4.1400    6.1590 C.3    50  ASN50       0.1155
     92  CG         9.2470    5.4210    5.4550 C.2    50  ASN50       0.2627
     93  OD1        8.9800    5.6030    4.2680 O.2    50  ASN50      -0.2716
     94  ND2        9.9020    6.3170    6.1850 N.am   50  ASN50      -0.0877
     95  N          9.6950    0.3650    1.2130 N.3    53  ALA53      -0.1231
     96  CA         9.2030    1.1810    0.1090 C.3    53  ALA53       0.1694
     97  C         10.3460    1.9610   -0.5410 C.2    53  ALA53       0.2591
     98  O         10.4240    2.0430   -1.7690 O.2    53  ALA53      -0.2718
     99  CB         8.1240    2.1320    0.5950 C.3    53  ALA53       0.0304
    100  N         11.2260    2.5320    0.2850 N.am   54  ILE54      -0.1980
    101  CA        12.4210    3.2240   -0.2100 C.3    54  ILE54       0.1595
    102  C         13.3580    2.2200   -0.8930 C.2    54  ILE54       0.2287
    103  O         13.8660    2.4810   -1.9880 O.2    54  ILE54      -0.2864
    104  CB        13.1690    3.9830    0.9190 C.3    54  ILE54       0.0276
    105  CG1       12.2300    4.9610    1.6300 C.3    54  ILE54       0.0022
    106  CG2       14.3750    4.7360    0.3560 C.3    54  ILE54       0.0022
    107  CD1       12.7460    5.4470    2.9660 C.3    54  ILE54       0.0001
    108  N         19.7680    5.1550    2.6900 N.3    58  LEU58      -0.1245
    109  CA        19.9860    6.5280    2.2630 C.3    58  LEU58       0.1561
    110  C         21.3650    7.0000    2.7370 C.2    58  LEU58       0.2260
    111  O         21.6770    6.9060    3.9260 O.2    58  LEU58      -0.2867
    112  CB        18.8700    7.4510    2.7720 C.3    58  LEU58       0.0270
    113  CG        17.4160    7.1380    2.3820 C.3    58  LEU58       0.0019
    114  CD1       16.4800    8.1880    2.9510 C.3    58  LEU58       0.0001
    115  CD2       17.2240    7.0370    0.8650 C.3    58  LEU58       0.0001
    116  N         23.7960    9.2130    6.2190 N.3    61  ARG61      -0.1245
    117  CA        22.9760    9.2160    7.4310 C.3    61  ARG61       0.1563
    118  C         22.8580    7.8160    8.0140 C.2    61  ARG61       0.2260
    119  O         22.8090    6.8410    7.2630 O.2    61  ARG61      -0.2867
    120  CB        21.5770    9.7350    7.1090 C.3    61  ARG61       0.0307
    121  CG        21.5040   11.2320    6.8940 C.3    61  ARG61       0.0489
    122  CD        20.4030   11.5890    5.9310 C.3    61  ARG61       0.2205
    123  NE        20.7590   11.2240    4.5640 N.pl3  61  ARG61      -0.0865
    124  CZ        19.9850   11.4260    3.5040 C.cat  61  ARG61       0.5346
    125  NH1       18.7930   11.9920    3.6370 N.pl3  61  ARG61       0.1354
    126  NH2       20.4050   11.0540    2.3050 N.pl3  61  ARG61       0.1354
    127  N         11.2820    9.8200   10.4900 N.3    99  PHE99      -0.1241
    128  CA        11.1420    9.9280    9.0440 C.3    99  PHE99       0.1605
    129  C          9.8620    9.2620    8.5210 C.2    99  PHE99       0.2264
    130  O          9.5710    9.3430    7.3280 O.2    99  PHE99      -0.2867
    131  CB        12.3840    9.3120    8.3870 C.3    99  PHE99       0.0534
    132  CG        12.7360    9.8990    7.0450 C.ar   99  PHE99      -0.0203
    133  CD1       13.3040   11.1650    6.9490 C.ar   99  PHE99      -0.0042
    134  CD2       12.5370    9.1650    5.8770 C.ar   99  PHE99      -0.0042
    135  CE1       13.6490   11.7050    5.7100 C.ar   99  PHE99      -0.0003
    136  CE2       12.8750    9.6930    4.6330 C.ar   99  PHE99      -0.0003
    137  CZ        13.4350   10.9670    4.5490 C.ar   99  PHE99      -0.0000
    138  N          5.4920    7.6720   13.2940 N.3   105  PHE105     -0.1241
    139  CA         5.1490    9.0260   13.7490 C.3   105  PHE105      0.1605
    140  C          4.3400    8.9800   15.0440 C.2   105  PHE105      0.2264
    141  O          4.6050    9.7480   15.9710 O.2   105  PHE105     -0.2867
    142  CB         4.3720    9.8130   12.6870 C.3   105  PHE105      0.0534
    143  CG         5.2110   10.2830   11.5280 C.ar  105  PHE105     -0.0203
    144  CD1        6.4700   10.8320   11.7310 C.ar  105  PHE105     -0.0042
    145  CD2        4.7220   10.2010   10.2280 C.ar  105  PHE105     -0.0042
    146  CE1        7.2330   11.2710   10.6540 C.ar  105  PHE105     -0.0003
    147  CE2        5.4750   10.6350    9.1540 C.ar  105  PHE105     -0.0003
    148  CZ         6.7300   11.1720    9.3650 C.ar  105  PHE105     -0.0000
    149  N          6.3390   19.8700    5.5890 N.3   118  THR118     -0.1218
    150  CA         5.9910   20.4390    4.3010 C.3   118  THR118      0.1862
    151  C          4.4850   20.2890    4.1040 C.2   118  THR118      0.2287
    152  O          3.9330   19.1860    4.2280 O.2   118  THR118     -0.2866
    153  CB         6.7530   19.7520    3.1510 C.3   118  THR118      0.1770
    154  OG1        8.1620   19.8200    3.4000 O.3   118  THR118     -0.2211
    155  CG2        6.4490   20.4240    1.8200 C.3   118  THR118      0.0375
@<TRIPOS>BOND
     1    39    38    1
     2    39    40    2
     3    38    41    1
     4    38    37    1
     5    27    26    2
     6    41    42    1
     7    32    31    2
     8    28    26   am
     9    26    25    1
    10    67    65    1
    11    31    30    1
    12    42    43   ar
    13    42    44   ar
    14    51    52    1
    15    25    22    1
    16    43    45   ar
    17    64    65    1
    18    64    61    1
    19    65    66    1
    20    33    30    1
    21    33    34    1
    22    30    29    1
    23    29    23   am
    24    60    61    1
    25    60    53   am
    26    44    47   ar
    27    44    46   ar
    28   103   102    2
    29    52    55    1
    30    52    53    1
    31    98    97    2
    32    55    56    1
    33    61    62    1
    34    47    49   ar
    35    22    23    1
    36    22    21    1
    37    36    34    1
    38    23    24    2
    39    62    63    2
    40    45    46   ar
    41    53    54    2
    42    34    35    1
    43    46    48   ar
    44   102   101    1
    45    97    96    1
    46    97   100   am
    47    68    69    1
    48    56    57    1
    49    49    50   ar
    50   101   100    1
    51   101   104    1
    52    96    99    1
    53    96    95    1
    54   106   104    1
    55    48    50   ar
    56    58    57   ar
    57    57    59   ar
    58    69    72    1
    59    69    70    1
    60   115   113    1
    61    72    73    1
    62   104   105    1
    63   105   107    1
    64   155   153    1
    65    80    70   am
    66    80    81    1
    67    70    71    2
    68   109   108    1
    69   109   110    1
    70   109   112    1
    71   126   124    1
    72    73    75   ar
    73    73    74   ar
    74   113   112    1
    75   113   114    1
    76    84    86    1
    77    84    81    1
    78    84    85    1
    79    20    17    1
    80   110   111    2
    81    81    82    1
    82    75    77   ar
    83    74    76   ar
    84    82    83    2
    85   153   154    1
    86   153   150    1
    87    90    89    2
    88   124   125    1
    89   124   123    2
    90    19    18    2
    91    18    17    1
    92    17    16    1
    93   151   152    2
    94   151   150    1
    95    77    78   ar
    96    93    92    2
    97    76    78   ar
    98   150   149    1
    99    89    88    1
   100   137   136   ar
   101   137   135   ar
   102   123   122    1
   103   136   134   ar
   104    78    79    1
   105    16    11   am
   106    88    87    1
   107    88    91    1
   108    92    91    1
   109    92    94   am
   110   135   133   ar
   111   134   132   ar
   112   122   121    1
   113    11    12    2
   114    11    10    1
   115   116   117    1
   116     7     8    1
   117     7     6    1
   118   121   120    1
   119   133   132   ar
   120   132   131    1
   121    10     9    1
   122    10    13    1
   123     6     5    1
   124   120   117    1
   125   119   118    2
   126   130   129    2
   127    15    13    1
   128   117   118    1
   129     9     3   am
   130    13    14    1
   131     4     3    2
   132     3     2    1
   133   131   128    1
   134   129   128    1
   135     5     2    1
   136   128   127    1
   137     2     1    1
   138   147   148   ar
   139   147   145   ar
   140   148   146   ar
   141   145   143   ar
   142   146   144   ar
   143   143   144   ar
   144   143   142    1
   145   142   139    1
   146   138   139    1
   147   139   140    1
   148   140   141    2
