@<TRIPOS>MOLECULE
tmp/3jwhA00.pdb
 174 166 0 0 0
SMALL
GASTEIGER

@<TRIPOS>ATOM
      1  N          2.9560   -3.5830  -40.4730 N.3     7  ARG7       -0.1231
      2  CA         1.7620   -3.3930  -41.2730 C.3     7  ARG7        0.1694
      3  C          0.8900   -2.3240  -40.6330 C.2     7  ARG7        0.2591
      4  O          0.5070   -1.3560  -41.2840 O.2     7  ARG7       -0.2718
      5  CB         0.9840   -4.7040  -41.4030 C.3     7  ARG7        0.0321
      6  CG        -0.0180   -4.6780  -42.5490 C.3     7  ARG7        0.0489
      7  CD        -0.7330   -6.0030  -42.7310 C.3     7  ARG7        0.2205
      8  NE         0.1870   -7.1090  -42.9560 N.pl3   7  ARG7       -0.0865
      9  CZ         0.6130   -7.9330  -42.0040 C.cat   7  ARG7        0.5346
     10  NH1        0.1950   -7.7800  -40.7560 N.pl3   7  ARG7        0.1354
     11  NH2        1.4660   -8.9050  -42.3000 N.pl3   7  ARG7        0.1354
     12  N          0.5980   -2.4880  -39.3470 N.am    8  MET8       -0.1979
     13  CA        -0.2270   -1.5160  -38.6560 C.3     8  MET8        0.1605
     14  C          0.3230   -0.0970  -38.7540 C.2     8  MET8        0.2287
     15  O         -0.4260    0.8420  -39.0400 O.2     8  MET8       -0.2864
     16  CB        -0.4090   -1.9100  -37.1950 C.3     8  MET8        0.0413
     17  CG        -1.8730   -2.1000  -36.8160 C.3     8  MET8        0.0598
     18  SD        -2.6220   -3.5250  -37.6120 S.3     8  MET8       -0.1393
     19  CE        -2.2170   -4.7790  -36.4150 C.3     8  MET8        0.0692
     20  N        -13.0390   -0.4570  -40.5910 N.3    25  ASP25      -0.1239
     21  CA       -12.1860   -1.5990  -40.8930 C.3    25  ASP25       0.1674
     22  C        -12.9960   -2.8320  -41.3170 C.2    25  ASP25       0.2266
     23  O        -13.6280   -3.4880  -40.4840 O.2    25  ASP25      -0.2867
     24  CB       -11.3370   -1.9080  -39.6680 C.3    25  ASP25       0.1410
     25  CG       -10.2650   -2.9320  -39.9470 C.2    25  ASP25       0.3668
     26  OD1       -9.7110   -2.9300  -41.0700 O.co2  25  ASP25      -0.2456
     27  OD2       -9.9640   -3.7280  -39.0310 O.co2  25  ASP25      -0.2456
     28  N        -13.5320   -6.5110  -42.2600 N.3    27  GLY27      -0.1210
     29  CA       -12.8890   -7.7870  -42.0190 C.3    27  GLY27       0.1956
     30  C        -11.9050   -7.4940  -40.9020 C.2    27  GLY27       0.2612
     31  O        -10.7330   -7.8550  -40.9660 O.2    27  GLY27      -0.2717
     32  N        -12.3980   -6.8350  -39.8630 N.am   28  CYS28      -0.1956
     33  CA       -11.5740   -6.4240  -38.7340 C.3    28  CYS28       0.1843
     34  C        -10.9610   -7.5310  -37.8690 C.2    28  CYS28       0.2626
     35  O        -10.0270   -7.2770  -37.1120 O.2    28  CYS28      -0.2714
     36  CB       -12.3730   -5.4650  -37.8530 C.3    28  CYS28       0.0997
     37  SG       -13.7120   -6.2420  -36.9480 S.3    28  CYS28      -0.0797
     38  N        -11.4810   -8.7450  -37.9700 N.am   29  GLY29      -0.1940
     39  CA       -10.9360   -9.8230  -37.1720 C.3    29  GLY29       0.2014
     40  C        -10.9390   -9.5200  -35.6830 C.2    29  GLY29       0.2639
     41  O        -11.8950   -8.9410  -35.1590 O.2    29  GLY29      -0.2714
     42  N         -9.8530   -9.8820  -35.0080 N.am   30  GLN30      -0.1963
     43  CA        -9.7360   -9.6800  -33.5660 C.3    30  GLN30       0.1733
     44  C         -9.5560   -8.2340  -33.1190 C.2    30  GLN30       0.2617
     45  O         -9.4540   -7.9730  -31.9240 O.2    30  GLN30      -0.2715
     46  CB        -8.5830  -10.5100  -33.0080 C.3    30  GLN30       0.0408
     47  CG        -8.5570  -11.9390  -33.5000 C.3    30  GLN30       0.0908
     48  CD        -7.6760  -12.8280  -32.6410 C.2    30  GLN30       0.2608
     49  OE1       -6.5790  -12.4300  -32.2310 O.2    30  GLN30      -0.2717
     50  NE2       -8.1500  -14.0400  -32.3720 N.am   30  GLN30      -0.0878
     51  N         -9.4910   -7.3020  -34.0640 N.am   31  GLY31      -0.1940
     52  CA        -9.3640   -5.9010  -33.7030 C.3    31  GLY31       0.2014
     53  C         -7.9680   -5.3600  -33.4630 C.2    31  GLY31       0.2639
     54  O         -7.7990   -4.3920  -32.7250 O.2    31  GLY31      -0.2714
     55  N         -6.9650   -5.9660  -34.0840 N.am   32  ASN32      -0.1958
     56  CA        -5.5950   -5.4980  -33.8990 C.3    32  ASN32       0.1819
     57  C         -5.4840   -4.0420  -34.3150 C.2    32  ASN32       0.2621
     58  O         -5.0360   -3.2020  -33.5380 O.2    32  ASN32      -0.2715
     59  CB        -4.6200   -6.3690  -34.6840 C.3    32  ASN32       0.1195
     60  CG        -4.4910   -7.7560  -34.0930 C.2    32  ASN32       0.2630
     61  OD1       -4.6140   -7.9330  -32.8730 O.2    32  ASN32      -0.2716
     62  ND2       -4.2260   -8.7530  -34.9440 N.am   32  ASN32      -0.0877
     63  N         -5.9240   -3.7320  -35.5320 N.am   33  LEU33      -0.1977
     64  CA        -5.8840   -2.3550  -35.9860 C.3    33  LEU33       0.1596
     65  C         -6.8930   -1.5010  -35.2050 C.2    33  LEU33       0.2287
     66  O         -6.6250   -0.3320  -34.9100 O.2    33  LEU33      -0.2864
     67  CB        -6.1720   -2.2770  -37.4850 C.3    33  LEU33       0.0297
     68  CG        -6.3710   -0.8520  -38.0010 C.3    33  LEU33       0.0022
     69  CD1       -5.0850   -0.0460  -37.8350 C.3    33  LEU33       0.0001
     70  CD2       -6.7910   -0.8930  -39.4540 C.3    33  LEU33       0.0001
     71  N        -17.0580   -7.5160  -39.3160 N.3    50  ASP50      -0.1225
     72  CA       -16.6200   -8.8850  -39.5950 C.3    50  ASP50       0.1805
     73  C        -17.8110   -9.8320  -39.6250 C.2    50  ASP50       0.2598
     74  O        -18.7860   -9.6260  -38.9110 O.2    50  ASP50      -0.2718
     75  CB       -15.6180   -9.3810  -38.5480 C.3    50  ASP50       0.1424
     76  CG       -14.6530  -10.4150  -39.1240 C.2    50  ASP50       0.3668
     77  OD1      -15.0070  -11.6080  -39.2260 O.co2  50  ASP50      -0.2456
     78  OD2      -13.5380  -10.0130  -39.5050 O.co2  50  ASP50      -0.2456
     79  N        -17.7390  -10.8790  -40.4430 N.am   51  VAL51      -0.1966
     80  CA       -18.8420  -11.8260  -40.5050 C.3    51  VAL51       0.1727
     81  C        -18.7860  -12.8220  -39.3520 C.2    51  VAL51       0.2616
     82  O        -19.7960  -13.4510  -38.9960 O.2    51  VAL51      -0.2715
     83  CB       -18.8790  -12.5770  -41.8750 C.3    51  VAL51       0.0290
     84  CG1      -17.7460  -13.5670  -41.9900 C.3    51  VAL51       0.0023
     85  CG2      -20.2420  -13.2610  -42.0550 C.3    51  VAL51       0.0023
     86  N        -17.6080  -12.9390  -38.7300 N.am   52  SER52      -0.1950
     87  CA       -17.4510  -13.8730  -37.6220 C.3    52  SER52       0.1924
     88  C        -17.7880  -13.3150  -36.2300 C.2    52  SER52       0.2314
     89  O        -17.2240  -12.3130  -35.7870 O.2    52  SER52      -0.2863
     90  CB       -16.0370  -14.4470  -37.6300 C.3    52  SER52       0.2116
     91  OG       -15.7260  -15.0130  -36.3780 O.3    52  SER52      -0.2180
     92  N        -14.7810  -13.8450  -33.7120 N.3    55  SER55      -0.1217
     93  CA       -13.7670  -12.8100  -33.8400 C.3    55  SER55       0.1889
     94  C        -14.1970  -11.4730  -33.2620 C.2    55  SER55       0.2288
     95  O        -13.3870  -10.7750  -32.6470 O.2    55  SER55      -0.2866
     96  CB       -13.3860  -12.6410  -35.3010 C.3    55  SER55       0.2089
     97  OG       -12.6480  -13.7670  -35.7350 O.3    55  SER55      -0.2183
     98  N        -21.4200   -8.6910  -40.0060 N.3    81  GLY81      -0.1210
     99  CA       -21.9690   -8.6000  -41.3460 C.3    81  GLY81       0.1956
    100  C        -20.9820   -9.0700  -42.3950 C.2    81  GLY81       0.2612
    101  O        -19.7760   -9.0300  -42.1730 O.2    81  GLY81      -0.2717
    102  N        -21.4960   -9.5310  -43.5270 N.am   82  ALA82      -0.1965
    103  CA       -20.6690   -9.9870  -44.6330 C.3    82  ALA82       0.1728
    104  C        -20.2230   -8.7700  -45.4410 C.2    82  ALA82       0.2616
    105  O        -20.9460   -7.7810  -45.5380 O.2    82  ALA82      -0.2715
    106  CB       -21.4560  -10.9320  -45.5010 C.3    82  ALA82       0.0334
    107  N        -19.0410   -8.8500  -46.0390 N.am   83  LEU83      -0.1963
    108  CA       -18.4920   -7.7260  -46.7990 C.3    83  LEU83       0.1728
    109  C        -19.0670   -7.6080  -48.1910 C.2    83  LEU83       0.2616
    110  O        -18.8980   -6.5910  -48.8620 O.2    83  LEU83      -0.2715
    111  CB       -16.9710   -7.8580  -46.9010 C.3    83  LEU83       0.0311
    112  CG       -16.2020   -7.8730  -45.5760 C.3    83  LEU83       0.0022
    113  CD1      -14.7250   -8.1550  -45.8290 C.3    83  LEU83       0.0001
    114  CD2      -16.3890   -6.5500  -44.8700 C.3    83  LEU83       0.0001
    115  N        -19.7600   -8.6480  -48.6210 N.am   84  THR84      -0.1951
    116  CA       -20.3260   -8.6690  -49.9540 C.3    84  THR84       0.1897
    117  C        -21.7330   -8.0910  -50.0210 C.2    84  THR84       0.2313
    118  O        -22.3440   -8.0610  -51.0880 O.2    84  THR84      -0.2863
    119  CB       -20.3390  -10.1030  -50.4850 C.3    84  THR84       0.1794
    120  OG1      -21.1190  -10.9200  -49.6080 O.3    84  THR84      -0.2208
    121  CG2      -18.9200  -10.6550  -50.5450 C.3    84  THR84       0.0378
    122  N         -7.4510   -5.0190  -44.4630 N.3    99  ILE99      -0.1231
    123  CA        -6.1500   -5.5710  -44.1040 C.3    99  ILE99       0.1692
    124  C         -6.0680   -7.0810  -44.0820 C.2    99  ILE99       0.2592
    125  O         -6.7100   -7.7390  -43.2590 O.2    99  ILE99      -0.2718
    126  CB        -5.7240   -5.0550  -42.7300 C.3    99  ILE99       0.0266
    127  CG1       -5.9980   -3.5580  -42.6480 C.3    99  ILE99       0.0019
    128  CG2       -4.2270   -5.3130  -42.5000 C.3    99  ILE99       0.0020
    129  CD1       -5.3030   -2.7260  -43.7270 C.3    99  ILE99       0.0001
    130  N         -5.2690   -7.6270  -44.9910 N.am  100  GLU100     -0.1966
    131  CA        -5.1000   -9.0690  -45.0780 C.3   100  GLU100      0.1733
    132  C         -6.4710   -9.7370  -45.1830 C.2   100  GLU100      0.2616
    133  O         -6.7790  -10.6920  -44.4580 O.2   100  GLU100     -0.2715
    134  CB        -4.3500   -9.5820  -43.8440 C.3   100  GLU100      0.0429
    135  CG        -3.0510   -8.8010  -43.5370 C.3   100  GLU100      0.1163
    136  CD        -2.0180   -8.8400  -44.6780 C.2   100  GLU100      0.3649
    137  OE1       -1.4990   -9.9350  -44.9950 O.co2 100  GLU100     -0.2457
    138  OE2       -1.7220   -7.7750  -45.2550 O.co2 100  GLU100     -0.2457
    139  N         -7.2920   -9.2260  -46.0950 N.am  101  VAL101     -0.1977
    140  CA        -8.6250   -9.7630  -46.2990 C.3   101  VAL101      0.1596
    141  C         -8.8400  -10.3630  -47.6790 C.2   101  VAL101      0.2287
    142  O         -9.3840  -11.4540  -47.7850 O.2   101  VAL101     -0.2864
    143  CB        -9.7170   -8.6770  -46.0600 C.3   101  VAL101      0.0276
    144  CG1      -11.0710   -9.1710  -46.5320 C.3   101  VAL101      0.0022
    145  CG2       -9.8040   -8.3440  -44.5880 C.3   101  VAL101      0.0022
    146  N         -8.4310  -14.1660  -48.7400 N.3   104  HIS104     -0.1226
    147  CA        -9.4020  -15.1550  -48.2750 C.3   104  HIS104      0.1752
    148  C        -10.7720  -15.0310  -48.9460 C.2   104  HIS104      0.2595
    149  O        -11.7730  -15.4970  -48.4090 O.2   104  HIS104     -0.2718
    150  CB        -9.5920  -15.0640  -46.7520 C.3   104  HIS104      0.0759
    151  CG        -8.3190  -14.8970  -45.9810 C.ar  104  HIS104      0.0818
    152  ND1       -7.2600  -15.7740  -46.0840 N.ar  104  HIS104     -0.2268
    153  CD2       -7.9400  -13.9540  -45.0860 C.ar  104  HIS104      0.1154
    154  CE1       -6.2840  -15.3790  -45.2850 C.ar  104  HIS104      0.1986
    155  NE2       -6.6710  -14.2760  -44.6680 N.ar  104  HIS104     -0.2212
    156  N        -10.8320  -14.3900  -50.1030 N.am  105  LEU105     -0.1980
    157  CA       -12.1030  -14.2540  -50.8110 C.3   105  LEU105      0.1596
    158  C        -12.0170  -14.9970  -52.1320 C.2   105  LEU105      0.2287
    159  O        -11.0200  -14.8840  -52.8420 O.2   105  LEU105     -0.2864
    160  CB       -12.4170  -12.7830  -51.0930 C.3   105  LEU105      0.0297
    161  CG       -12.7670  -11.8650  -49.9230 C.3   105  LEU105      0.0022
    162  CD1      -12.9820  -10.4550  -50.4420 C.3   105  LEU105      0.0001
    163  CD2      -14.0160  -12.3700  -49.2190 C.3   105  LEU105      0.0001
    164  N        -17.1480  -13.8820  -54.4390 N.3   109  ARG109     -0.1245
    165  CA       -17.2280  -12.9600  -53.3040 C.3   109  ARG109      0.1563
    166  C        -16.3510  -11.7260  -53.4920 C.2   109  ARG109      0.2260
    167  O        -16.6540  -10.6520  -52.9670 O.2   109  ARG109     -0.2867
    168  CB       -16.8170  -13.6520  -52.0060 C.3   109  ARG109      0.0307
    169  CG       -17.8760  -14.5370  -51.3820 C.3   109  ARG109      0.0489
    170  CD       -17.4600  -15.0120  -49.9980 C.3   109  ARG109      0.2205
    171  NE       -18.4540  -15.9160  -49.4370 N.pl3 109  ARG109     -0.0865
    172  CZ       -18.2940  -16.6170  -48.3190 C.cat 109  ARG109      0.5346
    173  NH1      -17.1720  -16.5260  -47.6180 N.pl3 109  ARG109      0.1354
    174  NH2      -19.2600  -17.4250  -47.9070 N.pl3 109  ARG109      0.1354
@<TRIPOS>BOND
     1   164   165    1
     2   166   165    1
     3   166   167    2
     4   165   168    1
     5   159   158    2
     6   158   157    1
     7   168   169    1
     8   169   170    1
     9   160   157    1
    10   160   161    1
    11   118   117    2
    12   157   156    1
    13   121   119    1
    14   119   116    1
    15   119   120    1
    16   162   161    1
    17   156   148   am
    18   117   116    1
    19   170   171    1
    20   116   115    1
    21   161   163    1
    22   171   172    2
    23   148   149    2
    24   148   147    1
    25   110   109    2
    26   146   147    1
    27   115   109   am
    28   172   174    1
    29   172   173    1
    30   147   150    1
    31   109   108    1
    32   142   141    2
    33   141   140    1
    34   111   108    1
    35   111   112    1
    36   108   107    1
    37   150   151    1
    38   144   143    1
    39   140   139    1
    40   140   143    1
    41   139   132   am
    42   152   151   ar
    43   152   154   ar
    44   143   145    1
    45   107   104   am
    46   151   153   ar
    47   113   112    1
    48   112   114    1
    49   105   104    2
    50   106   103    1
    51   104   103    1
    52   154   155   ar
    53   138   136   ar
    54   132   131    1
    55   132   133    2
    56   153   155   ar
    57   131   130    1
    58   131   134    1
    59   137   136   ar
    60   130   124   am
    61   136   135    1
    62   103   102    1
    63   122   123    1
    64   123   124    1
    65   123   126    1
    66   124   125    2
    67   134   135    1
    68   129   127    1
    69   102   100   am
    70     8     7    1
    71     8     9    2
    72     7     6    1
    73   126   127    1
    74   126   128    1
    75     6     5    1
    76   100   101    2
    77   100    99    1
    78    11     9    1
    79    28    29    1
    80    85    83    1
    81    29    30    1
    82     9    10    1
    83    84    83    1
    84    83    80    1
    85     5     2    1
    86    99    98    1
    87    22    21    1
    88    22    23    2
    89     4     3    2
    90     2     3    1
    91     2     1    1
    92    26    25   ar
    93    31    30    2
    94    30    32   am
    95    21    20    1
    96    21    24    1
    97     3    12   am
    98    80    79    1
    99    80    81    1
   100    79    73   am
   101    25    24    1
   102    25    27   ar
   103    32    33    1
   104    73    72    1
   105    73    74    2
   106    72    71    1
   107    72    75    1
   108    78    76   ar
   109    70    68    1
   110    81    82    2
   111    81    86   am
   112    12    13    1
   113    77    76   ar
   114    76    75    1
   115    15    14    2
   116    14    13    1
   117    33    34    1
   118    33    36    1
   119    86    87    1
   120    13    16    1
   121    68    69    1
   122    68    67    1
   123    38    34   am
   124    38    39    1
   125    34    35    2
   126    36    37    1
   127    90    87    1
   128    90    91    1
   129    87    88    1
   130    18    17    1
   131    18    19    1
   132    67    64    1
   133    16    17    1
   134    39    40    1
   135    88    89    2
   136    64    63    1
   137    64    65    1
   138    97    96    1
   139    40    41    2
   140    40    42   am
   141    63    57   am
   142    96    93    1
   143    65    66    2
   144    42    43    1
   145    62    60   am
   146    59    60    1
   147    59    56    1
   148    57    56    1
   149    57    58    2
   150    60    61    2
   151    55    56    1
   152    55    53   am
   153    51    52    1
   154    51    44   am
   155    93    92    1
   156    93    94    1
   157    52    53    1
   158    43    44    1
   159    43    46    1
   160    47    46    1
   161    47    48    1
   162    53    54    2
   163    94    95    2
   164    44    45    2
   165    48    50   am
   166    48    49    2
