@<TRIPOS>MOLECULE
tmp/3jwmB01.pdb
 153 145 0 0 0
SMALL
GASTEIGER

@<TRIPOS>ATOM
      1  N         14.6980   10.3460  -11.9700 N.3     9  MET9       -0.1230
      2  CA        15.1170   10.4830  -10.5810 C.3     9  MET9        0.1702
      3  C         14.4750    9.3340   -9.7900 C.2     9  MET9        0.2592
      4  O         13.2430    9.2900   -9.6370 O.2     9  MET9       -0.2718
      5  CB        14.6850   11.8520  -10.0530 C.3     9  MET9        0.0401
      6  CG        14.9570   12.1150   -8.5750 C.3     9  MET9        0.0596
      7  SD        16.6940   12.0680   -8.1250 S.3     9  MET9       -0.1393
      8  CE        17.2830   13.5890   -8.8510 C.3     9  MET9        0.0692
      9  N         15.2980    8.3920   -9.3270 N.am   10  VAL10      -0.1966
     10  CA        14.8070    7.2340   -8.5780 C.3    10  VAL10       0.1727
     11  C         15.7810    6.7780   -7.4830 C.2    10  VAL10       0.2616
     12  O         16.9970    6.9770   -7.5970 O.2    10  VAL10      -0.2715
     13  CB        14.4450    6.0410   -9.5250 C.3    10  VAL10       0.0290
     14  CG1       15.6740    5.5330  -10.3030 C.3    10  VAL10       0.0023
     15  CG2       13.7550    4.8950   -8.7630 C.3    10  VAL10       0.0023
     16  N         15.2170    6.1980   -6.4190 N.am   11  ALA11      -0.1977
     17  CA        15.9590    5.4370   -5.4190 C.3    11  ALA11       0.1597
     18  C         15.4520    3.9980   -5.4150 C.2    11  ALA11       0.2287
     19  O         14.2390    3.7600   -5.3710 O.2    11  ALA11      -0.2864
     20  CB        15.7870    6.0480   -4.0460 C.3    11  ALA11       0.0319
     21  N          3.8800    3.1550   -0.6760 N.3    23  ASN23      -0.1225
     22  CA         4.7570    4.0190    0.0980 C.3    23  ASN23       0.1785
     23  C          6.2140    3.6810   -0.1620 C.2    23  ASN23       0.2597
     24  O          6.5200    2.6840   -0.8180 O.2    23  ASN23      -0.2718
     25  CB         4.4500    3.9150    1.6000 C.3    23  ASN23       0.1169
     26  CG         3.3230    4.8420    2.0300 C.2    23  ASN23       0.2627
     27  OD1        2.3530    4.4130    2.6640 O.2    23  ASN23      -0.2716
     28  ND2        3.4360    6.1220    1.6750 N.am   23  ASN23      -0.0877
     29  N          7.1040    4.5360    0.3380 N.am   24  LEU24      -0.1980
     30  CA         8.5280    4.2550    0.3620 C.3    24  LEU24       0.1596
     31  C          8.8350    3.2680    1.4800 C.2    24  LEU24       0.2287
     32  O          8.3540    3.4350    2.5870 O.2    24  LEU24      -0.2864
     33  CB         9.3290    5.5430    0.5790 C.3    24  LEU24       0.0297
     34  CG         9.5690    6.4590   -0.6190 C.3    24  LEU24       0.0022
     35  CD1       10.4200    7.6360   -0.1960 C.3    24  LEU24       0.0001
     36  CD2       10.2400    5.7120   -1.7640 C.3    24  LEU24       0.0001
     37  N         11.6820    2.8630    2.9610 N.3    26  TRP26      -0.1241
     38  CA        12.7890    3.3310    3.7970 C.3    26  TRP26       0.1605
     39  C         12.6520    4.7990    4.1290 C.2    26  TRP26       0.2264
     40  O         12.0330    5.5530    3.3950 O.2    26  TRP26      -0.2867
     41  CB        14.1320    3.1010    3.1010 C.3    26  TRP26       0.0550
     42  CG        14.1830    3.6610    1.7010 C.ar   26  TRP26       0.0003
     43  CD1       14.3930    4.9650    1.3390 C.ar   26  TRP26       0.0946
     44  CD2       14.0120    2.9280    0.4820 C.ar   26  TRP26       0.0152
     45  NE1       14.3590    5.0890   -0.0290 N.ar   26  TRP26      -0.2442
     46  CE2       14.1220    3.8560   -0.5820 C.ar   26  TRP26       0.0810
     47  CE3       13.7680    1.5790    0.1840 C.ar   26  TRP26       0.0012
     48  CZ2       14.0070    3.4730   -1.9270 C.ar   26  TRP26       0.0191
     49  CZ3       13.6570    1.2000   -1.1530 C.ar   26  TRP26       0.0001
     50  CH2       13.7790    2.1450   -2.1890 C.ar   26  TRP26       0.0015
     51  N         18.9110   11.4670    1.6480 N.3    31  GLU31      -0.1231
     52  CA        18.6650   11.1370    0.2510 C.3    31  GLU31       0.1699
     53  C         17.6480   12.1080   -0.3180 C.2    31  GLU31       0.2592
     54  O         17.7710   12.5400   -1.4590 O.2    31  GLU31      -0.2718
     55  CB        18.1630    9.6950    0.1110 C.3    31  GLU31       0.0402
     56  CG        18.4500    9.0580   -1.2450 C.3    31  GLU31       0.1161
     57  CD        17.4190    9.4100   -2.3110 C.2    31  GLU31       0.3649
     58  OE1       16.2110    9.4140   -1.9860 O.co2  31  GLU31      -0.2457
     59  OE2       17.8160    9.6650   -3.4780 O.co2  31  GLU31      -0.2457
     60  N         16.6640   12.4620    0.5050 N.am   32  LEU32      -0.1980
     61  CA        15.5950   13.3820    0.1360 C.3    32  LEU32       0.1596
     62  C         16.1680   14.7600   -0.1190 C.2    32  LEU32       0.2287
     63  O         15.7470   15.4610   -1.0420 O.2    32  LEU32      -0.2864
     64  CB        14.5900   13.4730    1.2780 C.3    32  LEU32       0.0297
     65  CG        13.1420   13.0950    0.9960 C.3    32  LEU32       0.0022
     66  CD1       13.0280   11.5980    0.7150 C.3    32  LEU32       0.0001
     67  CD2       12.2840   13.4850    2.1930 C.3    32  LEU32       0.0001
     68  N         17.8770   14.8170   -3.3850 N.3    35  VAL35      -0.1231
     69  CA        16.8260   14.8690   -4.3970 C.3    35  VAL35       0.1692
     70  C         16.2830   16.2920   -4.6100 C.2    35  VAL35       0.2591
     71  O         16.0860   16.7130   -5.7560 O.2    35  VAL35      -0.2718
     72  CB        15.6760   13.8830   -4.0560 C.3    35  VAL35       0.0266
     73  CG1       14.4000   14.2050   -4.8380 C.3    35  VAL35       0.0020
     74  CG2       16.1160   12.4750   -4.3300 C.3    35  VAL35       0.0020
     75  N         16.0560   17.0220   -3.5130 N.am   36  LYS36      -0.1980
     76  CA        15.5420   18.3850   -3.5850 C.3    36  LYS36       0.1596
     77  C         16.5650   19.3130   -4.2440 C.2    36  LYS36       0.2287
     78  O         16.2240   20.1090   -5.1280 O.2    36  LYS36      -0.2864
     79  CB        15.1730   18.9060   -2.1940 C.3    36  LYS36       0.0298
     80  CG        13.9850   19.8720   -2.1920 C.3    36  LYS36       0.0038
     81  CD        14.2170   21.1040   -1.3040 C.3    36  LYS36       0.0206
     82  CE        13.7610   20.8920    0.1350 C.3    36  LYS36       0.1093
     83  NZ        14.0480   22.0880    0.9870 N.3    36  LYS36      -0.1314
     84  N          1.7470    7.9640   -7.2350 N.3    50  ASN50      -0.1240
     85  CA         2.8720    8.6170   -6.5730 C.3    50  ASN50       0.1653
     86  C          2.4320    9.9380   -5.9340 C.2    50  ASN50       0.2266
     87  O          2.6420   10.1480   -4.7360 O.2    50  ASN50      -0.2867
     88  CB         4.0460    8.8310   -7.5510 C.3    50  ASN50       0.1155
     89  CG         5.2430    9.5540   -6.9130 C.2    50  ASN50       0.2627
     90  OD1        5.3390    9.6800   -5.6960 O.2    50  ASN50      -0.2716
     91  ND2        6.1590   10.0240   -7.7470 N.am   50  ASN50      -0.0877
     92  N          0.0980   10.0810   -2.6710 N.3    53  ALA53      -0.1231
     93  CA         0.7970    9.6790   -1.4600 C.3    53  ALA53       0.1694
     94  C          1.5190   10.8770   -0.8390 C.2    53  ALA53       0.2591
     95  O          1.7560   10.9040    0.3660 O.2    53  ALA53      -0.2718
     96  CB         1.7660    8.5400   -1.7520 C.3    53  ALA53       0.0304
     97  N          1.8570   11.8630   -1.6690 N.am   54  ILE54      -0.1980
     98  CA         2.4510   13.1180   -1.1980 C.3    54  ILE54       0.1595
     99  C          1.3410   14.0680   -0.7290 C.2    54  ILE54       0.2287
    100  O          1.3470   14.5160    0.4150 O.2    54  ILE54      -0.2864
    101  CB         3.3270   13.8160   -2.2890 C.3    54  ILE54       0.0276
    102  CG1        4.4070   12.8740   -2.8300 C.3    54  ILE54       0.0022
    103  CG2        3.9620   15.1010   -1.7370 C.3    54  ILE54       0.0022
    104  CD1        4.9750   13.2960   -4.1890 C.3    54  ILE54       0.0001
    105  N          5.2540   20.1030   -4.4930 N.3    58  LEU58      -0.1245
    106  CA         6.6090   20.3480   -4.0380 C.3    58  LEU58       0.1561
    107  C          7.0440   21.7220   -4.5510 C.2    58  LEU58       0.2260
    108  O          7.0090   21.9670   -5.7550 O.2    58  LEU58      -0.2867
    109  CB         7.5480   19.2310   -4.5070 C.3    58  LEU58       0.0270
    110  CG         7.2620   17.8580   -3.8870 C.3    58  LEU58       0.0019
    111  CD1        7.9580   16.7400   -4.6430 C.3    58  LEU58       0.0001
    112  CD2        7.6530   17.8230   -2.4090 C.3    58  LEU58       0.0001
    113  N          9.2130   24.1180   -8.1260 N.3    61  ARG61      -0.1245
    114  CA         9.2220   23.2480   -9.3040 C.3    61  ARG61       0.1563
    115  C          7.8150   23.1330   -9.8900 C.2    61  ARG61       0.2260
    116  O          6.8360   23.1540   -9.1440 O.2    61  ARG61      -0.2867
    117  CB         9.6940   21.8410   -8.9120 C.3    61  ARG61       0.0307
    118  CG        11.1920   21.6840   -8.6580 C.3    61  ARG61       0.0489
    119  CD        11.4970   20.5270   -7.7100 C.3    61  ARG61       0.2205
    120  NE        11.1300   20.8450   -6.3290 N.pl3  61  ARG61      -0.0865
    121  CZ        11.3580   20.0620   -5.2720 C.cat  61  ARG61       0.5346
    122  NH1       11.9660   18.8880   -5.4060 N.pl3  61  ARG61       0.1354
    123  NH2       10.9680   20.4590   -4.0670 N.pl3  61  ARG61       0.1354
    124  N          9.8520   11.1620  -12.0760 N.3    99  PHE99      -0.1241
    125  CA         9.9560   11.1750  -10.6310 C.3    99  PHE99       0.1605
    126  C          9.2100    9.9910  -10.0090 C.2    99  PHE99       0.2264
    127  O          9.1380    9.8800   -8.7920 O.2    99  PHE99      -0.2867
    128  CB         9.4010   12.5180  -10.1260 C.3    99  PHE99       0.0534
    129  CG         9.9620   12.9670   -8.7980 C.ar   99  PHE99      -0.0203
    130  CD1       11.3180   13.2580   -8.6550 C.ar   99  PHE99      -0.0042
    131  CD2        9.1250   13.1220   -7.6940 C.ar   99  PHE99      -0.0042
    132  CE1       11.8260   13.6870   -7.4320 C.ar   99  PHE99      -0.0003
    133  CE2        9.6250   13.5460   -6.4720 C.ar   99  PHE99      -0.0003
    134  CZ        10.9830   13.8320   -6.3400 C.ar   99  PHE99      -0.0000
    135  N          7.7040    5.4010  -14.8650 N.3   105  TYR105     -0.1241
    136  CA         9.0480    5.0620  -15.3510 C.3   105  TYR105      0.1605
    137  C          8.9610    4.2340  -16.6370 C.2   105  TYR105      0.2264
    138  O          9.6330    4.5540  -17.6180 O.2   105  TYR105     -0.2867
    139  CB         9.9020    4.3050  -14.3210 C.3   105  TYR105      0.0534
    140  CG        10.3060    5.0820  -13.0870 C.ar  105  TYR105     -0.0201
    141  CD1       10.8600    6.3550  -13.1790 C.ar  105  TYR105     -0.0009
    142  CD2       10.1570    4.5150  -11.8160 C.ar  105  TYR105     -0.0009
    143  CE1       11.2270    7.0540  -12.0440 C.ar  105  TYR105      0.0417
    144  CE2       10.5270    5.2010  -10.6760 C.ar  105  TYR105      0.0417
    145  CZ        11.0610    6.4660  -10.7910 C.ar  105  TYR105      0.1957
    146  OH        11.4150    7.1460   -9.6510 O.3   105  TYR105     -0.2866
    147  N         19.7110    6.3760   -7.0360 N.3   118  THR118     -0.1218
    148  CA        20.2750    6.0320   -5.7330 C.3   118  THR118      0.1862
    149  C         20.1370    4.5300   -5.5090 C.2   118  THR118      0.2287
    150  O         19.0310    3.9800   -5.6150 O.2   118  THR118     -0.2866
    151  CB        19.6110    6.7990   -4.5660 C.3   118  THR118      0.1770
    152  OG1       19.4900    8.1920   -4.8960 O.3   118  THR118     -0.2211
    153  CG2       20.4520    6.6530   -3.2970 C.3   118  THR118      0.0375
@<TRIPOS>BOND
     1   138   137    2
     2   137   136    1
     3   136   135    1
     4   136   139    1
     5   139   140    1
     6   141   140   ar
     7   141   143   ar
     8   140   142   ar
     9   124   125    1
    10   143   145   ar
    11     1     2    1
    12   142   144   ar
    13   145   144   ar
    14   145   146    1
    15   125   128    1
    16   125   126    1
    17     2     5    1
    18     2     3    1
    19    14    13    1
    20   128   129    1
    21     5     6    1
    22   126   127    2
    23   115   114    1
    24   115   116    2
    25     3     4    2
    26     3     9   am
    27    13    15    1
    28    13    10    1
    29     9    10    1
    30   114   117    1
    31   114   113    1
    32   117   118    1
    33     8     7    1
    34   129   130   ar
    35   129   131   ar
    36   118   119    1
    37   130   132   ar
    38    10    11    1
    39     6     7    1
    40    91    89   am
    41   119   120    1
    42   131   133   ar
    43    12    11    2
    44    88    89    1
    45    88    85    1
    46    11    16   am
    47   132   134   ar
    48    84    85    1
    49   147   148    1
    50    89    90    2
    51    85    86    1
    52   133   134   ar
    53    16    17    1
    54   120   121    2
    55    86    87    2
    56    71    70    2
    57   108   107    2
    58   148   149    1
    59   148   151    1
    60   150   149    2
    61    17    18    1
    62    17    20    1
    63    18    19    2
    64   122   121    1
    65   121   123    1
    66    78    77    2
    67   152   151    1
    68    73    72    1
    69   111   110    1
    70    70    69    1
    71    70    75   am
    72   151   153    1
    73   107   106    1
    74   109   106    1
    75   109   110    1
    76   105   106    1
    77    69    72    1
    78    69    68    1
    79    74    72    1
    80    77    76    1
    81   104   102    1
    82   110   112    1
    83    76    75    1
    84    76    79    1
    85    59    57   ar
    86   102   101    1
    87    92    93    1
    88    57    58   ar
    89    57    56    1
    90   101   103    1
    91   101    98    1
    92    79    80    1
    93    80    81    1
    94    50    48   ar
    95    50    49   ar
    96    48    46   ar
    97    36    34    1
    98    96    93    1
    99    97    98    1
   100    97    94   am
   101    93    94    1
   102    54    53    2
   103    81    82    1
   104    56    55    1
   105    98    99    1
   106    49    47   ar
   107    63    62    2
   108    94    95    2
   109    24    23    2
   110    99   100    2
   111    21    22    1
   112    34    35    1
   113    34    33    1
   114    46    45   ar
   115    46    44   ar
   116    53    52    1
   117    53    60   am
   118    23    22    1
   119    23    29   am
   120    62    61    1
   121    45    43   ar
   122    22    25    1
   123    55    52    1
   124    82    83    1
   125    61    60    1
   126    61    64    1
   127    47    44   ar
   128    52    51    1
   129    29    30    1
   130    30    33    1
   131    30    31    1
   132    44    42   ar
   133    66    65    1
   134    65    64    1
   135    65    67    1
   136    43    42   ar
   137    31    32    2
   138    25    26    1
   139    28    26   am
   140    42    41    1
   141    26    27    2
   142    37    38    1
   143    41    38    1
   144    40    39    2
   145    38    39    1
