@<TRIPOS>MOLECULE
tmp/3jwoA05.pdb
 86 82 0 0 0
SMALL
GASTEIGER

@<TRIPOS>ATOM
      1  N         30.0520  105.1170   -5.3560 N.3   159  LEU159     -0.1231
      2  CA        31.1220  104.9010   -6.3230 C.3   159  LEU159      0.1693
      3  C         32.1740  105.9970   -6.2550 C.2   159  LEU159      0.2592
      4  O         31.8690  107.1400   -5.9210 O.2   159  LEU159     -0.2718
      5  CB        30.5470  104.8510   -7.7380 C.3   159  LEU159      0.0284
      6  CG        29.5640  103.7320   -8.0760 C.3   159  LEU159      0.0019
      7  CD1       28.8200  104.0600   -9.3580 C.3   159  LEU159      0.0001
      8  CD2       30.2840  102.4030   -8.1980 C.3   159  LEU159      0.0001
      9  N         33.4140  105.6440   -6.5830 N.am  160  ALA160     -0.1966
     10  CA        34.4770  106.6300   -6.7250 C.3   160  ALA160      0.1728
     11  C         34.1610  107.5370   -7.9080 C.2   160  ALA160      0.2616
     12  O         33.6230  107.0830   -8.9180 O.2   160  ALA160     -0.2715
     13  CB        35.8130  105.9450   -6.9230 C.3   160  ALA160      0.0334
     14  N         34.5030  108.8140   -7.7840 N.am  161  GLU161     -0.1963
     15  CA        34.1310  109.7950   -8.7950 C.3   161  GLU161      0.1733
     16  C         35.0760  109.7970   -9.9980 C.2   161  GLU161      0.2616
     17  O         34.7390  110.3280  -11.0570 O.2   161  GLU161     -0.2715
     18  CB        34.0310  111.1890   -8.1750 C.3   161  GLU161      0.0429
     19  CG        33.0510  111.2550   -7.0100 C.3   161  GLU161      0.1163
     20  CD        33.0190  112.6190   -6.3430 C.2   161  GLU161      0.3649
     21  OE1       33.3010  113.6260   -7.0230 O.co2 161  GLU161     -0.2457
     22  OE2       32.7060  112.6810   -5.1350 O.co2 161  GLU161     -0.2457
     23  N         36.2510  109.2010   -9.8360 N.am  162  GLU162     -0.1963
     24  CA        37.2130  109.1170  -10.9290 C.3   162  GLU162      0.1733
     25  C         37.5810  107.6740  -11.2490 C.2   162  GLU162      0.2616
     26  O         36.9050  107.0080  -12.0320 O.2   162  GLU162     -0.2715
     27  CB        38.4740  109.9160  -10.5980 C.3   162  GLU162      0.0429
     28  CG        38.2090  111.3760  -10.2870 C.3   162  GLU162      0.1163
     29  CD        39.4730  112.2130  -10.2500 C.2   162  GLU162      0.3649
     30  OE1       40.5770  111.6310  -10.2850 O.co2 162  GLU162     -0.2457
     31  OE2       39.3530  113.4540  -10.1880 O.co2 162  GLU162     -0.2457
     32  N         38.6610  107.1990  -10.6390 N.am  163  GLU163     -0.1963
     33  CA        39.1300  105.8420  -10.8690 C.3   163  GLU163      0.1733
     34  C         38.8970  104.9780   -9.6380 C.2   163  GLU163      0.2616
     35  O         38.5610  105.4880   -8.5690 O.2   163  GLU163     -0.2715
     36  CB        40.6150  105.8480  -11.2380 C.3   163  GLU163      0.0429
     37  CG        40.9680  106.8610  -12.3090 C.3   163  GLU163      0.1163
     38  CD        42.4610  107.0280  -12.4780 C.2   163  GLU163      0.3649
     39  OE1       43.1960  106.0280  -12.3410 O.co2 163  GLU163     -0.2457
     40  OE2       42.9050  108.1640  -12.7600 O.co2 163  GLU163     -0.2457
     41  N         39.0800  103.6720   -9.7960 N.am  164  VAL164     -0.1977
     42  CA        38.9050  102.7360   -8.6930 C.3   164  VAL164      0.1596
     43  C         39.8880  103.0240   -7.5620 C.2   164  VAL164      0.2287
     44  O         41.0830  103.1910   -7.7960 O.2   164  VAL164     -0.2864
     45  CB        39.0640  101.2870   -9.1640 C.3   164  VAL164      0.0276
     46  CG1       39.5140  100.3970   -8.0170 C.3   164  VAL164      0.0022
     47  CG2       37.7590  100.7850   -9.7710 C.3   164  VAL164      0.0022
     48  N         34.3060  102.5980   -9.6000 N.3   183  ASN183     -0.1225
     49  CA        33.8080  103.7910  -10.2720 C.3   183  ASN183      0.1785
     50  C         32.6480  103.4440  -11.1940 C.2   183  ASN183      0.2597
     51  O         32.1370  104.2960  -11.9220 O.2   183  ASN183     -0.2718
     52  CB        34.9260  104.4790  -11.0610 C.3   183  ASN183      0.1169
     53  CG        35.6360  103.5380  -12.0080 C.2   183  ASN183      0.2627
     54  OD1       35.0320  102.6240  -12.5710 O.2   183  ASN183     -0.2716
     55  ND2       36.9340  103.7580  -12.1890 N.am  183  ASN183     -0.0877
     56  N         32.2410  102.1790  -11.1530 N.am  184  THR184     -0.1953
     57  CA        31.1630  101.6720  -11.9890 C.3   184  THR184      0.1897
     58  C         30.5200  100.4750  -11.3060 C.2   184  THR184      0.2313
     59  O         31.1490   99.4280  -11.1580 O.2   184  THR184     -0.2863
     60  CB        31.6850  101.2250  -13.3610 C.3   184  THR184      0.1794
     61  OG1       32.3530  102.3190  -14.0070 O.3   184  THR184     -0.2208
     62  CG2       30.5370  100.7440  -14.2360 C.3   184  THR184      0.0378
     63  N         40.4600   96.3730  -13.5160 N.3   209  GLN209     -0.1245
     64  CA        40.6440   97.6860  -12.9100 C.3   209  GLN209      0.1566
     65  C         41.2640   97.5280  -11.5350 C.2   209  GLN209      0.2260
     66  O         42.3020   98.1200  -11.2440 O.2   209  GLN209     -0.2867
     67  CB        39.3070   98.4280  -12.8120 C.3   209  GLN209      0.0367
     68  CG        38.7570   98.9120  -14.1530 C.3   209  GLN209      0.0905
     69  CD        37.3450   99.4700  -14.0570 C.2   209  GLN209      0.2608
     70  OE1       36.8440   99.7670  -12.9690 O.2   209  GLN209     -0.2717
     71  NE2       36.6910   99.6100  -15.2060 N.am  209  GLN209     -0.0878
     72  N         44.8420   96.2740  -11.5850 N.3   212  SER212     -0.1202
     73  CA        45.8010   97.2880  -11.9910 C.3   212  SER212      0.2020
     74  C         46.1020   98.2530  -10.8470 C.2   212  SER212      0.2618
     75  O         47.2180   98.7520  -10.7280 O.2   212  SER212     -0.2717
     76  CB        45.3010   98.0540  -13.2170 C.3   212  SER212      0.2103
     77  OG        46.3660   98.7110  -13.8730 O.3   212  SER212     -0.2182
     78  N         45.1050   98.5020  -10.0080 N.am  213  LYS213     -0.1979
     79  CA        45.2900   99.3680   -8.8450 C.3   213  LYS213      0.1596
     80  C         46.1270   98.6780   -7.7810 C.2   213  LYS213      0.2287
     81  O         46.8650   99.3270   -7.0400 O.2   213  LYS213     -0.2864
     82  CB        43.9390   99.7850   -8.2580 C.3   213  LYS213      0.0298
     83  CG        43.2130  100.8460   -9.0670 C.3   213  LYS213      0.0038
     84  CD        43.9350  102.1780   -8.9990 C.3   213  LYS213      0.0206
     85  CE        43.3460  103.1790   -9.9820 C.3   213  LYS213      0.1093
     86  NZ        43.9300  104.5370   -9.8040 N.3   213  LYS213     -0.1314
@<TRIPOS>BOND
     1    71    69   am
     2    62    60    1
     3    68    69    1
     4    68    67    1
     5    69    70    2
     6    61    60    1
     7    77    76    1
     8    63    64    1
     9    60    57    1
    10    76    73    1
    11    64    67    1
    12    64    65    1
    13    40    38   ar
    14    54    53    2
    15    38    39   ar
    16    38    37    1
    17    37    36    1
    18    55    53   am
    19    26    25    2
    20    53    52    1
    21    73    72    1
    22    73    74    1
    23    57    58    1
    24    57    56    1
    25    51    50    2
    26    65    66    2
    27    58    59    2
    28    25    24    1
    29    25    32   am
    30    36    33    1
    31    50    56   am
    32    50    49    1
    33    52    49    1
    34    17    16    2
    35    24    27    1
    36    24    23    1
    37    33    32    1
    38    33    34    1
    39    74    75    2
    40    74    78   am
    41    27    28    1
    42    28    29    1
    43    30    29   ar
    44    49    48    1
    45    29    31   ar
    46    78    79    1
    47    16    23   am
    48    16    15    1
    49    85    86    1
    50    85    84    1
    51    41    34   am
    52    41    42    1
    53    47    45    1
    54    34    35    2
    55     7     6    1
    56    45    42    1
    57    45    46    1
    58    83    84    1
    59    83    82    1
    60    12    11    2
    61    79    82    1
    62    79    80    1
    63    15    18    1
    64    15    14    1
    65    42    43    1
    66     8     6    1
    67    18    19    1
    68     6     5    1
    69    11    14   am
    70    11    10    1
    71    44    43    2
    72    80    81    2
    73     5     2    1
    74    21    20   ar
    75    19    20    1
    76    13    10    1
    77    10     9    1
    78     9     3   am
    79    20    22   ar
    80     2     3    1
    81     2     1    1
    82     3     4    2
