@<TRIPOS>MOLECULE
tmp/3jwpA01.pdb
 152 148 0 0 0
SMALL
GASTEIGER

@<TRIPOS>ATOM
      1  N        -40.6550   19.6720   -8.4510 N.3    39  PHE39      -0.1227
      2  CA       -41.5420   20.7260   -7.9730 C.3    39  PHE39       0.1736
      3  C        -43.0170   20.3580   -8.1460 C.2    39  PHE39       0.2595
      4  O        -43.8830   21.2410   -8.2150 O.2    39  PHE39      -0.2718
      5  CB       -41.2480   22.0300   -8.7150 C.3    39  PHE39       0.0547
      6  CG       -39.8000   22.4390   -8.6870 C.ar   39  PHE39      -0.0202
      7  CD1      -39.1930   22.8100   -7.4980 C.ar   39  PHE39      -0.0042
      8  CD2      -39.0500   22.4690   -9.8510 C.ar   39  PHE39      -0.0042
      9  CE1      -37.8530   23.1960   -7.4650 C.ar   39  PHE39      -0.0003
     10  CE2      -37.7110   22.8540   -9.8300 C.ar   39  PHE39      -0.0003
     11  CZ       -37.1140   23.2190   -8.6360 C.ar   39  PHE39      -0.0000
     12  N        -43.3020   19.0600   -8.2040 N.am   40  ARG40      -0.1980
     13  CA       -44.6750   18.5670   -8.2300 C.3    40  ARG40       0.1597
     14  C        -44.8860   17.6360   -7.0220 C.2    40  ARG40       0.2287
     15  O        -44.4300   17.9520   -5.9230 O.2    40  ARG40      -0.2864
     16  CB       -44.9660   17.8780   -9.5690 C.3    40  ARG40       0.0334
     17  CG       -44.6180   18.7300  -10.7760 C.3    40  ARG40       0.0492
     18  CD       -45.1260   18.1230  -12.0690 C.3    40  ARG40       0.2205
     19  NE       -44.7460   18.9380  -13.2260 N.pl3  40  ARG40      -0.0865
     20  CZ       -45.4130   20.0060  -13.6670 C.cat  40  ARG40       0.5346
     21  NH1      -46.5210   20.4310  -13.0640 N.pl3  40  ARG40       0.1354
     22  NH2      -44.9590   20.6610  -14.7320 N.pl3  40  ARG40       0.1354
     23  N        -39.6530   18.9040   -3.7220 N.3    46  ILE46      -0.1231
     24  CA       -39.2430   19.9850   -2.8370 C.3    46  ILE46       0.1692
     25  C        -40.3460   20.3980   -1.8650 C.2    46  ILE46       0.2592
     26  O        -40.0760   21.0370   -0.8530 O.2    46  ILE46      -0.2718
     27  CB       -38.8470   21.2300   -3.6640 C.3    46  ILE46       0.0266
     28  CG1      -37.9970   22.2020   -2.8440 C.3    46  ILE46       0.0019
     29  CG2      -40.0820   21.9500   -4.1890 C.3    46  ILE46       0.0020
     30  CD1      -37.5380   23.3830   -3.6530 C.3    46  ILE46       0.0001
     31  N        -41.5910   20.0460   -2.1700 N.am   47  TRP47      -0.1976
     32  CA       -42.7130   20.4740   -1.3420 C.3    47  TRP47       0.1640
     33  C        -42.9230   19.6080   -0.1000 C.2    47  TRP47       0.2290
     34  O        -43.8650   19.8460    0.6520 O.2    47  TRP47      -0.2864
     35  CB       -43.9990   20.5640   -2.1690 C.3    47  TRP47       0.0576
     36  CG       -43.8550   21.4160   -3.3950 C.ar   47  TRP47       0.0006
     37  CD1      -44.1720   21.0650   -4.6710 C.ar   47  TRP47       0.0946
     38  CD2      -43.3320   22.7540   -3.4630 C.ar   47  TRP47       0.0152
     39  NE1      -43.8910   22.1030   -5.5300 N.ar   47  TRP47      -0.2442
     40  CE2      -43.3750   23.1490   -4.8140 C.ar   47  TRP47       0.0810
     41  CE3      -42.8430   23.6580   -2.5120 C.ar   47  TRP47       0.0012
     42  CZ2      -42.9450   24.4040   -5.2400 C.ar   47  TRP47       0.0191
     43  CZ3      -42.4100   24.9070   -2.9380 C.ar   47  TRP47       0.0001
     44  CH2      -42.4610   25.2650   -4.2890 C.ar   47  TRP47       0.0015
     45  N        -44.1860   29.8230   -0.4290 N.3    55  TYR55      -0.1227
     46  CA       -42.8240   29.8710   -0.9770 C.3    55  TYR55       0.1736
     47  C        -42.7540   29.9210   -2.5020 C.2    55  TYR55       0.2596
     48  O        -41.7100   30.2880   -3.0450 O.2    55  TYR55      -0.2718
     49  CB       -41.9840   28.6910   -0.4590 C.3    55  TYR55       0.0548
     50  CG       -41.5320   28.8530    0.9820 C.ar   55  TYR55      -0.0200
     51  CD1      -40.2210   29.2260    1.2920 C.ar   55  TYR55      -0.0009
     52  CD2      -42.4160   28.6440    2.0370 C.ar   55  TYR55      -0.0009
     53  CE1      -39.8050   29.3790    2.6180 C.ar   55  TYR55       0.0417
     54  CE2      -42.0090   28.7950    3.3680 C.ar   55  TYR55       0.0417
     55  CZ       -40.7080   29.1580    3.6490 C.ar   55  TYR55       0.1957
     56  OH       -40.3160   29.3050    4.9600 O.3    55  TYR55      -0.2866
     57  N        -43.8450   29.5690   -3.1900 N.am   56  GLY56      -0.1957
     58  CA       -43.8000   29.3790   -4.6420 C.3    56  GLY56       0.1869
     59  C        -44.7440   30.1810   -5.5260 C.2    56  GLY56       0.2309
     60  O        -44.7930   29.9310   -6.7320 O.2    56  GLY56      -0.2863
     61  N        -38.6890   32.7070   -1.2650 N.3    68  ILE68      -0.1245
     62  CA       -38.1880   31.9960   -2.4340 C.3    68  ILE68       0.1561
     63  C        -36.6670   32.0670   -2.5270 C.2    68  ILE68       0.2260
     64  O        -36.0520   31.2140   -3.1660 O.2    68  ILE68      -0.2867
     65  CB       -38.8060   32.5270   -3.7360 C.3    68  ILE68       0.0252
     66  CG1      -38.6040   31.5160   -4.8730 C.3    68  ILE68       0.0019
     67  CG2      -38.2440   33.8920   -4.0920 C.3    68  ILE68       0.0019
     68  CD1      -38.6270   32.1440   -6.2090 C.3    68  ILE68       0.0001
     69  N        -35.3960   29.3550   -0.2860 N.3    71  VAL71      -0.1231
     70  CA       -35.4850   28.1130   -1.0500 C.3    71  VAL71       0.1692
     71  C        -34.2500   27.9510   -1.9280 C.2    71  VAL71       0.2591
     72  O        -33.5170   26.9720   -1.8010 O.2    71  VAL71      -0.2718
     73  CB       -36.7490   28.0890   -1.9410 C.3    71  VAL71       0.0266
     74  CG1      -36.7740   26.8500   -2.8210 C.3    71  VAL71       0.0020
     75  CG2      -37.9940   28.1480   -1.0880 C.3    71  VAL71       0.0020
     76  N        -34.0120   28.9320   -2.7950 N.am   72  ILE72      -0.1980
     77  CA       -32.8960   28.8820   -3.7470 C.3    72  ILE72       0.1595
     78  C        -31.5590   28.7780   -3.0280 C.2    72  ILE72       0.2287
     79  O        -30.6930   28.0000   -3.4200 O.2    72  ILE72      -0.2864
     80  CB       -32.8720   30.1260   -4.6610 C.3    72  ILE72       0.0276
     81  CG1      -34.0810   30.1270   -5.5960 C.3    72  ILE72       0.0022
     82  CG2      -31.5940   30.1680   -5.4780 C.3    72  ILE72       0.0022
     83  CD1      -34.3760   31.4710   -6.1920 C.3    72  ILE72       0.0001
     84  N        -31.1020   25.1330   -1.3970 N.3    75  ILE75      -0.1245
     85  CA       -30.8190   24.1170   -2.4150 C.3    75  ILE75       0.1561
     86  C        -29.3870   24.2420   -2.9510 C.2    75  ILE75       0.2260
     87  O        -28.6310   23.2630   -2.9820 O.2    75  ILE75      -0.2867
     88  CB       -31.8110   24.2080   -3.6080 C.3    75  ILE75       0.0252
     89  CG1      -33.2180   23.7890   -3.1750 C.3    75  ILE75       0.0019
     90  CG2      -31.3490   23.3240   -4.7710 C.3    75  ILE75       0.0019
     91  CD1      -34.2650   23.9300   -4.2750 C.3    75  ILE75       0.0001
     92  N        -34.8280   25.1020  -14.0570 N.3   107  VAL107     -0.1245
     93  CA       -34.3350   26.4300  -13.7050 C.3   107  VAL107      0.1561
     94  C        -32.8870   26.3810  -13.2140 C.2   107  VAL107      0.2260
     95  O        -32.3820   27.3700  -12.6870 O.2   107  VAL107     -0.2867
     96  CB       -35.2060   27.0410  -12.5900 C.3   107  VAL107      0.0252
     97  CG1      -36.6580   27.1320  -13.0440 C.3   107  VAL107      0.0019
     98  CG2      -35.0910   26.2130  -11.3080 C.3   107  VAL107      0.0019
     99  N        -39.1950   28.1170  -18.0580 N.3   123  HIS123     -0.1241
    100  CA       -39.5520   28.5650  -16.7140 C.3   123  HIS123      0.1621
    101  C        -38.4810   29.4710  -16.1500 C.2   123  HIS123      0.2264
    102  O        -38.3160   29.5820  -14.9380 O.2   123  HIS123     -0.2867
    103  CB       -39.7630   27.3580  -15.8000 C.3   123  HIS123      0.0745
    104  CG       -41.0170   26.6010  -16.0970 C.ar  123  HIS123      0.0817
    105  ND1      -41.5800   25.7190  -15.2030 N.ar  123  HIS123     -0.2268
    106  CD2      -41.8280   26.6110  -17.1800 C.ar  123  HIS123      0.1154
    107  CE1      -42.6780   25.2070  -15.7320 C.ar  123  HIS123      0.1986
    108  NE2      -42.8510   25.7340  -16.9300 N.ar  123  HIS123     -0.2212
    109  N        -37.4810   33.3570  -12.4550 N.3   167  ILE167     -0.1231
    110  CA       -38.0730   32.0490  -12.7170 C.3   167  ILE167      0.1692
    111  C        -39.5810   32.1660  -12.6030 C.2   167  ILE167      0.2592
    112  O        -40.0710   33.0100  -11.8660 O.2   167  ILE167     -0.2718
    113  CB       -37.5410   30.9620  -11.7560 C.3   167  ILE167      0.0266
    114  CG1      -37.8350   31.3050  -10.2980 C.3   167  ILE167      0.0019
    115  CG2      -36.0530   30.8050  -11.9260 C.3   167  ILE167      0.0020
    116  CD1      -37.6640   30.1320   -9.3650 C.3   167  ILE167      0.0001
    117  N        -40.3080   31.3380  -13.3450 N.am  168  ILE168     -0.1966
    118  CA       -41.7730   31.3950  -13.3480 C.3   168  ILE168      0.1727
    119  C        -42.3370   30.7760  -12.0650 C.2   168  ILE168      0.2616
    120  O        -42.0220   29.6340  -11.7290 O.2   168  ILE168     -0.2715
    121  CB       -42.3800   30.6960  -14.5990 C.3   168  ILE168      0.0290
    122  CG1      -42.2840   31.6160  -15.8280 C.3   168  ILE168      0.0022
    123  CG2      -43.8400   30.3150  -14.3650 C.3   168  ILE168      0.0023
    124  CD1      -40.8700   31.7570  -16.4350 C.3   168  ILE168      0.0001
    125  N        -43.1570   31.5450  -11.3530 N.am  169  LEU169     -0.1963
    126  CA       -43.7920   31.0800  -10.1310 C.3   169  LEU169      0.1728
    127  C        -45.2280   30.6990  -10.4030 C.2   169  LEU169      0.2616
    128  O        -45.7470   30.9290  -11.4880 O.2   169  LEU169     -0.2715
    129  CB       -43.7490   32.1610   -9.0570 C.3   169  LEU169      0.0311
    130  CG       -42.3770   32.4240   -8.4370 C.3   169  LEU169      0.0022
    131  CD1      -42.4290   33.6500   -7.5330 C.3   169  LEU169      0.0001
    132  CD2      -41.8940   31.2130   -7.6660 C.3   169  LEU169      0.0001
    133  N        -45.8600   30.0970   -9.4060 N.am  170  PHE170     -0.1974
    134  CA       -47.2760   29.7930   -9.4780 C.3   170  PHE170      0.1639
    135  C        -48.0670   31.0860   -9.6130 C.2   170  PHE170      0.2290
    136  O        -47.9610   31.9810   -8.7790 O.2   170  PHE170     -0.2864
    137  CB       -47.7370   29.0140   -8.2380 C.3   170  PHE170      0.0560
    138  CG       -47.4120   27.5440   -8.2880 C.ar  170  PHE170     -0.0200
    139  CD1      -46.4370   27.0000   -7.4600 C.ar  170  PHE170     -0.0042
    140  CD2      -48.0850   26.7010   -9.1710 C.ar  170  PHE170     -0.0042
    141  CE1      -46.1330   25.6380   -7.5120 C.ar  170  PHE170     -0.0003
    142  CE2      -47.7910   25.3370   -9.2300 C.ar  170  PHE170     -0.0003
    143  CZ       -46.8140   24.8050   -8.3990 C.ar  170  PHE170     -0.0000
    144  N        -47.9680   32.8780  -12.5430 N.3   172  GLU172     -0.1245
    145  CA       -47.3730   33.5270  -13.7120 C.3   172  GLU172      0.1567
    146  C        -47.5140   32.6260  -14.9280 C.2   172  GLU172      0.2260
    147  O        -47.3700   31.4090  -14.8210 O.2   172  GLU172     -0.2867
    148  CB       -45.8830   33.7940  -13.4920 C.3   172  GLU172      0.0388
    149  CG       -45.5460   34.5180  -12.2050 C.3   172  GLU172      0.1160
    150  CD       -44.0990   34.9770  -12.1690 C.2   172  GLU172      0.3649
    151  OE1      -43.2340   34.1980  -11.7100 O.co2 172  GLU172     -0.2457
    152  OE2      -43.8250   36.1110  -12.6150 O.co2 172  GLU172     -0.2457
@<TRIPOS>BOND
     1    99   100    1
     2   106   108   ar
     3   106   104   ar
     4   108   107   ar
     5   100   101    1
     6   100   103    1
     7   124   122    1
     8   101   102    2
     9   104   103    1
    10   104   105   ar
    11   122   121    1
    12   107   105   ar
    13   146   147    2
    14   146   145    1
    15    22    20    1
    16   121   123    1
    17   121   118    1
    18    92    93    1
    19   145   148    1
    20   145   144    1
    21    93    94    1
    22    93    96    1
    23    20    19    2
    24    20    21    1
    25   148   149    1
    26   118   117    1
    27   118   119    1
    28   117   111   am
    29    19    18    1
    30    94    95    2
    31    97    96    1
    32   110   111    1
    33   110   109    1
    34   110   113    1
    35   152   150   ar
    36   111   112    2
    37    96    98    1
    38   149   150    1
    39   150   151   ar
    40    18    17    1
    41   119   120    2
    42   119   125   am
    43   115   113    1
    44   113   114    1
    45   128   127    2
    46   125   126    1
    47    17    16    1
    48   127   126    1
    49   127   133   am
    50   114   116    1
    51   126   129    1
    52     8    10   ar
    53     8     6   ar
    54    10    11   ar
    55   135   134    1
    56   135   136    2
    57    16    13    1
    58   134   133    1
    59   134   137    1
    60   142   140   ar
    61   142   143   ar
    62   140   138   ar
    63   129   130    1
    64     5     6    1
    65     5     2    1
    66     6     7   ar
    67    11     9   ar
    68     1     2    1
    69   130   132    1
    70   130   131    1
    71   143   141   ar
    72   138   137    1
    73   138   139   ar
    74    13    12    1
    75    13    14    1
    76     4     3    2
    77    12     3   am
    78     3     2    1
    79   141   139   ar
    80     7     9   ar
    81    14    15    2
    82    60    59    2
    83    68    66    1
    84    83    81    1
    85    81    80    1
    86    39    40   ar
    87    39    37   ar
    88    59    58    1
    89    82    80    1
    90    42    40   ar
    91    42    44   ar
    92    66    65    1
    93    40    38   ar
    94    90    88    1
    95    37    36   ar
    96    80    77    1
    97    58    57    1
    98    44    43   ar
    99    91    89    1
   100    29    27    1
   101    67    65    1
   102    77    78    1
   103    77    76    1
   104    65    62    1
   105    23    24    1
   106    27    28    1
   107    27    24    1
   108    30    28    1
   109    88    89    1
   110    88    85    1
   111    38    36   ar
   112    38    41   ar
   113    79    78    2
   114    36    35    1
   115    57    47   am
   116    64    63    2
   117    48    47    2
   118    87    86    2
   119    86    85    1
   120    43    41   ar
   121    24    25    1
   122    74    73    1
   123    76    71   am
   124    63    62    1
   125    47    46    1
   126    62    61    1
   127    85    84    1
   128    31    25   am
   129    31    32    1
   130    35    32    1
   131    73    75    1
   132    73    70    1
   133    71    72    2
   134    71    70    1
   135    25    26    2
   136    32    33    1
   137    70    69    1
   138    46    49    1
   139    46    45    1
   140    49    50    1
   141    33    34    2
   142    50    51   ar
   143    50    52   ar
   144    51    53   ar
   145    52    54   ar
   146    53    55   ar
   147    54    55   ar
   148    55    56    1
