@<TRIPOS>MOLECULE
tmp/3jwpA00.pdb
 194 186 0 0 0
SMALL
GASTEIGER

@<TRIPOS>ATOM
      1  N        -37.4700   18.1660  -18.6250 N.3    27  GLY27      -0.1210
      2  CA       -38.0320   18.6170  -17.3570 C.3    27  GLY27       0.1956
      3  C        -37.2130   18.1110  -16.1890 C.2    27  GLY27       0.2613
      4  O        -36.0470   17.7550  -16.3490 O.2    27  GLY27      -0.2717
      5  N        -37.8290   18.0690  -15.0110 N.am   28  SER28      -0.1938
      6  CA       -37.1340   17.7180  -13.7680 C.3    28  SER28       0.2055
      7  C        -36.4780   16.3330  -13.7830 C.2    28  SER28       0.2643
      8  O        -35.5210   16.0990  -13.0520 O.2    28  SER28      -0.2714
      9  CB       -38.0970   17.8100  -12.5860 C.3    28  SER28       0.2130
     10  OG       -39.2730   17.0610  -12.8400 O.3    28  SER28      -0.2179
     11  N        -36.9870   15.4240  -14.6100 N.am   29  GLY29      -0.1954
     12  CA       -36.3640   14.1190  -14.7810 C.3    29  GLY29       0.1869
     13  C        -34.8950   14.1750  -15.1910 C.2    29  GLY29       0.2309
     14  O        -34.1250   13.2960  -14.8110 O.2    29  GLY29      -0.2863
     15  N        -32.8530   15.1460  -11.7590 N.3    32  ALA32      -0.1231
     16  CA       -33.0080   14.3340  -10.5500 C.3    32  ALA32       0.1694
     17  C        -31.6900   13.6760  -10.1150 C.2    32  ALA32       0.2591
     18  O        -31.3900   13.5940   -8.9250 O.2    32  ALA32      -0.2718
     19  CB       -34.0830   13.2860  -10.7570 C.3    32  ALA32       0.0304
     20  N        -30.8970   13.2330  -11.0830 N.am   33  GLU33      -0.1979
     21  CA       -29.6100   12.6050  -10.7870 C.3    33  GLU33       0.1602
     22  C        -28.5000   13.6250  -10.5130 C.2    33  GLU33       0.2287
     23  O        -27.3300   13.2580  -10.3720 O.2    33  GLU33      -0.2864
     24  CB       -29.2150   11.6600  -11.9220 C.3    33  GLU33       0.0415
     25  CG       -30.0670   10.4040  -11.9610 C.3    33  GLU33       0.1163
     26  CD       -30.0370    9.7260  -13.3050 C.2    33  GLU33       0.3649
     27  OE1      -30.7680   10.1880  -14.2100 O.co2  33  GLU33      -0.2457
     28  OE2      -29.2970    8.7290  -13.4570 O.co2  33  GLU33      -0.2457
     29  N        -37.6750   17.7740   -7.4940 N.3    38  SER38      -0.1202
     30  CA       -38.7420   18.1760   -8.4010 C.3    38  SER38       0.2020
     31  C        -39.6460   19.2010   -7.7200 C.2    38  SER38       0.2619
     32  O        -39.4340   19.5580   -6.5590 O.2    38  SER38      -0.2717
     33  CB       -39.5580   16.9650   -8.8370 C.3    38  SER38       0.2103
     34  OG       -40.3750   16.4950   -7.7780 O.3    38  SER38      -0.2182
     35  N        -40.6550   19.6720   -8.4510 N.am   39  PHE39      -0.1961
     36  CA       -41.5420   20.7260   -7.9730 C.3    39  PHE39       0.1771
     37  C        -43.0170   20.3580   -8.1460 C.2    39  PHE39       0.2619
     38  O        -43.8830   21.2410   -8.2150 O.2    39  PHE39      -0.2715
     39  CB       -41.2480   22.0300   -8.7150 C.3    39  PHE39       0.0574
     40  CG       -39.8000   22.4390   -8.6870 C.ar   39  PHE39      -0.0200
     41  CD1      -39.1930   22.8100   -7.4980 C.ar   39  PHE39      -0.0042
     42  CD2      -39.0500   22.4690   -9.8510 C.ar   39  PHE39      -0.0042
     43  CE1      -37.8530   23.1960   -7.4650 C.ar   39  PHE39      -0.0003
     44  CE2      -37.7110   22.8540   -9.8300 C.ar   39  PHE39      -0.0003
     45  CZ       -37.1140   23.2190   -8.6360 C.ar   39  PHE39      -0.0000
     46  N        -43.3020   19.0600   -8.2040 N.am   40  ARG40      -0.1977
     47  CA       -44.6750   18.5670   -8.2300 C.3    40  ARG40       0.1597
     48  C        -44.8860   17.6360   -7.0220 C.2    40  ARG40       0.2287
     49  O        -44.4300   17.9520   -5.9230 O.2    40  ARG40      -0.2864
     50  CB       -44.9660   17.8780   -9.5690 C.3    40  ARG40       0.0334
     51  CG       -44.6180   18.7300  -10.7760 C.3    40  ARG40       0.0492
     52  CD       -45.1260   18.1230  -12.0690 C.3    40  ARG40       0.2205
     53  NE       -44.7460   18.9380  -13.2260 N.pl3  40  ARG40      -0.0865
     54  CZ       -45.4130   20.0060  -13.6670 C.cat  40  ARG40       0.5346
     55  NH1      -46.5210   20.4310  -13.0640 N.pl3  40  ARG40       0.1354
     56  NH2      -44.9590   20.6610  -14.7320 N.pl3  40  ARG40       0.1354
     57  N        -43.9220   14.2230   -6.8950 N.3    42  SER42      -0.1217
     58  CA       -43.2550   12.9930   -7.3430 C.3    42  SER42       0.1889
     59  C        -42.4650   12.2530   -6.2570 C.2    42  SER42       0.2288
     60  O        -41.6240   11.4180   -6.5860 O.2    42  SER42      -0.2866
     61  CB       -42.3270   13.2940   -8.5280 C.3    42  SER42       0.2089
     62  OG       -41.7420   12.1410   -9.0870 O.3    42  SER42      -0.2183
     63  N        -39.9020   12.6520   -4.6250 N.3    44  ASN44      -0.1240
     64  CA       -38.6240   13.3410   -4.5030 C.3    44  ASN44       0.1653
     65  C        -38.8120   14.8630   -4.5440 C.2    44  ASN44       0.2266
     66  O        -37.8860   15.6040   -4.8720 O.2    44  ASN44      -0.2867
     67  CB       -37.6810   12.8890   -5.6270 C.3    44  ASN44       0.1155
     68  CG       -38.1710   13.3020   -7.0180 C.2    44  ASN44       0.2627
     69  OD1      -39.3770   13.4260   -7.2590 O.2    44  ASN44      -0.2716
     70  ND2      -37.2320   13.5150   -7.9370 N.am   44  ASN44      -0.0877
     71  N        -37.6990   23.0720  -18.9820 N.3   105  GLN105     -0.1245
     72  CA       -38.5360   23.6560  -17.9350 C.3   105  GLN105      0.1566
     73  C        -37.7330   23.8190  -16.6450 C.2   105  GLN105      0.2260
     74  O        -38.2200   24.4100  -15.6810 O.2   105  GLN105     -0.2867
     75  CB       -39.7600   22.7740  -17.6760 C.3   105  GLN105      0.0367
     76  CG       -40.8060   22.8390  -18.7840 C.3   105  GLN105      0.0905
     77  CD       -42.1020   22.1120  -18.4340 C.2   105  GLN105      0.2608
     78  OE1      -43.1890   22.7010  -18.4710 O.2   105  GLN105     -0.2717
     79  NE2      -41.9940   20.8270  -18.0960 N.am  105  GLN105     -0.0878
     80  N        -37.4430   14.1790  -22.7690 N.3   195  ILE195     -0.1231
     81  CA       -36.6250   13.5130  -21.7610 C.3   195  ILE195      0.1692
     82  C        -36.9810   13.9450  -20.3420 C.2   195  ILE195      0.2593
     83  O        -36.7960   15.0970  -19.9730 O.2   195  ILE195     -0.2718
     84  CB       -35.1090   13.7630  -21.9590 C.3   195  ILE195      0.0266
     85  CG1      -34.7180   13.7340  -23.4370 C.3   195  ILE195      0.0019
     86  CG2      -34.3090   12.7180  -21.1720 C.3   195  ILE195      0.0020
     87  CD1      -33.2640   14.0770  -23.6620 C.3   195  ILE195      0.0001
     88  N        -37.4820   13.0010  -19.5500 N.am  196  GLY196     -0.1942
     89  CA       -37.6750   13.2050  -18.1140 C.3   196  GLY196      0.2014
     90  C        -38.6500   14.3100  -17.7780 C.2   196  GLY196      0.2640
     91  O        -38.3440   15.2220  -17.0000 O.2   196  GLY196     -0.2714
     92  N        -39.8310   14.2260  -18.3740 N.am  197  THR197     -0.1936
     93  CA       -40.8490   15.2370  -18.1780 C.3   197  THR197      0.2028
     94  C        -42.1990   14.7030  -18.6160 C.2   197  THR197      0.2643
     95  O        -42.3940   13.4930  -18.6990 O.2   197  THR197     -0.2714
     96  CB       -40.4910   16.5300  -18.9520 C.3   197  THR197      0.1808
     97  OG1      -41.3220   17.6190  -18.5110 O.3   197  THR197     -0.2208
     98  CG2      -40.6440   16.3190  -20.4460 C.3   197  THR197      0.0379
     99  N        -43.1380   15.6130  -18.8590 N.am  198  SER198     -0.1935
    100  CA       -44.5040   15.2610  -19.2600 C.3   198  SER198      0.2055
    101  C        -45.2720   14.4830  -18.1940 C.2   198  SER198      0.2644
    102  O        -46.2430   13.8040  -18.5240 O.2   198  SER198     -0.2714
    103  CB       -44.4960   14.4710  -20.5800 C.3   198  SER198      0.2130
    104  OG       -44.0830   15.2780  -21.6250 O.3   198  SER198     -0.2179
    105  N        -44.8650   14.5770  -16.9290 N.am  199  SER199     -0.1935
    106  CA       -45.6150   13.9210  -15.8510 C.3   199  SER199      0.2055
    107  C        -47.0820   14.3190  -15.9410 C.2   199  SER199      0.2643
    108  O        -47.9780   13.4700  -15.8580 O.2   199  SER199     -0.2714
    109  CB       -45.0690   14.3030  -14.4690 C.3   199  SER199      0.2130
    110  OG       -45.1430   15.6860  -14.1990 O.3   199  SER199     -0.2179
    111  N        -47.3140   15.6160  -16.1360 N.am  200  THR200     -0.1950
    112  CA       -48.6440   16.1970  -16.0520 C.3   200  THR200      0.1897
    113  C        -48.7970   17.3090  -17.0680 C.2   200  THR200      0.2313
    114  O        -47.8040   17.8620  -17.5430 O.2   200  THR200     -0.2863
    115  CB       -48.8880   16.8060  -14.6540 C.3   200  THR200      0.1794
    116  OG1      -47.9510   17.8670  -14.4210 O.3   200  THR200     -0.2208
    117  CG2      -48.7400   15.7450  -13.5510 C.3   200  THR200      0.0378
    118  N        -48.8850   20.5990  -18.8030 N.3   202  SER202     -0.1217
    119  CA       -47.9030   21.6350  -18.5280 C.3   202  SER202      0.1889
    120  C        -47.5220   22.2910  -19.8430 C.2   202  SER202      0.2288
    121  O        -48.0430   21.9230  -20.9050 O.2   202  SER202     -0.2866
    122  CB       -46.6510   21.0320  -17.8860 C.3   202  SER202      0.2089
    123  OG       -45.9210   20.2650  -18.8330 O.3   202  SER202     -0.2183
    124  N        -38.2290    9.4540  -23.3750 N.3   221  ILE221     -0.1231
    125  CA       -37.2170    8.7840  -22.5600 C.3   221  ILE221      0.1692
    126  C        -37.5160    9.0940  -21.1070 C.2   221  ILE221      0.2592
    127  O        -37.4210   10.2460  -20.6770 O.2   221  ILE221     -0.2718
    128  CB       -35.7880    9.2380  -22.8920 C.3   221  ILE221      0.0266
    129  CG1      -35.4100    8.8270  -24.3140 C.3   221  ILE221      0.0019
    130  CG2      -34.7950    8.6380  -21.9050 C.3   221  ILE221      0.0020
    131  CD1      -35.9260    9.7620  -25.3930 C.3   221  ILE221      0.0001
    132  N        -37.8790    8.0660  -20.3520 N.am  222  ASN222     -0.1960
    133  CA       -38.3770    8.2670  -19.0040 C.3   222  ASN222      0.1819
    134  C        -38.3870    6.9480  -18.2400 C.2   222  ASN222      0.2621
    135  O        -38.5770    5.8880  -18.8250 O.2   222  ASN222     -0.2715
    136  CB       -39.7890    8.8560  -19.0790 C.3   222  ASN222      0.1195
    137  CG       -40.2280    9.5080  -17.7880 C.2   222  ASN222      0.2630
    138  OD1      -40.1020    8.9260  -16.7040 O.2   222  ASN222     -0.2716
    139  ND2      -40.7680   10.7260  -17.8960 N.am  222  ASN222     -0.0877
    140  N        -38.1870    7.0200  -16.9300 N.am  223  ILE223     -0.1963
    141  CA       -38.2000    5.8200  -16.0900 C.3   223  ILE223      0.1727
    142  C        -39.6000    5.2060  -15.9690 C.2   223  ILE223      0.2617
    143  O        -39.7320    4.0480  -15.5840 O.2   223  ILE223     -0.2715
    144  CB       -37.6160    6.0940  -14.6740 C.3   223  ILE223      0.0290
    145  CG1      -38.4950    7.0650  -13.8800 C.3   223  ILE223      0.0022
    146  CG2      -36.1800    6.6310  -14.7890 C.3   223  ILE223      0.0023
    147  CD1      -37.9970    7.3230  -12.4690 C.3   223  ILE223      0.0001
    148  N        -40.6310    5.9860  -16.2920 N.am  224  SER224     -0.1936
    149  CA       -42.0080    5.5110  -16.2860 C.3   224  SER224      0.2055
    150  C        -42.7620    6.0330  -17.5000 C.2   224  SER224      0.2643
    151  O        -42.2450    6.8580  -18.2550 O.2   224  SER224     -0.2714
    152  CB       -42.7190    5.9880  -15.0240 C.3   224  SER224      0.2130
    153  OG       -43.2310    7.2970  -15.1920 O.3   224  SER224     -0.2179
    154  N        -43.9900    5.5520  -17.6760 N.am  225  LYS225     -0.1963
    155  CA       -44.8970    6.1040  -18.6790 C.3   225  LYS225      0.1728
    156  C        -45.3840    7.4730  -18.1910 C.2   225  LYS225      0.2616
    157  O        -45.1900    7.8170  -17.0160 O.2   225  LYS225     -0.2715
    158  CB       -46.0630    5.1390  -18.9510 C.3   225  LYS225      0.0311
    159  CG       -45.6500    3.9000  -19.7710 C.3   225  LYS225      0.0038
    160  CD       -46.6490    2.7390  -19.6760 C.3   225  LYS225      0.0206
    161  CE       -46.4270    1.8790  -18.4180 C.3   225  LYS225      0.1093
    162  NZ       -47.2500    0.6050  -18.3880 N.3   225  LYS225     -0.1314
    163  N        -45.9740    8.2640  -19.0930 N.am  226  THR226     -0.1951
    164  CA       -46.4150    9.6210  -18.7600 C.3   226  THR226      0.1897
    165  C        -47.7270   10.0000  -19.4490 C.2   226  THR226      0.2313
    166  O        -48.4050    9.1490  -20.0140 O.2   226  THR226     -0.2863
    167  CB       -45.3600   10.6730  -19.1470 C.3   226  THR226      0.1794
    168  OG1      -45.5140   11.0110  -20.5300 O.3   226  THR226     -0.2208
    169  CG2      -43.9540   10.1820  -18.8910 C.3   226  THR226      0.0378
    170  N        -35.7290    4.2280  -19.6380 N.3   238  ALA238     -0.1231
    171  CA       -34.3630    4.3260  -19.1740 C.3   238  ALA238      0.1694
    172  C        -34.2320    5.5800  -18.3380 C.2   238  ALA238      0.2592
    173  O        -34.9920    6.5300  -18.5160 O.2   238  ALA238     -0.2718
    174  CB       -33.4150    4.3840  -20.3560 C.3   238  ALA238      0.0304
    175  N        -33.2790    5.5710  -17.4150 N.am  239  LYS239     -0.1966
    176  CA       -32.9530    6.7640  -16.6530 C.3   239  LYS239      0.1728
    177  C        -32.1370    7.6770  -17.5680 C.2   239  LYS239      0.2616
    178  O        -31.4530    7.1980  -18.4670 O.2   239  LYS239     -0.2715
    179  CB       -32.1740    6.3920  -15.3770 C.3   239  LYS239      0.0311
    180  CG       -32.8080    5.3990  -14.4310 C.3   239  LYS239      0.0038
    181  CD       -31.8750    5.2170  -13.2340 C.3   239  LYS239      0.0206
    182  CE       -32.0030    3.8460  -12.5840 C.3   239  LYS239      0.1093
    183  NZ       -33.3420    3.6260  -11.9730 N.3   239  LYS239     -0.1314
    184  N        -32.2210    8.9850  -17.3380 N.am  240  PHE240     -0.1974
    185  CA       -31.5080    9.9930  -18.1360 C.3   240  PHE240      0.1639
    186  C        -30.0400    9.6250  -18.3300 C.2   240  PHE240      0.2290
    187  O        -29.5490    9.6310  -19.4540 O.2   240  PHE240     -0.2864
    188  CB       -31.6480   11.3780  -17.4710 C.3   240  PHE240      0.0560
    189  CG       -31.0250   12.5270  -18.2470 C.ar  240  PHE240     -0.0200
    190  CD1      -31.2750   12.7030  -19.6030 C.ar  240  PHE240     -0.0042
    191  CD2      -30.2240   13.4590  -17.5980 C.ar  240  PHE240     -0.0042
    192  CE1      -30.7020   13.7800  -20.3100 C.ar  240  PHE240     -0.0003
    193  CE2      -29.6560   14.5340  -18.2870 C.ar  240  PHE240     -0.0003
    194  CZ       -29.8940   14.6940  -19.6460 C.ar  240  PHE240     -0.0000
@<TRIPOS>BOND
     1   131   129    1
     2   129   128    1
     3    87    85    1
     4    85    84    1
     5   124   125    1
     6   128   125    1
     7   128   130    1
     8    80    81    1
     9   125   126    1
    10    84    81    1
    11    84    86    1
    12    81    82    1
    13   104   103    1
    14   126   127    2
    15   126   132   am
    16   121   120    2
    17   103   100    1
    18   168   167    1
    19    98    96    1
    20   174   171    1
    21   132   133    1
    22    82    83    2
    23    82    88   am
    24   192   194   ar
    25   192   190   ar
    26   166   165    2
    27   120   119    1
    28   159   160    1
    29   159   158    1
    30   160   161    1
    31   194   193   ar
    32   170   171    1
    33   190   189   ar
    34    88    89    1
    35   187   186    2
    36   165   164    1
    37   100    99    1
    38   100   101    1
    39   171   172    1
    40   167   169    1
    41   167   164    1
    42   163   164    1
    43   163   156   am
    44   136   133    1
    45   136   137    1
    46   133   134    1
    47    71    72    1
    48    96    97    1
    49    96    93    1
    50   158   155    1
    51    99    94   am
    52   123   122    1
    53   135   134    2
    54   118   119    1
    55    76    77    1
    56    76    75    1
    57    95    94    2
    58   155   156    1
    59   155   154    1
    60     1     2    1
    61    94    93    1
    62   119   122    1
    63   102   101    2
    64   173   172    2
    65    78    77    2
    66   178   177    2
    67    77    79   am
    68   161   162    1
    69    92    93    1
    70    92    90   am
    71   172   175   am
    72   186   185    1
    73   193   191   ar
    74   151   150    2
    75   189   191   ar
    76   189   188    1
    77   134   140   am
    78   101   105   am
    79   156   157    2
    80   185   188    1
    81   185   184    1
    82    89    90    1
    83    72    75    1
    84    72    73    1
    85   139   137   am
    86   137   138    2
    87    90    91    2
    88   154   150   am
    89   177   184   am
    90   177   176    1
    91   114   113    2
    92   150   149    1
    93   175   176    1
    94     2     3    1
    95   113   112    1
    96   140   141    1
    97   105   106    1
    98   176   179    1
    99    73    74    2
   100     4     3    2
   101   148   149    1
   102   148   142   am
   103   149   152    1
   104     3     5   am
   105   111   112    1
   106   111   107   am
   107   141   142    1
   108   141   144    1
   109   112   115    1
   110   142   143    2
   111   107   108    2
   112   107   106    1
   113   106   109    1
   114   179   180    1
   115   153   152    1
   116    13    14    2
   117    13    12    1
   118     5     6    1
   119   146   144    1
   120    12    11    1
   121    56    54    1
   122   144   145    1
   123   115   116    1
   124   115   117    1
   125    11     7   am
   126   109   110    1
   127   180   181    1
   128    27    26   ar
   129   145   147    1
   130     7     6    1
   131     7     8    2
   132     6     9    1
   133    54    53    2
   134    54    55    1
   135    28    26   ar
   136    26    25    1
   137   181   182    1
   138    53    52    1
   139    10     9    1
   140   182   183    1
   141    52    51    1
   142    25    24    1
   143    24    21    1
   144    15    16    1
   145    20    21    1
   146    20    17   am
   147    21    22    1
   148    51    50    1
   149    19    16    1
   150    16    17    1
   151    22    23    2
   152    17    18    2
   153    42    44   ar
   154    42    40   ar
   155    44    45   ar
   156    50    47    1
   157    62    61    1
   158    33    30    1
   159    33    34    1
   160    39    40    1
   161    39    36    1
   162    40    41   ar
   163    45    43   ar
   164    61    58    1
   165    35    36    1
   166    35    31   am
   167    30    31    1
   168    30    29    1
   169    47    46    1
   170    47    48    1
   171    38    37    2
   172    46    37   am
   173    37    36    1
   174    70    68   am
   175    31    32    2
   176    41    43   ar
   177    58    57    1
   178    58    59    1
   179    69    68    2
   180    48    49    2
   181    68    67    1
   182    60    59    2
   183    67    64    1
   184    66    65    2
   185    63    64    1
   186    65    64    1
