@<TRIPOS>MOLECULE
tmp/3jwqD00.pdb
 210 202 0 0 0
SMALL
GASTEIGER

@<TRIPOS>ATOM
      1  N         -7.1540  -67.6270   47.7850 N.3    76  TYR76      -0.1227
      2  CA        -8.6010  -67.4920   47.8180 C.3    76  TYR76       0.1736
      3  C         -9.2940  -67.9410   46.5410 C.2    76  TYR76       0.2595
      4  O        -10.2590  -68.7170   46.5970 O.2    76  TYR76      -0.2718
      5  CB        -9.0060  -66.0630   48.1610 C.3    76  TYR76       0.0548
      6  CG       -10.4670  -65.8060   47.9690 C.ar   76  TYR76      -0.0200
      7  CD1      -11.3840  -66.2920   48.8520 C.ar   76  TYR76      -0.0009
      8  CD2      -10.9320  -65.0720   46.8810 C.ar   76  TYR76      -0.0009
      9  CE1      -12.7270  -66.0590   48.6760 C.ar   76  TYR76       0.0417
     10  CE2      -12.2760  -64.8240   46.6940 C.ar   76  TYR76       0.0417
     11  CZ       -13.1630  -65.3290   47.5970 C.ar   76  TYR76       0.1957
     12  OH       -14.5010  -65.1070   47.4430 O.3    76  TYR76      -0.2866
     13  N         -8.8150  -67.4430   45.4010 N.am   77  HIS77      -0.1975
     14  CA        -9.3970  -67.7640   44.0980 C.3    77  HIS77       0.1656
     15  C         -9.0210  -69.1540   43.6560 C.2    77  HIS77       0.2291
     16  O         -8.3160  -69.3300   42.6530 O.2    77  HIS77      -0.2864
     17  CB        -8.9510  -66.7650   43.0320 C.3    77  HIS77       0.0771
     18  CG        -9.6580  -65.4570   43.1080 C.ar   77  HIS77       0.0820
     19  ND1       -9.0750  -64.3160   43.6200 N.ar   77  HIS77      -0.2267
     20  CD2      -10.9110  -65.1050   42.7310 C.ar   77  HIS77       0.1154
     21  CE1       -9.9400  -63.3200   43.5610 C.ar   77  HIS77       0.1986
     22  NE2      -11.0590  -63.7680   43.0110 N.ar   77  HIS77      -0.2212
     23  N        -13.6080  -71.3190   46.3850 N.3    81  HIS81      -0.1241
     24  CA       -14.3420  -70.1200   45.8800 C.3    81  HIS81       0.1621
     25  C        -15.2980  -70.4160   44.7210 C.2    81  HIS81       0.2264
     26  O        -16.4570  -70.0170   44.7660 O.2    81  HIS81      -0.2867
     27  CB       -13.4090  -68.9530   45.5070 C.3    81  HIS81       0.0745
     28  CG       -14.0880  -67.8530   44.7450 C.ar   81  HIS81       0.0817
     29  ND1      -14.9750  -66.9710   45.3290 N.ar   81  HIS81      -0.2268
     30  CD2      -14.0090  -67.4930   43.4380 C.ar   81  HIS81       0.1154
     31  CE1      -15.4210  -66.1210   44.4130 C.ar   81  HIS81       0.1986
     32  NE2      -14.8460  -66.4110   43.2580 N.ar   81  HIS81      -0.2212
     33  N         -4.6940  -59.6150   39.9850 N.3   125  ASN125     -0.1240
     34  CA        -5.4660  -58.6900   39.0960 C.3   125  ASN125      0.1653
     35  C         -5.3120  -58.5780   37.5790 C.2   125  ASN125      0.2266
     36  O         -4.2260  -58.8010   37.0040 O.2   125  ASN125     -0.2867
     37  CB        -4.9310  -57.3160   39.4060 C.3   125  ASN125      0.1155
     38  CG        -5.5350  -56.7420   40.5520 C.2   125  ASN125      0.2627
     39  OD1       -5.1380  -55.6520   40.9660 O.2   125  ASN125     -0.2716
     40  ND2       -6.5470  -57.4350   41.1070 N.am  125  ASN125     -0.0877
     41  N        -15.4190  -57.1070   38.1130 N.3   189  LEU189     -0.1245
     42  CA       -15.9520  -56.0050   38.9110 C.3   189  LEU189      0.1561
     43  C        -16.0720  -54.6680   38.1410 C.2   189  LEU189      0.2260
     44  O        -17.0200  -53.8980   38.3570 O.2   189  LEU189     -0.2867
     45  CB       -15.1040  -55.8390   40.1640 C.3   189  LEU189      0.0270
     46  CG       -15.8270  -55.8850   41.5100 C.3   189  LEU189      0.0019
     47  CD1      -16.8140  -57.0590   41.6840 C.3   189  LEU189      0.0001
     48  CD2      -14.7640  -55.9310   42.5950 C.3   189  LEU189      0.0001
     49  N        -20.7190  -64.2130   43.1610 N.3   228  ASP228     -0.1225
     50  CA       -19.2740  -64.0210   43.2570 C.3   228  ASP228      0.1805
     51  C        -18.8700  -63.2970   44.5540 C.2   228  ASP228      0.2597
     52  O        -17.8240  -63.5840   45.1530 O.2   228  ASP228     -0.2718
     53  CB       -18.7810  -63.2310   42.0420 C.3   228  ASP228      0.1424
     54  CG       -17.2520  -63.3810   41.7730 C.2   228  ASP228      0.3668
     55  OD1      -16.5760  -64.2300   42.4100 O.co2 228  ASP228     -0.2456
     56  OD2      -16.7460  -62.6440   40.8760 O.co2 228  ASP228     -0.2456
     57  N        -19.6950  -62.3760   45.0210 N.am  229  LEU229     -0.1979
     58  CA       -19.3260  -61.6520   46.2210 C.3   229  LEU229      0.1596
     59  C        -19.9250  -62.2670   47.4570 C.2   229  LEU229      0.2287
     60  O        -19.7280  -61.7510   48.5770 O.2   229  LEU229     -0.2864
     61  CB       -19.7360  -60.1900   46.1300 C.3   229  LEU229      0.0297
     62  CG       -19.1600  -59.3940   44.9520 C.3   229  LEU229      0.0022
     63  CD1      -19.6900  -57.9970   44.9870 C.3   229  LEU229      0.0001
     64  CD2      -17.6270  -59.3880   44.9360 C.3   229  LEU229      0.0001
     65  N        -19.5550  -64.4230   49.6550 N.3   231  ALA231     -0.1231
     66  CA       -18.8610  -64.6170   50.9420 C.3   231  ALA231      0.1694
     67  C        -19.1430  -63.4170   51.8760 C.2   231  ALA231      0.2591
     68  O        -19.1320  -63.5290   53.1030 O.2   231  ALA231     -0.2718
     69  CB       -17.3660  -64.8040   50.7290 C.3   231  ALA231      0.0304
     70  N        -19.4260  -62.2640   51.2980 N.am  232  ILE232     -0.1980
     71  CA       -19.7030  -61.1130   52.1330 C.3   232  ILE232      0.1595
     72  C        -21.0220  -61.2430   52.9070 C.2   232  ILE232      0.2287
     73  O        -21.3700  -60.3750   53.6830 O.2   232  ILE232     -0.2864
     74  CB       -19.6760  -59.7910   51.3020 C.3   232  ILE232      0.0276
     75  CG1      -19.4100  -58.5970   52.2190 C.3   232  ILE232      0.0022
     76  CG2      -20.9400  -59.6230   50.4590 C.3   232  ILE232      0.0022
     77  CD1      -17.9400  -58.4730   52.6620 C.3   232  ILE232      0.0001
     78  N        -17.1770  -65.5210   57.2730 N.3   239  GLN239     -0.1245
     79  CA       -16.7220  -64.3070   56.5720 C.3   239  GLN239      0.1566
     80  C        -15.3090  -63.9010   57.0050 C.2   239  GLN239      0.2260
     81  O        -14.4590  -63.5910   56.1570 O.2   239  GLN239     -0.2867
     82  CB       -17.7390  -63.1620   56.7370 C.3   239  GLN239      0.0367
     83  CG       -17.1860  -61.7520   56.7790 C.3   239  GLN239      0.0905
     84  CD       -16.5940  -61.3090   55.4660 C.2   239  GLN239      0.2608
     85  OE1      -15.8640  -60.3190   55.4360 O.2   239  GLN239     -0.2717
     86  NE2      -16.9080  -62.0280   54.3640 N.am  239  GLN239     -0.0878
     87  N        -12.7230  -66.1440   55.5420 N.3   242  ILE242     -0.1231
     88  CA       -12.6010  -65.8920   54.1160 C.3   242  ILE242      0.1692
     89  C        -11.8980  -64.5600   53.8140 C.2   242  ILE242      0.2591
     90  O        -11.1230  -64.4620   52.8640 O.2   242  ILE242     -0.2718
     91  CB       -13.9890  -66.0360   53.4150 C.3   242  ILE242      0.0266
     92  CG1      -14.2510  -67.5160   53.1300 C.3   242  ILE242      0.0019
     93  CG2      -14.0450  -65.2230   52.1160 C.3   242  ILE242      0.0020
     94  CD1      -15.6410  -67.8410   52.6470 C.3   242  ILE242      0.0001
     95  N        -12.1710  -63.5470   54.6260 N.am  243  ALA243     -0.1980
     96  CA       -11.4900  -62.2550   54.5000 C.3   243  ALA243      0.1597
     97  C         -9.9650  -62.3470   54.6420 C.2   243  ALA243      0.2287
     98  O         -9.2430  -61.6870   53.8690 O.2   243  ALA243     -0.2864
     99  CB       -12.0290  -61.2530   55.4740 C.3   243  ALA243      0.0319
    100  N         -8.6010  -63.6780   51.3900 N.3   246  VAL246     -0.1231
    101  CA        -8.5550  -62.6530   50.4030 C.3   246  VAL246      0.1692
    102  C         -7.3620  -61.7510   50.7240 C.2   246  VAL246      0.2591
    103  O         -6.6130  -61.3370   49.8290 O.2   246  VAL246     -0.2718
    104  CB        -9.8710  -61.8320   50.3560 C.3   246  VAL246      0.0266
    105  CG1       -9.7040  -60.6010   49.4740 C.3   246  VAL246      0.0020
    106  CG2      -10.9870  -62.6540   49.8380 C.3   246  VAL246      0.0020
    107  N         -7.1770  -61.4340   51.9980 N.am  247  ALA247     -0.1980
    108  CA        -6.1250  -60.4770   52.3280 C.3   247  ALA247      0.1597
    109  C         -4.7580  -61.0830   52.0710 C.2   247  ALA247      0.2287
    110  O         -3.8460  -60.3940   51.6250 O.2   247  ALA247     -0.2864
    111  CB        -6.2490  -59.9650   53.7390 C.3   247  ALA247      0.0319
    112  N         -4.1310  -60.6730   48.4370 N.3   250  PHE250     -0.1241
    113  CA        -3.7750  -59.2730   48.1540 C.3   250  PHE250      0.1605
    114  C         -2.3170  -59.0170   48.5270 C.2   250  PHE250      0.2264
    115  O         -1.5290  -58.4560   47.7350 O.2   250  PHE250     -0.2867
    116  CB        -4.7270  -58.2660   48.8330 C.3   250  PHE250      0.0534
    117  CG        -6.1240  -58.2460   48.2400 C.ar  250  PHE250     -0.0203
    118  CD1       -7.1500  -57.5270   48.8670 C.ar  250  PHE250     -0.0042
    119  CD2       -6.4210  -58.9530   47.0380 C.ar  250  PHE250     -0.0042
    120  CE1       -8.4290  -57.4940   48.3120 C.ar  250  PHE250     -0.0003
    121  CE2       -7.7170  -58.9470   46.4790 C.ar  250  PHE250     -0.0003
    122  CZ        -8.7170  -58.2250   47.1110 C.ar  250  PHE250     -0.0000
    123  N         -3.5300  -51.6110   50.6540 N.3   268  MET268     -0.1230
    124  CA        -4.4270  -52.7450   50.7540 C.3   268  MET268      0.1702
    125  C         -3.6510  -54.0010   50.4580 C.2   268  MET268      0.2592
    126  O         -4.2100  -55.1030   50.5160 O.2   268  MET268     -0.2718
    127  CB        -5.5580  -52.5930   49.7650 C.3   268  MET268      0.0401
    128  CG        -6.6400  -53.6280   49.8030 C.3   268  MET268      0.0596
    129  SD        -7.2880  -53.9010   48.1170 S.3   268  MET268     -0.1393
    130  CE        -7.7730  -52.2200   47.6120 C.3   268  MET268      0.0692
    131  N         -2.3640  -53.8570   50.1440 N.am  269  MET269     -0.1979
    132  CA        -1.5420  -55.0040   49.7400 C.3   269  MET269      0.1605
    133  C         -0.2670  -54.9320   50.5090 C.2   269  MET269      0.2287
    134  O          0.6440  -55.6930   50.2640 O.2   269  MET269     -0.2864
    135  CB        -1.2370  -54.9600   48.2330 C.3   269  MET269      0.0413
    136  CG        -2.4530  -55.0870   47.3380 C.3   269  MET269      0.0598
    137  SD        -2.0350  -55.4600   45.6390 S.3   269  MET269     -0.1393
    138  CE        -3.5740  -55.1840   44.7470 C.3   269  MET269      0.0692
    139  N         -7.3040  -52.6630   56.8950 N.3   277  LEU277     -0.1245
    140  CA        -8.2340  -53.5580   56.2090 C.3   277  LEU277      0.1561
    141  C         -9.6870  -53.4070   56.6700 C.2   277  LEU277      0.2260
    142  O        -10.5530  -53.2690   55.8380 O.2   277  LEU277     -0.2867
    143  CB        -7.7770  -55.0200   56.2840 C.3   277  LEU277      0.0270
    144  CG        -7.1410  -55.8270   55.1320 C.3   277  LEU277      0.0019
    145  CD1       -6.8220  -55.0280   53.8780 C.3   277  LEU277      0.0001
    146  CD2       -5.9230  -56.5320   55.6400 C.3   277  LEU277      0.0001
    147  N        -11.3770  -50.6770   55.0580 N.3   280  LEU280     -0.1231
    148  CA       -11.4470  -51.0760   53.6620 C.3   280  LEU280      0.1693
    149  C        -12.6220  -52.0150   53.3720 C.2   280  LEU280      0.2591
    150  O        -13.2590  -51.8420   52.3380 O.2   280  LEU280     -0.2718
    151  CB       -10.1200  -51.6750   53.1850 C.3   280  LEU280      0.0284
    152  CG        -9.1370  -50.8080   52.3640 C.3   280  LEU280      0.0019
    153  CD1       -9.2560  -49.3370   52.6530 C.3   280  LEU280      0.0001
    154  CD2       -7.6910  -51.2380   52.5840 C.3   280  LEU280      0.0001
    155  N        -12.9030  -52.9890   54.2490 N.am  281  GLN281     -0.1979
    156  CA       -14.0010  -53.9090   54.0490 C.3   281  GLN281      0.1601
    157  C        -15.3370  -53.1970   54.1600 C.2   281  GLN281      0.2287
    158  O        -16.2910  -53.5480   53.4510 O.2   281  GLN281     -0.2864
    159  CB       -13.9870  -55.0020   55.1090 C.3   281  GLN281      0.0394
    160  CG       -13.2370  -56.2460   54.7590 C.3   281  GLN281      0.0908
    161  CD       -13.7070  -56.9050   53.4670 C.2   281  GLN281      0.2608
    162  OE1      -13.2940  -56.4930   52.3820 O.2   281  GLN281     -0.2717
    163  NE2      -14.5460  -57.9420   53.5790 N.am  281  GLN281     -0.0878
    164  N        -15.8570  -49.9170   53.4440 N.3   283  GLY283     -0.1210
    165  CA       -15.8210  -49.2480   52.1510 C.3   283  GLY283      0.1956
    166  C        -16.2200  -50.1560   51.0170 C.2   283  GLY283      0.2611
    167  O        -16.9920  -49.7440   50.1590 O.2   283  GLY283     -0.2717
    168  N        -15.7060  -51.3850   51.0120 N.am  284  PHE284     -0.1976
    169  CA       -16.0660  -52.3910   50.0110 C.3   284  PHE284      0.1639
    170  C        -17.5400  -52.6440   50.0610 C.2   284  PHE284      0.2290
    171  O        -18.2020  -52.5670   49.0120 O.2   284  PHE284     -0.2864
    172  CB       -15.3430  -53.7200   50.2480 C.3   284  PHE284      0.0560
    173  CG       -15.7860  -54.8360   49.3380 C.ar  284  PHE284     -0.0200
    174  CD1      -15.7030  -54.7110   47.9720 C.ar  284  PHE284     -0.0042
    175  CD2      -16.2360  -56.0360   49.8650 C.ar  284  PHE284     -0.0042
    176  CE1      -16.1060  -55.7650   47.1210 C.ar  284  PHE284     -0.0003
    177  CE2      -16.6240  -57.0990   49.0300 C.ar  284  PHE284     -0.0003
    178  CZ       -16.5690  -56.9490   47.6550 C.ar  284  PHE284     -0.0000
    179  N        -19.6910  -49.4630   48.9730 N.3   287  PHE287     -0.1227
    180  CA       -19.6060  -49.0300   47.5810 C.3   287  PHE287      0.1736
    181  C        -20.0830  -50.0910   46.6010 C.2   287  PHE287      0.2595
    182  O        -20.7150  -49.7480   45.5940 O.2   287  PHE287     -0.2718
    183  CB       -18.2020  -48.5240   47.2170 C.3   287  PHE287      0.0547
    184  CG       -18.0440  -48.1270   45.7660 C.ar  287  PHE287     -0.0202
    185  CD1      -18.7770  -47.0710   45.2280 C.ar  287  PHE287     -0.0042
    186  CD2      -17.1550  -48.8150   44.9410 C.ar  287  PHE287     -0.0042
    187  CE1      -18.6320  -46.7110   43.9020 C.ar  287  PHE287     -0.0003
    188  CE2      -17.0080  -48.4510   43.6090 C.ar  287  PHE287     -0.0003
    189  CZ       -17.7510  -47.3950   43.0980 C.ar  287  PHE287     -0.0000
    190  N        -19.8060  -51.3640   46.9040 N.am  288  VAL288     -0.1980
    191  CA       -20.0980  -52.4500   45.9630 C.3   288  VAL288      0.1595
    192  C        -21.3120  -53.3200   46.2960 C.2   288  VAL288      0.2287
    193  O        -22.1920  -53.5030   45.4660 O.2   288  VAL288     -0.2864
    194  CB       -18.8830  -53.3530   45.7600 C.3   288  VAL288      0.0276
    195  CG1      -19.1940  -54.3740   44.7170 C.3   288  VAL288      0.0022
    196  CG2      -17.7280  -52.5420   45.2990 C.3   288  VAL288      0.0022
    197  N        -17.4960  -55.4130   60.9350 N.3   317  TRP317     -0.1241
    198  CA       -16.3310  -54.7200   60.4360 C.3   317  TRP317      0.1605
    199  C        -16.2350  -53.2990   60.9840 C.2   317  TRP317      0.2264
    200  O        -15.1800  -52.9100   61.4450 O.2   317  TRP317     -0.2867
    201  CB       -16.2790  -54.7390   58.9150 C.3   317  TRP317      0.0550
    202  CG       -15.8610  -56.0790   58.3440 C.ar  317  TRP317      0.0003
    203  CD1      -16.5940  -56.8800   57.5240 C.ar  317  TRP317      0.0946
    204  CD2      -14.6230  -56.7730   58.5640 C.ar  317  TRP317      0.0152
    205  NE1      -15.9030  -58.0380   57.2310 N.ar  317  TRP317     -0.2442
    206  CE2      -14.6860  -57.9830   57.8430 C.ar  317  TRP317      0.0810
    207  CE3      -13.4710  -56.4950   59.3080 C.ar  317  TRP317      0.0012
    208  CZ2      -13.6470  -58.8810   57.8180 C.ar  317  TRP317      0.0191
    209  CZ3      -12.4340  -57.4050   59.2800 C.ar  317  TRP317      0.0001
    210  CH2      -12.5240  -58.5760   58.5400 C.ar  317  TRP317      0.0015
@<TRIPOS>BOND
     1    36    35    2
     2    35    34    1
     3    41    42    1
     4    43    44    2
     5    43    42    1
     6    42    45    1
     7    34    37    1
     8    34    33    1
     9    37    38    1
    10    45    46    1
    11    38    39    2
    12    38    40   am
    13    56    54   ar
    14    46    47    1
    15    46    48    1
    16    54    53    1
    17    54    55   ar
    18    53    50    1
    19    16    15    2
    20    20    22   ar
    21    20    18   ar
    22    22    21   ar
    23    17    18    1
    24    17    14    1
    25   189   188   ar
    26   189   187   ar
    27    18    19   ar
    28    49    50    1
    29    50    51    1
    30    32    30   ar
    31    32    31   ar
    32    30    28   ar
    33    21    19   ar
    34   188   186   ar
    35    15    14    1
    36   187   185   ar
    37    14    13    1
    38    31    29   ar
    39    51    57   am
    40    51    52    2
    41   195   194    1
    42    25    26    2
    43    25    24    1
    44    28    29   ar
    45    28    27    1
    46   138   137    1
    47    64    62    1
    48   186   184   ar
    49    62    63    1
    50    62    61    1
    51    57    58    1
    52   185   184   ar
    53   196   194    1
    54    13     3   am
    55   193   192    2
    56    27    24    1
    57   182   181    2
    58   137   136    1
    59   194   191    1
    60   184   183    1
    61    24    23    1
    62   191   192    1
    63   191   190    1
    64    61    58    1
    65    58    59    1
    66   121   119   ar
    67   121   122   ar
    68     3     4    2
    69     3     2    1
    70   181   190   am
    71   181   180    1
    72    10     8   ar
    73    10    11   ar
    74     8     6   ar
    75   119   117   ar
    76   122   120   ar
    77   176   178   ar
    78   176   174   ar
    79   183   180    1
    80   136   135    1
    81    12    11    1
    82    59    60    2
    83   180   179    1
    84    11     9   ar
    85   130   129    1
    86   178   177   ar
    87   115   114    2
    88     1     2    1
    89     2     5    1
    90     6     5    1
    91     6     7   ar
    92   174   173   ar
    93   129   128    1
    94   113   112    1
    95   113   114    1
    96   113   116    1
    97   135   132    1
    98   117   116    1
    99   117   118   ar
   100   120   118   ar
   101     9     7   ar
   102   171   170    2
   103   177   175   ar
   104   173   175   ar
   105   173   172    1
   106   105   104    1
   107    65    66    1
   108   132   131    1
   109   132   133    1
   110   127   128    1
   111   127   124    1
   112   103   102    2
   113   106   104    1
   114   169   170    1
   115   169   172    1
   116   169   168    1
   117   131   125   am
   118   167   166    2
   119   134   133    2
   120   104   101    1
   121   101   102    1
   122   101   100    1
   123   125   126    2
   124   125   124    1
   125    76    74    1
   126   123   124    1
   127   102   107   am
   128    69    66    1
   129    66    67    1
   130   168   166   am
   131   166   165    1
   132    70    67   am
   133    70    71    1
   134    74    71    1
   135    74    75    1
   136   110   109    2
   137    67    68    2
   138   107   108    1
   139   109   108    1
   140    93    91    1
   141    71    72    1
   142   165   164    1
   143    75    77    1
   144   108   111    1
   145   150   149    2
   146   152   154    1
   147   152   153    1
   148   152   151    1
   149   162   161    2
   150    94    92    1
   151    90    89    2
   152    72    73    2
   153    92    91    1
   154   151   148    1
   155   149   148    1
   156   149   155   am
   157    91    88    1
   158   158   157    2
   159   161   163   am
   160   161   160    1
   161   148   147    1
   162    89    88    1
   163    89    95   am
   164    98    97    2
   165   145   144    1
   166   156   157    1
   167   156   155    1
   168   156   159    1
   169    88    87    1
   170    86    84   am
   171    96    95    1
   172    96    97    1
   173    96    99    1
   174   160   159    1
   175   144   146    1
   176   144   143    1
   177    85    84    2
   178    84    83    1
   179   142   141    2
   180    81    80    2
   181   140   143    1
   182   140   141    1
   183   140   139    1
   184    79    82    1
   185    79    80    1
   186    79    78    1
   187    82    83    1
   188   205   203   ar
   189   205   206   ar
   190   203   202   ar
   191   208   206   ar
   192   208   210   ar
   193   206   204   ar
   194   202   204   ar
   195   202   201    1
   196   210   209   ar
   197   204   207   ar
   198   201   198    1
   199   209   207   ar
   200   198   197    1
   201   198   199    1
   202   199   200    2
