@<TRIPOS>MOLECULE
tmp/3jwxA02.pdb
 200 195 0 0 0
SMALL
GASTEIGER

@<TRIPOS>ATOM
      1  N         17.7470   11.3580   45.7390 N.3    40  VAL40      -0.1231
      2  CA        17.4100   11.5270   44.3230 C.3    40  VAL40       0.1692
      3  C         18.4760   10.9280   43.4060 C.2    40  VAL40       0.2591
      4  O         18.1500   10.2440   42.4260 O.2    40  VAL40      -0.2718
      5  CB        17.1990   13.0320   43.9890 C.3    40  VAL40       0.0266
      6  CG1       17.0090   13.2710   42.4660 C.3    40  VAL40       0.0020
      7  CG2       16.0560   13.5870   44.7980 C.3    40  VAL40       0.0020
      8  N         19.7400   11.1880   43.7530 N.am   41  LEU41      -0.1980
      9  CA        20.9020   10.7540   42.9760 C.3    41  LEU41       0.1596
     10  C         21.6800    9.5740   43.5950 C.2    41  LEU41       0.2287
     11  O         21.9650    9.5880   44.7960 O.2    41  LEU41      -0.2864
     12  CB        21.8910   11.9270   42.8210 C.3    41  LEU41       0.0297
     13  CG        21.6190   13.0920   41.8600 C.3    41  LEU41       0.0022
     14  CD1       22.8420   14.0670   41.7680 C.3    41  LEU41       0.0001
     15  CD2       21.2610   12.5780   40.4740 C.3    41  LEU41       0.0001
     16  N         11.0260    4.4360   38.7530 N.3   106  ARG106     -0.1231
     17  CA        10.3790    5.6970   39.0830 C.3   106  ARG106      0.1694
     18  C          9.1980    6.0540   38.1980 C.2   106  ARG106      0.2592
     19  O          8.5300    7.0600   38.4600 O.2   106  ARG106     -0.2718
     20  CB        11.4040    6.8420   39.1310 C.3   106  ARG106      0.0321
     21  CG        12.2460    6.8260   40.4050 C.3   106  ARG106      0.0489
     22  CD        13.5310    7.6480   40.3050 C.3   106  ARG106      0.2205
     23  NE        14.2290    7.7320   41.6000 N.pl3 106  ARG106     -0.0865
     24  CZ        15.3590    8.4230   41.7950 C.cat 106  ARG106      0.5346
     25  NH1       15.9230    9.0710   40.7750 N.pl3 106  ARG106      0.1354
     26  NH2       15.9380    8.4580   43.0000 N.pl3 106  ARG106      0.1354
     27  N          8.9260    5.2310   37.1790 N.am  107  CYS107     -0.1970
     28  CA         7.8910    5.5290   36.2000 C.3   107  CYS107      0.1712
     29  C          6.5480    4.8580   36.5340 C.2   107  CYS107      0.2296
     30  O          6.4150    3.6180   36.4850 O.2   107  CYS107     -0.2864
     31  CB         8.3170    5.1080   34.7880 C.3   107  CYS107      0.0983
     32  SG         7.0430    5.4960   33.5350 S.3   107  CYS107     -0.0798
     33  N         17.5100   19.3640   29.3310 N.3   169  SER169     -0.1202
     34  CA        17.0160   18.2030   30.0890 C.3   169  SER169      0.2020
     35  C         15.7200   17.6290   29.5040 C.2   169  SER169      0.2618
     36  O         15.4290   16.4480   29.6690 O.2   169  SER169     -0.2717
     37  CB        16.8480   18.5390   31.5740 C.3   169  SER169      0.2103
     38  OG        15.8910   19.5690   31.7490 O.3   169  SER169     -0.2182
     39  N         14.9540   18.4800   28.8250 N.am  170  GLN170     -0.1979
     40  CA        13.8290   18.0450   28.0240 C.3   170  GLN170      0.1601
     41  C         13.8520   18.7520   26.6700 C.2   170  GLN170      0.2287
     42  O         14.4350   19.8160   26.5540 O.2   170  GLN170     -0.2864
     43  CB        12.4970   18.3650   28.7300 C.3   170  GLN170      0.0394
     44  CG        12.2600   17.6570   30.0420 C.3   170  GLN170      0.0908
     45  CD        10.9060   18.0380   30.6510 C.2   170  GLN170      0.2608
     46  OE1        9.9020   18.1660   29.9500 O.2   170  GLN170     -0.2717
     47  NE2       10.8890   18.2350   31.9610 N.am  170  GLN170     -0.0878
     48  N         11.1450   23.1220   27.2400 N.3   173  ARG173     -0.1245
     49  CA        11.4090   23.7530   28.5390 C.3   173  ARG173      0.1563
     50  C         11.1530   25.2470   28.3710 C.2   173  ARG173      0.2260
     51  O         11.4090   25.7930   27.2940 O.2   173  ARG173     -0.2867
     52  CB        12.8960   23.6020   28.8940 C.3   173  ARG173      0.0307
     53  CG        13.3680   22.1710   29.0750 C.3   173  ARG173      0.0489
     54  CD        13.3680   21.8020   30.5370 C.3   173  ARG173      0.2205
     55  NE        12.0120   21.7180   31.0290 N.pl3 173  ARG173     -0.0865
     56  CZ        11.6660   21.6490   32.3120 C.cat 173  ARG173      0.5346
     57  NH1       12.5820   21.6760   33.2780 N.pl3 173  ARG173      0.1354
     58  NH2       10.3650   21.5600   32.6170 N.pl3 173  ARG173      0.1354
     59  N          5.8990   15.7790   27.2330 N.3   257  PRO257     -0.2116
     60  CA         7.0060   15.5700   28.1420 C.3   257  PRO257      0.1372
     61  C          8.0310   14.6650   27.4680 C.2   257  PRO257      0.2244
     62  O          7.7530   13.4940   27.2140 O.2   257  PRO257     -0.2868
     63  CB         6.3490   14.8740   29.3470 C.3   257  PRO257      0.0268
     64  CG         5.0800   14.2250   28.8050 C.3   257  PRO257      0.0207
     65  CD         4.8640   14.7420   27.3910 C.3   257  PRO257      0.0892
     66  N         11.9730   13.6690   27.8900 N.3   259  VAL259     -0.1245
     67  CA        13.2100   13.7140   28.6520 C.3   259  VAL259      0.1561
     68  C         14.4080   13.4780   27.7280 C.2   259  VAL259      0.2260
     69  O         14.4240   12.5140   26.9510 O.2   259  VAL259     -0.2867
     70  CB        13.1600   12.6540   29.7860 C.3   259  VAL259      0.0252
     71  CG1       14.4450   12.5880   30.5520 C.3   259  VAL259      0.0019
     72  CG2       11.9720   12.9460   30.7310 C.3   259  VAL259      0.0019
     73  N         18.0810   14.1700   28.6300 N.3   261  ASN261     -0.1225
     74  CA        19.4600   14.0930   29.1730 C.3   261  ASN261      0.1785
     75  C         19.8280   12.7880   29.8740 C.2   261  ASN261      0.2597
     76  O         20.9370   12.6620   30.4110 O.2   261  ASN261     -0.2718
     77  CB        19.7760   15.2970   30.0820 C.3   261  ASN261      0.1169
     78  CG        18.9190   15.3330   31.3500 C.2   261  ASN261      0.2627
     79  OD1       19.2020   16.1250   32.2460 O.2   261  ASN261     -0.2716
     80  ND2       17.8610   14.5010   31.4270 N.am  261  ASN261     -0.0877
     81  N         18.9290   11.8130   29.8470 N.am  262  MET262     -0.1979
     82  CA        19.2190   10.4870   30.3900 C.3   262  MET262      0.1605
     83  C         20.0180    9.5680   29.4540 C.2   262  MET262      0.2287
     84  O         19.8490    9.5910   28.2320 O.2   262  MET262     -0.2864
     85  CB        17.9330    9.8200   30.8290 C.3   262  MET262      0.0413
     86  CG        17.2870   10.6390   31.9460 C.3   262  MET262      0.0598
     87  SD        16.1300    9.7460   32.9520 S.3   262  MET262     -0.1393
     88  CE        17.2290    8.6720   33.8720 C.3   262  MET262      0.0692
     89  N         13.3730   10.4390   24.9720 N.3   276  PHE276     -0.1227
     90  CA        12.1380    9.6680   24.9280 C.3   276  PHE276      0.1736
     91  C         10.9680   10.5110   25.4110 C.2   276  PHE276      0.2596
     92  O         11.1720   11.4950   26.1150 O.2   276  PHE276     -0.2718
     93  CB        12.2500    8.4060   25.7980 C.3   276  PHE276      0.0547
     94  CG        12.5190    8.6870   27.2590 C.ar  276  PHE276     -0.0202
     95  CD1       11.4640    8.9660   28.1390 C.ar  276  PHE276     -0.0042
     96  CD2       13.8230    8.6600   27.7550 C.ar  276  PHE276     -0.0042
     97  CE1       11.6970    9.2170   29.4970 C.ar  276  PHE276     -0.0003
     98  CE2       14.0750    8.9030   29.1180 C.ar  276  PHE276     -0.0003
     99  CZ        13.0030    9.1860   29.9910 C.ar  276  PHE276     -0.0000
    100  N          9.7370   10.1020   25.0790 N.am  277  SER277     -0.1938
    101  CA         8.5660   10.9050   25.4380 C.3   277  SER277      0.2055
    102  C          7.3000   10.0550   25.5910 C.2   277  SER277      0.2644
    103  O          7.1840    8.9830   24.9880 O.2   277  SER277     -0.2714
    104  CB         8.3320   12.0210   24.3920 C.3   277  SER277      0.2130
    105  OG         7.7750   11.5090   23.1830 O.3   277  SER277     -0.2179
    106  N          6.3600   10.5400   26.4020 N.am  278  GLY278     -0.1939
    107  CA         5.0540    9.8790   26.5970 C.3   278  GLY278      0.2014
    108  C          3.9600   10.9270   26.5800 C.2   278  GLY278      0.2639
    109  O          3.8530   11.6890   25.6190 O.2   278  GLY278     -0.2714
    110  N          3.1300   10.9340   27.6270 N.am  279  TRP279     -0.1959
    111  CA         2.1910   12.0160   27.9250 C.3   279  TRP279      0.1771
    112  C          2.2040   12.2830   29.4320 C.2   279  TRP279      0.2619
    113  O          2.6390   11.4350   30.2050 O.2   279  TRP279     -0.2715
    114  CB         0.7720   11.6950   27.4280 C.3   279  TRP279      0.0590
    115  CG         0.1990   10.3960   27.9210 C.ar  279  TRP279      0.0006
    116  CD1       -0.3770   10.1480   29.1600 C.ar  279  TRP279      0.0946
    117  CD2        0.1190    9.1610   27.1880 C.ar  279  TRP279      0.0152
    118  NE1       -0.7950    8.8330   29.2230 N.ar  279  TRP279     -0.2442
    119  CE2       -0.5070    8.2070   28.0350 C.ar  279  TRP279      0.0810
    120  CE3        0.5210    8.7650   25.9000 C.ar  279  TRP279      0.0012
    121  CZ2       -0.7420    6.8750   27.6310 C.ar  279  TRP279      0.0191
    122  CZ3        0.2900    7.4370   25.4970 C.ar  279  TRP279      0.0001
    123  CH2       -0.3350    6.5080   26.3610 C.ar  279  TRP279      0.0015
    124  N          1.7110   13.4510   29.8500 N.am  280  TYR280     -0.1974
    125  CA         1.7350   13.8460   31.2670 C.3   280  TYR280      0.1639
    126  C          0.7170   13.1310   32.1570 C.2   280  TYR280      0.2290
    127  O         -0.3950   12.8470   31.7470 O.2   280  TYR280     -0.2864
    128  CB         1.4730   15.3490   31.4080 C.3   280  TYR280      0.0560
    129  CG         2.7040   16.1860   31.2960 C.ar  280  TYR280     -0.0198
    130  CD1        3.6860   16.1350   32.2820 C.ar  280  TYR280     -0.0009
    131  CD2        2.9000   17.0450   30.2030 C.ar  280  TYR280     -0.0009
    132  CE1        4.8330   16.8980   32.1870 C.ar  280  TYR280      0.0417
    133  CE2        4.0480   17.8240   30.1070 C.ar  280  TYR280      0.0417
    134  CZ         4.9980   17.7510   31.1080 C.ar  280  TYR280      0.1957
    135  OH         6.1400   18.4980   31.0460 O.3   280  TYR280     -0.2866
    136  N          2.0480   16.2650   37.6500 N.3   284  GLU284     -0.1245
    137  CA         3.4060   16.7320   37.3130 C.3   284  GLU284      0.1567
    138  C          3.3460   18.2280   37.0360 C.2   284  GLU284      0.2260
    139  O          4.1840   18.9880   37.5150 O.2   284  GLU284     -0.2867
    140  CB         3.9740   15.9950   36.0930 C.3   284  GLU284      0.0388
    141  CG         3.9840   14.4850   36.2320 C.3   284  GLU284      0.1160
    142  CD         4.4800   13.7820   34.9670 C.2   284  GLU284      0.3649
    143  OE1        5.7080   13.7720   34.7280 O.co2 284  GLU284     -0.2457
    144  OE2        3.6450   13.2200   34.2290 O.co2 284  GLU284     -0.2457
    145  N          3.6540   19.8280   40.8940 N.3   288  ARG288     -0.1231
    146  CA         5.1030   20.1220   40.9880 C.3   288  ARG288      0.1694
    147  C          5.5010   21.3800   40.2060 C.2   288  ARG288      0.2592
    148  O          6.0040   22.3370   40.7920 O.2   288  ARG288     -0.2718
    149  CB         5.9550   18.9200   40.5640 C.3   288  ARG288      0.0321
    150  CG         5.5730   17.5970   41.2940 C.3   288  ARG288      0.0489
    151  CD         5.8140   17.6540   42.8350 C.3   288  ARG288      0.2205
    152  NE         7.0750   18.2920   43.1190 N.pl3 288  ARG288     -0.0865
    153  CZ         8.2600   17.6970   43.0120 C.cat 288  ARG288      0.5346
    154  NH1        8.3420   16.4160   42.6620 N.pl3 288  ARG288      0.1354
    155  NH2        9.3620   18.3920   43.2230 N.pl3 288  ARG288      0.1354
    156  N          5.2570   21.3960   38.8970 N.am  289  ASN289     -0.1974
    157  CA         5.7380   22.5090   38.0630 C.3   289  ASN289      0.1688
    158  C          5.1300   23.8500   38.4720 C.2   289  ASN289      0.2292
    159  O          5.8150   24.8440   38.5230 O.2   289  ASN289     -0.2864
    160  CB         5.4730   22.2360   36.5810 C.3   289  ASN289      0.1181
    161  CG         6.2130   21.0100   36.0670 C.2   289  ASN289      0.2629
    162  OD1        7.1630   20.5280   36.6880 O.2   289  ASN289     -0.2716
    163  ND2        5.7850   20.5050   34.9220 N.am  289  ASN289     -0.0877
    164  N          9.7490   26.3870   42.0110 N.3   295  ARG295     -0.1245
    165  CA         9.3180   26.4510   40.6200 C.3   295  ARG295      0.1563
    166  C          8.4380   27.6870   40.4180 C.2   295  ARG295      0.2260
    167  O          8.7750   28.7640   40.9080 O.2   295  ARG295     -0.2867
    168  CB         8.6200   25.1540   40.1840 C.3   295  ARG295      0.0307
    169  CG         9.5300   23.9150   40.2810 C.3   295  ARG295      0.0489
    170  CD        10.7200   23.9450   39.2780 C.3   295  ARG295      0.2205
    171  NE        10.2580   23.9000   37.8920 N.pl3 295  ARG295     -0.0865
    172  CZ         9.7390   22.8250   37.3120 C.cat 295  ARG295      0.5346
    173  NH1        9.6130   21.6930   38.0030 N.pl3 295  ARG295      0.1354
    174  NH2        9.3250   22.8810   36.0480 N.pl3 295  ARG295      0.1354
    175  N          8.4800    7.9590   44.4930 N.3   370  TRP370     -0.1241
    176  CA         8.2140    8.5630   43.1800 C.3   370  TRP370      0.1605
    177  C          6.8930    8.1430   42.5480 C.2   370  TRP370      0.2264
    178  O          6.3030    8.9040   41.7670 O.2   370  TRP370     -0.2867
    179  CB         9.3690    8.2940   42.2150 C.3   370  TRP370      0.0550
    180  CG        10.6170    9.1000   42.4900 C.ar  370  TRP370      0.0003
    181  CD1       11.3780    9.1020   43.6190 C.ar  370  TRP370      0.0946
    182  CD2       11.2520    9.9970   41.5730 C.ar  370  TRP370      0.0152
    183  NE1       12.4550    9.9550   43.4660 N.ar  370  TRP370     -0.2442
    184  CE2       12.3960   10.5160   42.2160 C.ar  370  TRP370      0.0810
    185  CE3       10.9630   10.4000   40.2600 C.ar  370  TRP370      0.0012
    186  CZ2       13.2570   11.4260   41.5970 C.ar  370  TRP370      0.0191
    187  CZ3       11.8280   11.3060   39.6250 C.ar  370  TRP370      0.0001
    188  CH2       12.9590   11.8140   40.3090 C.ar  370  TRP370      0.0015
    189  N         20.5140    8.5310   35.0300 N.3   398  TYR398     -0.1241
    190  CA        20.7870    9.9470   35.0430 C.3   398  TYR398      0.1605
    191  C         22.2570   10.1190   34.6680 C.2   398  TYR398      0.2264
    192  O         23.0850    9.2540   34.9350 O.2   398  TYR398     -0.2867
    193  CB        20.4910   10.5310   36.4240 C.3   398  TYR398      0.0534
    194  CG        20.6880   12.0370   36.5060 C.ar  398  TYR398     -0.0201
    195  CD1       19.6930   12.9270   36.0490 C.ar  398  TYR398     -0.0009
    196  CD2       21.8800   12.5750   37.0250 C.ar  398  TYR398     -0.0009
    197  CE1       19.8840   14.3280   36.1240 C.ar  398  TYR398      0.0417
    198  CE2       22.0840   13.9650   37.1070 C.ar  398  TYR398      0.0417
    199  CZ        21.0880   14.8350   36.6550 C.ar  398  TYR398      0.1957
    200  OH        21.2960   16.2080   36.7430 O.3   398  TYR398     -0.2866
@<TRIPOS>BOND
     1   105   104    1
     2   104   101    1
     3    90    89    1
     4    90    91    1
     5    90    93    1
     6   103   102    2
     7   100    91   am
     8   100   101    1
     9    91    92    2
    10   101   102    1
    11   122   120   ar
    12   122   123   ar
    13   102   106   am
    14   109   108    2
    15    93    94    1
    16   120   117   ar
    17   123   121   ar
    18   106   107    1
    19    42    41    2
    20   108   107    1
    21   108   110   am
    22    41    40    1
    23    69    68    2
    24   117   115   ar
    25   117   119   ar
    26    62    61    2
    27    59    65    1
    28    59    60    1
    29    48    49    1
    30    94    96   ar
    31    94    95   ar
    32    51    50    2
    33    65    64    1
    34   114   115    1
    35   114   111    1
    36    61    60    1
    37   110   111    1
    38   121   119   ar
    39    68    67    1
    40    96    98   ar
    41    66    67    1
    42   115   116   ar
    43   111   112    1
    44    40    43    1
    45    40    39    1
    46   119   118   ar
    47    95    97   ar
    48    60    63    1
    49    84    83    2
    50    50    49    1
    51    49    52    1
    52    73    74    1
    53    67    70    1
    54    43    44    1
    55    64    63    1
    56    39    35   am
    57    52    53    1
    58    53    54    1
    59    98    99   ar
    60   116   118   ar
    61    74    75    1
    62    74    77    1
    63    33    34    1
    64   112   124   am
    65   112   113    2
    66    83    82    1
    67    97    99   ar
    68    35    36    2
    69    35    34    1
    70    70    71    1
    71    70    72    1
    72    81    75   am
    73    81    82    1
    74   124   125    1
    75    75    76    2
    76    46    45    2
    77    44    45    1
    78    77    78    1
    79    34    37    1
    80   133   131   ar
    81   133   134   ar
    82   131   129   ar
    83    82    85    1
    84    54    55    1
    85    45    47   am
    86    85    86    1
    87    55    56    2
    88   135   134    1
    89   134   132   ar
    90   125   128    1
    91   125   126    1
    92   129   128    1
    93   129   130   ar
    94    78    80   am
    95    78    79    2
    96    37    38    1
    97   127   126    2
    98    86    87    1
    99   132   130   ar
   100    56    58    1
   101    56    57    1
   102    87    88    1
   103    32    31    1
   104   144   142   ar
   105   191   192    2
   106   191   190    1
   107   143   142   ar
   108    31    28    1
   109   163   161   am
   110   142   141    1
   111   189   190    1
   112   190   193    1
   113   174   172    1
   114   195   197   ar
   115   195   194   ar
   116   161   160    1
   117   161   162    2
   118   140   141    1
   119   140   137    1
   120   197   199   ar
   121    28    29    1
   122    28    27    1
   123   193   194    1
   124    30    29    2
   125   194   196   ar
   126   160   157    1
   127   199   200    1
   128   199   198   ar
   129   196   198   ar
   130   138   137    1
   131   138   139    2
   132    27    18   am
   133   172   171    2
   134   172   173    1
   135   137   136    1
   136   171   170    1
   137   157   158    1
   138   157   156    1
   139    18    19    2
   140    18    17    1
   141   158   159    2
   142    16    17    1
   143   156   147   am
   144    17    20    1
   145    20    21    1
   146   170   169    1
   147   187   185   ar
   148   187   188   ar
   149   168   169    1
   150   168   165    1
   151   147   148    2
   152   147   146    1
   153   185   182   ar
   154    22    21    1
   155    22    23    1
   156   188   186   ar
   157   166   165    1
   158   166   167    2
   159    15    13    1
   160   149   146    1
   161   149   150    1
   162   165   164    1
   163    25    24    1
   164   145   146    1
   165   150   151    1
   166   182   184   ar
   167   182   180   ar
   168   186   184   ar
   169    23    24    2
   170   178   177    2
   171    14    13    1
   172    24    26    1
   173    13    12    1
   174   179   180    1
   175   179   176    1
   176   184   183   ar
   177     4     3    2
   178     6     5    1
   179   180   181   ar
   180   177   176    1
   181   154   153    1
   182    12     9    1
   183   151   152    1
   184     9    10    1
   185     9     8    1
   186   153   152    2
   187   153   155    1
   188   176   175    1
   189     3     8   am
   190     3     2    1
   191   183   181   ar
   192    10    11    2
   193     5     2    1
   194     5     7    1
   195     2     1    1
