@<TRIPOS>MOLECULE
tmp/3jx1B03.pdb
 195 190 0 0 0
SMALL
GASTEIGER

@<TRIPOS>ATOM
      1  N         17.8940   12.3950   47.5820 N.3    38  MET38      -0.1230
      2  CA        17.6330   11.9240   48.9590 C.3    38  MET38       0.1702
      3  C         17.3580   13.0550   49.9660 C.2    38  MET38       0.2592
      4  O         16.4470   12.9430   50.7790 O.2    38  MET38      -0.2718
      5  CB        18.7630   11.0350   49.4730 C.3    38  MET38       0.0401
      6  CG        18.8490    9.7110   48.7590 C.3    38  MET38       0.0596
      7  SD        19.8940    8.4980   49.5790 S.3    38  MET38      -0.1393
      8  CE        18.7740    7.9700   50.8630 C.3    38  MET38       0.0692
      9  N         18.1350   14.1410   49.9020 N.am   39  LEU39      -0.1980
     10  CA        17.8960   15.3210   50.7730 C.3    39  LEU39       0.1596
     11  C         17.5480   16.5440   49.9250 C.2    39  LEU39       0.2287
     12  O         18.4150   17.3740   49.6620 O.2    39  LEU39      -0.2864
     13  CB        19.1180   15.6060   51.6670 C.3    39  LEU39       0.0297
     14  CG        19.6020   14.4310   52.5170 C.3    39  LEU39       0.0022
     15  CD1       21.0720   14.5780   52.9350 C.3    39  LEU39       0.0001
     16  CD2       18.7170   14.2600   53.7320 C.3    39  LEU39       0.0001
     17  N          7.5150    7.9100   52.4010 N.3   107  ARG107     -0.1231
     18  CA         8.4840    6.9120   51.9710 C.3   107  ARG107      0.1694
     19  C          8.2290    5.5660   52.6460 C.2   107  ARG107      0.2592
     20  O          8.9600    4.6030   52.4060 O.2   107  ARG107     -0.2718
     21  CB         9.9050    7.4010   52.2520 C.3   107  ARG107      0.0321
     22  CG        10.2950    8.5660   51.3650 C.3   107  ARG107      0.0489
     23  CD        11.4920    9.2900   51.8830 C.3   107  ARG107      0.2205
     24  NE        12.1690   10.0100   50.8030 N.pl3 107  ARG107     -0.0865
     25  CZ        13.1640   10.8740   50.9910 C.cat 107  ARG107      0.5346
     26  NH1       13.5990   11.1270   52.2260 N.pl3 107  ARG107      0.1354
     27  NH2       13.7420   11.4680   49.9380 N.pl3 107  ARG107      0.1354
     28  N          7.1600    5.4850   53.4300 N.am  108  CYS108     -0.1970
     29  CA         6.9100    4.2870   54.2330 C.3   108  CYS108      0.1712
     30  C          5.8090    3.4200   53.6250 C.2   108  CYS108      0.2296
     31  O          4.6440    3.8260   53.5380 O.2   108  CYS108     -0.2864
     32  CB         6.5640    4.6680   55.6930 C.3   108  CYS108      0.0983
     33  SG         6.1260    3.2340   56.6650 S.3   108  CYS108     -0.0798
     34  N         20.1210    3.9900   64.1560 N.3   171  GLN171     -0.1245
     35  CA        19.1350    3.0000   64.5970 C.3   171  GLN171      0.1566
     36  C         19.5580    2.5150   65.9740 C.2   171  GLN171      0.2260
     37  O         20.7580    2.4970   66.2950 O.2   171  GLN171     -0.2867
     38  CB        19.0550    1.7980   63.6630 C.3   171  GLN171      0.0367
     39  CG        18.6330    2.1050   62.2290 C.3   171  GLN171      0.0905
     40  CD        18.6070    0.8670   61.3190 C.2   171  GLN171      0.2608
     41  OE1       19.0110    0.9390   60.1590 O.2   171  GLN171     -0.2717
     42  NE2       18.0720   -0.2430   61.8250 N.am  171  GLN171     -0.0878
     43  N         22.3530   -1.5860   65.6330 N.3   174  ARG174     -0.1245
     44  CA        23.1530   -1.6590   64.4190 C.3   174  ARG174      0.1563
     45  C         24.4880   -2.3260   64.7050 C.2   174  ARG174      0.2260
     46  O         24.9270   -2.3750   65.8670 O.2   174  ARG174     -0.2867
     47  CB        23.4350   -0.2560   63.8660 C.3   174  ARG174      0.0307
     48  CG        22.2780    0.3560   63.0710 C.3   174  ARG174      0.0489
     49  CD        22.7730    1.4310   62.1080 C.3   174  ARG174      0.2205
     50  NE        22.7520    1.0030   60.7220 N.pl3 174  ARG174     -0.0865
     51  CZ        23.0220    1.8110   59.6990 C.cat 174  ARG174      0.5346
     52  NH1       23.2990    3.0910   59.9040 N.pl3 174  ARG174      0.1354
     53  NH2       22.9600    1.3620   58.4650 N.pl3 174  ARG174      0.1354
     54  N         13.9280   -3.2640   63.6440 N.3   258  PRO258     -0.2116
     55  CA        14.4020   -2.0730   62.9870 C.3   258  PRO258      0.1372
     56  C         13.8560   -0.8740   63.7470 C.2   258  PRO258      0.2244
     57  O         12.6330   -0.7310   63.9000 O.2   258  PRO258     -0.2868
     58  CB        13.8170   -2.1770   61.5740 C.3   258  PRO258      0.0268
     59  CG        12.5800   -3.0600   61.7100 C.3   258  PRO258      0.0207
     60  CD        12.6910   -3.7950   63.0310 C.3   258  PRO258      0.0892
     61  N         14.3870    3.2120   63.9980 N.3   260  VAL260     -0.1245
     62  CA        15.0340    4.4340   63.4850 C.3   260  VAL260      0.1561
     63  C         15.1150    5.4850   64.5890 C.2   260  VAL260      0.2260
     64  O         14.0810    5.8690   65.1750 O.2   260  VAL260     -0.2867
     65  CB        14.3240    4.9660   62.2280 C.3   260  VAL260      0.0252
     66  CG1       14.7820    6.3870   61.8660 C.3   260  VAL260      0.0019
     67  CG2       14.6240    4.0180   61.0220 C.3   260  VAL260      0.0019
     68  N         17.3700    8.5470   64.4030 N.3   262  ASN262     -0.1225
     69  CA        17.9810    9.8170   64.0220 C.3   262  ASN262      0.1785
     70  C         17.0180   10.8280   63.4200 C.2   262  ASN262      0.2597
     71  O         17.4530   11.8500   62.8910 O.2   262  ASN262     -0.2718
     72  CB        19.1230    9.5950   63.0130 C.3   262  ASN262      0.1169
     73  CG        18.6760    8.8040   61.7770 C.2   262  ASN262      0.2627
     74  OD1       17.5280    8.3600   61.6660 O.2   262  ASN262     -0.2716
     75  ND2       19.5950    8.6130   60.8540 N.am  262  ASN262     -0.0877
     76  N         15.7200   10.5610   63.4720 N.am  263  MET263     -0.1979
     77  CA        14.7830   11.4810   62.8260 C.3   263  MET263      0.1605
     78  C         14.1690   12.4940   63.7690 C.2   263  MET263      0.2287
     79  O         14.2560   12.3180   64.9790 O.2   263  MET263     -0.2864
     80  CB        13.7470   10.7150   62.0340 C.3   263  MET263      0.0413
     81  CG        14.4620   10.2190   60.7530 C.3   263  MET263      0.0598
     82  SD        13.3730    9.4670   59.6430 S.3   263  MET263     -0.1393
     83  CE        12.9290   10.8380   58.5880 C.3   263  MET263      0.0692
     84  N         11.6950    5.2330   66.8290 N.3   277  PHE277     -0.1227
     85  CA        10.4710    4.4730   66.5670 C.3   277  PHE277      0.1736
     86  C         10.8130    3.1160   65.9120 C.2   277  PHE277      0.2596
     87  O         11.8960    2.9150   65.3950 O.2   277  PHE277     -0.2718
     88  CB         9.4860    5.2980   65.7080 C.3   277  PHE277      0.0547
     89  CG        10.0700    5.7440   64.3570 C.ar  277  PHE277     -0.0202
     90  CD1       10.0310    4.9130   63.2440 C.ar  277  PHE277     -0.0042
     91  CD2       10.6680    6.9860   64.2200 C.ar  277  PHE277     -0.0042
     92  CE1       10.5630    5.3120   62.0370 C.ar  277  PHE277     -0.0003
     93  CE2       11.2130    7.3880   62.9900 C.ar  277  PHE277     -0.0003
     94  CZ        11.1510    6.5530   61.9080 C.ar  277  PHE277     -0.0000
     95  N          9.8940    2.1730   65.9520 N.am  278  SER278     -0.1938
     96  CA        10.2450    0.8590   65.4480 C.3   278  SER278      0.2055
     97  C          9.0170    0.1400   64.9600 C.2   278  SER278      0.2644
     98  O          7.9100    0.4190   65.4260 O.2   278  SER278     -0.2714
     99  CB        11.0100    0.0210   66.5150 C.3   278  SER278      0.2130
    100  OG        10.2140   -0.3060   67.6510 O.3   278  SER278     -0.2179
    101  N          9.2140   -0.7380   63.9730 N.am  279  GLY279     -0.1939
    102  CA         8.1530   -1.6290   63.5240 C.3   279  GLY279      0.2014
    103  C          8.7410   -3.0160   63.3370 C.2   279  GLY279      0.2639
    104  O          9.2660   -3.6050   64.2900 O.2   279  GLY279     -0.2714
    105  N          8.6600   -3.5350   62.1110 N.am  280  TRP280     -0.1959
    106  CA         9.3040   -4.8000   61.7710 C.3   280  TRP280      0.1771
    107  C          9.8380   -4.6860   60.3480 C.2   280  TRP280      0.2619
    108  O          9.4570   -3.7680   59.6150 O.2   280  TRP280     -0.2715
    109  CB         8.3460   -5.9950   61.9090 C.3   280  TRP280      0.0590
    110  CG         7.0150   -5.8690   61.2060 C.ar  280  TRP280      0.0006
    111  CD1        6.7480   -6.1120   59.8650 C.ar  280  TRP280      0.0946
    112  CD2        5.7660   -5.4860   61.7960 C.ar  280  TRP280      0.0152
    113  NE1        5.4090   -5.8850   59.6000 N.ar  280  TRP280     -0.2442
    114  CE2        4.7880   -5.5090   60.7690 C.ar  280  TRP280      0.0810
    115  CE3        5.3770   -5.1100   63.0970 C.ar  280  TRP280      0.0012
    116  CZ2        3.4440   -5.1990   61.0140 C.ar  280  TRP280      0.0191
    117  CZ3        4.0530   -4.7860   63.3300 C.ar  280  TRP280      0.0001
    118  CH2        3.0980   -4.8430   62.2960 C.ar  280  TRP280      0.0015
    119  N         10.7230   -5.5900   59.9610 N.am  281  TYR281     -0.1974
    120  CA        11.3290   -5.5070   58.6200 C.3   281  TYR281      0.1639
    121  C         10.4850   -6.0370   57.4920 C.2   281  TYR281      0.2290
    122  O          9.7290   -7.0060   57.6640 O.2   281  TYR281     -0.2864
    123  CB        12.6180   -6.3110   58.5880 C.3   281  TYR281      0.0560
    124  CG        13.8480   -5.5780   59.0520 C.ar  281  TYR281     -0.0198
    125  CD1       14.5080   -5.9460   60.2170 C.ar  281  TYR281     -0.0009
    126  CD2       14.4100   -4.5680   58.2660 C.ar  281  TYR281     -0.0009
    127  CE1       15.6740   -5.2860   60.6200 C.ar  281  TYR281      0.0417
    128  CE2       15.5890   -3.9110   58.6560 C.ar  281  TYR281      0.0417
    129  CZ        16.2090   -4.2850   59.8280 C.ar  281  TYR281      0.1957
    130  OH        17.3640   -3.6190   60.1780 O.3   281  TYR281     -0.2866
    131  N         14.8910   -5.1940   52.8880 N.3   285  GLU285     -0.1245
    132  CA        15.7600   -4.2260   53.5730 C.3   285  GLU285      0.1567
    133  C         17.0750   -4.9080   53.9780 C.2   285  GLU285      0.2260
    134  O         18.1620   -4.3440   53.7890 O.2   285  GLU285     -0.2867
    135  CB        15.0900   -3.6010   54.8140 C.3   285  GLU285      0.0388
    136  CG        13.6920   -2.9370   54.5640 C.3   285  GLU285      0.1160
    137  CD        13.0650   -2.3630   55.8560 C.2   285  GLU285      0.3649
    138  OE1       13.6720   -1.4000   56.3950 O.co2 285  GLU285     -0.2457
    139  OE2       11.9910   -2.8550   56.3400 O.co2 285  GLU285     -0.2457
    140  N         19.3560   -4.7540   50.4180 N.3   289  ARG289     -0.1231
    141  CA        20.1550   -3.5620   50.7320 C.3   289  ARG289      0.1694
    142  C         21.3330   -3.8660   51.6820 C.2   289  ARG289      0.2592
    143  O         22.5020   -3.6670   51.3320 O.2   289  ARG289     -0.2718
    144  CB        19.2640   -2.4320   51.3090 C.3   289  ARG289      0.0321
    145  CG        18.0750   -2.0180   50.3790 C.3   289  ARG289      0.0489
    146  CD        18.5380   -1.5730   48.9220 C.3   289  ARG289      0.2205
    147  NE        19.6200   -0.5920   48.9370 N.pl3 289  ARG289     -0.0865
    148  CZ        19.4780    0.6760   49.3180 C.cat 289  ARG289      0.5346
    149  NH1       18.2670    1.1480   49.6650 N.pl3 289  ARG289      0.1354
    150  NH2       20.5470    1.4670   49.3430 N.pl3 289  ARG289      0.1354
    151  N         21.0250   -4.3650   52.8650 N.am  290  ASN290     -0.1974
    152  CA        22.0660   -4.5450   53.8830 C.3   290  ASN290      0.1688
    153  C         23.1050   -5.5890   53.4890 C.2   290  ASN290      0.2292
    154  O         24.3050   -5.4240   53.7530 O.2   290  ASN290     -0.2864
    155  CB        21.4520   -4.8740   55.2490 C.3   290  ASN290      0.1181
    156  CG        20.4650   -3.8220   55.6920 C.2   290  ASN290      0.2629
    157  OD1       20.4030   -2.7420   55.1060 O.2   290  ASN290     -0.2716
    158  ND2       19.6700   -4.1370   56.7100 N.am  290  ASN290     -0.0877
    159  N         27.8720   -2.0640   51.5200 N.3   296  ARG296     -0.1245
    160  CA        27.4110   -2.7010   52.7630 C.3   296  ARG296      0.1563
    161  C         28.0850   -4.0740   52.8750 C.2   296  ARG296      0.2260
    162  O         29.2710   -4.1840   52.5620 O.2   296  ARG296     -0.2867
    163  CB        25.8830   -2.7700   52.8000 C.3   296  ARG296      0.0307
    164  CG        25.1670   -1.4010   52.7280 C.3   296  ARG296      0.0489
    165  CD        25.3610   -0.5000   53.9810 C.3   296  ARG296      0.2205
    166  NE        24.9580   -1.1280   55.2630 N.pl3 296  ARG296     -0.0865
    167  CZ        23.6880   -1.3230   55.6440 C.cat 296  ARG296      0.5346
    168  NH1       22.6940   -0.9570   54.8420 N.pl3 296  ARG296      0.1354
    169  NH2       23.4110   -1.8750   56.8270 N.pl3 296  ARG296      0.1354
    170  N         10.8990    5.3480   46.7890 N.3   371  TRP371     -0.1241
    171  CA        11.2050    4.6050   48.0000 C.3   371  TRP371      0.1605
    172  C         10.2500    3.4330   48.2020 C.2   371  TRP371      0.2264
    173  O         10.6610    2.3950   48.7220 O.2   371  TRP371     -0.2867
    174  CB        11.1670    5.5200   49.2510 C.3   371  TRP371      0.0550
    175  CG        12.4030    6.4090   49.4470 C.ar  371  TRP371      0.0003
    176  CD1       12.9630    7.2670   48.5270 C.ar  371  TRP371      0.0946
    177  CD2       13.1900    6.5290   50.6340 C.ar  371  TRP371      0.0152
    178  NE1       14.0470    7.9000   49.0750 N.ar  371  TRP371     -0.2442
    179  CE2       14.2040    7.4710   50.3700 C.ar  371  TRP371      0.0810
    180  CE3       13.1250    5.9390   51.9130 C.ar  371  TRP371      0.0012
    181  CZ2       15.1530    7.8490   51.3390 C.ar  371  TRP371      0.0191
    182  CZ3       14.0850    6.3000   52.8850 C.ar  371  TRP371      0.0001
    183  CH2       15.0840    7.2540   52.5820 C.ar  371  TRP371      0.0015
    184  N         14.3750   13.9630   58.2500 N.3   399  TYR399     -0.1241
    185  CA        15.8050   13.6880   58.3970 C.3   399  TYR399      0.1605
    186  C         16.4300   14.8870   59.1260 C.2   399  TYR399      0.2264
    187  O         16.0160   16.0190   58.9220 O.2   399  TYR399     -0.2867
    188  CB        16.4940   13.4750   57.0170 C.3   399  TYR399      0.0534
    189  CG        17.9630   13.0770   57.1150 C.ar  399  TYR399     -0.0201
    190  CD1       18.3400   11.7400   57.3980 C.ar  399  TYR399     -0.0009
    191  CD2       18.9830   14.0320   56.9600 C.ar  399  TYR399     -0.0009
    192  CE1       19.7200   11.3680   57.5030 C.ar  399  TYR399      0.0417
    193  CE2       20.3570   13.6720   57.0560 C.ar  399  TYR399      0.0417
    194  CZ        20.7070   12.3420   57.3360 C.ar  399  TYR399      0.1957
    195  OH        22.0480   11.9980   57.4420 O.3   399  TYR399     -0.2866
@<TRIPOS>BOND
     1   170   171    1
     2     1     2    1
     3   171   172    1
     4   171   174    1
     5   172   173    2
     6   176   178   ar
     7   176   175   ar
     8     6     5    1
     9     6     7    1
    10   146   147    1
    11   146   145    1
    12   147   148    2
    13     2     5    1
    14     2     3    1
    15   178   179   ar
    16   174   175    1
    17   148   150    1
    18   148   149    1
    19   175   177   ar
    20     7     8    1
    21    12    11    2
    22     9     3   am
    23     9    10    1
    24    11    10    1
    25    27    25    1
    26     3     4    2
    27   179   177   ar
    28   179   181   ar
    29   145   144    1
    30   140   141    1
    31   177   180   ar
    32   141   144    1
    33   141   142    1
    34    10    13    1
    35    24    25    2
    36    24    23    1
    37    25    26    1
    38   143   142    2
    39   181   183   ar
    40    22    23    1
    41    22    21    1
    42   159   160    1
    43    13    14    1
    44   142   151   am
    45   180   182   ar
    46    18    21    1
    47    18    17    1
    48    18    19    1
    49    20    19    2
    50    14    15    1
    51    14    16    1
    52   162   161    2
    53   183   182   ar
    54    19    28   am
    55   164   163    1
    56   164   165    1
    57   160   163    1
    58   160   161    1
    59   151   152    1
    60   131   132    1
    61    28    29    1
    62   153   154    2
    63   153   152    1
    64    31    30    2
    65   132   133    1
    66   132   135    1
    67    30    29    1
    68   134   133    2
    69   152   155    1
    70   165   166    1
    71    29    32    1
    72   136   135    1
    73   136   137    1
    74   168   167    1
    75   157   156    2
    76   155   156    1
    77   166   167    2
    78   167   169    1
    79   156   158   am
    80    32    33    1
    81   137   139   ar
    82   137   138   ar
    83   191   193   ar
    84   191   189   ar
    85   188   189    1
    86   188   185    1
    87   193   194   ar
    88   189   190   ar
    89   194   195    1
    90   194   192   ar
    91   190   192   ar
    92   121   122    2
    93   121   120    1
    94   184   185    1
    95   126   128   ar
    96   126   124   ar
    97   185   186    1
    98    53    51    1
    99   123   120    1
   100   123   124    1
   101    83    82    1
   102   120   119    1
   103   128   129   ar
   104   187   186    2
   105   124   125   ar
   106   113   111   ar
   107   113   114   ar
   108   108   107    2
   109    82    81    1
   110    51    52    1
   111    51    50    2
   112   129   130    1
   113   129   127   ar
   114   111   110   ar
   115   119   107   am
   116    41    40    2
   117   125   127   ar
   118   107   106    1
   119    50    49    1
   120    81    80    1
   121   114   116   ar
   122   114   112   ar
   123    75    73   am
   124   116   118   ar
   125    67    65    1
   126   110   112   ar
   127   110   109    1
   128    40    42   am
   129    40    39    1
   130    58    59    1
   131    58    55    1
   132    74    73    2
   133    59    60    1
   134   106   109    1
   135   106   105    1
   136    73    72    1
   137   112   115   ar
   138    66    65    1
   139    94    92   ar
   140    94    93   ar
   141    80    77    1
   142    92    90   ar
   143    49    48    1
   144   105   103   am
   145    65    62    1
   146    39    38    1
   147   118   117   ar
   148    77    76    1
   149    77    78    1
   150    71    70    2
   151    55    54    1
   152    55    56    1
   153    93    91   ar
   154    72    69    1
   155    60    54    1
   156    48    47    1
   157   115   117   ar
   158    90    89   ar
   159   103   102    1
   160   103   104    2
   161    70    76   am
   162    70    69    1
   163    62    61    1
   164    62    63    1
   165   102   101    1
   166    38    35    1
   167    56    57    2
   168    78    79    2
   169    47    44    1
   170   101    97   am
   171    69    68    1
   172    34    35    1
   173    91    89   ar
   174    89    88    1
   175    44    45    1
   176    44    43    1
   177    63    64    2
   178    35    36    1
   179    45    46    2
   180    97    98    2
   181    97    96    1
   182    87    86    2
   183    96    95    1
   184    96    99    1
   185    88    85    1
   186    86    95   am
   187    86    85    1
   188    36    37    2
   189    99   100    1
   190    85    84    1
