@<TRIPOS>MOLECULE
tmp/3jxtA01.pdb
 165 159 0 0 0
SMALL
GASTEIGER

@<TRIPOS>ATOM
      1  N         16.6950  -24.3120  -17.0980 N.3    13  LYS13      -0.1245
      2  CA        15.7540  -24.3020  -15.9870 C.3    13  LYS13       0.1561
      3  C         16.3790  -24.9380  -14.7520 C.2    13  LYS13       0.2260
      4  O         17.1120  -25.9230  -14.8560 O.2    13  LYS13      -0.2867
      5  CB        14.4710  -25.0460  -16.3620 C.3    13  LYS13       0.0271
      6  CG        13.6020  -24.3110  -17.3690 C.3    13  LYS13       0.0035
      7  CD        12.3000  -25.0500  -17.6150 C.3    13  LYS13       0.0206
      8  CE        11.4610  -24.3480  -18.6740 C.3    13  LYS13       0.1093
      9  NZ        10.1420  -25.0110  -18.8740 N.3    13  LYS13      -0.1314
     10  N         12.4500  -24.8580  -10.3270 N.3    16  THR16      -0.1203
     11  CA        11.2310  -24.0570  -10.3600 C.3    16  THR16       0.1994
     12  C         11.2020  -23.1550  -11.5870 C.2    16  THR16       0.2618
     13  O         10.6310  -22.0640  -11.5560 O.2    16  THR16      -0.2717
     14  CB        11.0770  -23.1970   -9.0910 C.3    16  THR16       0.1784
     15  OG1       12.1650  -22.2680   -9.0030 O.3    16  THR16      -0.2211
     16  CG2       11.0630  -24.0800   -7.8510 C.3    16  THR16       0.0376
     17  N         11.8230  -23.6160  -12.6670 N.am   17  GLY17      -0.1942
     18  CA        11.6370  -22.9980  -13.9760 C.3    17  GLY17       0.2014
     19  C         12.7430  -22.0310  -14.3610 C.2    17  GLY17       0.2639
     20  O         13.8780  -22.1420  -13.8940 O.2    17  GLY17      -0.2714
     21  N         12.4040  -21.0780  -15.2250 N.am   18  LEU18      -0.1963
     22  CA        13.3620  -20.1160  -15.7540 C.3    18  LEU18       0.1728
     23  C         13.6030  -18.9560  -14.7900 C.2    18  LEU18       0.2617
     24  O         14.6410  -18.2970  -14.8510 O.2    18  LEU18      -0.2715
     25  CB        12.8680  -19.5710  -17.0980 C.3    18  LEU18       0.0311
     26  CG        12.6860  -20.6160  -18.2020 C.3    18  LEU18       0.0022
     27  CD1       11.8040  -20.0650  -19.3270 C.3    18  LEU18       0.0001
     28  CD2       14.0470  -21.0390  -18.7370 C.3    18  LEU18       0.0001
     29  N         12.6330  -18.7080  -13.9160 N.am   19  GLY19      -0.1940
     30  CA        12.7860  -17.7040  -12.8690 C.3    19  GLY19       0.2014
     31  C         12.4260  -16.2880  -13.2870 C.2    19  GLY19       0.2639
     32  O         13.0570  -15.3280  -12.8420 O.2    19  GLY19      -0.2714
     33  N         11.4030  -16.1400  -14.1250 N.am   20  PHE20      -0.1959
     34  CA        10.7990  -14.8280  -14.3410 C.3    20  PHE20       0.1771
     35  C          9.2880  -14.9130  -14.5110 C.2    20  PHE20       0.2620
     36  O          8.7500  -15.9900  -14.7630 O.2    20  PHE20      -0.2715
     37  CB        11.4850  -14.0660  -15.4860 C.3    20  PHE20       0.0574
     38  CG        11.3230  -14.6950  -16.8530 C.ar   20  PHE20      -0.0200
     39  CD1       10.3570  -14.2300  -17.7340 C.ar   20  PHE20      -0.0042
     40  CD2       12.1760  -15.7040  -17.2740 C.ar   20  PHE20      -0.0042
     41  CE1       10.2210  -14.7860  -18.9960 C.ar   20  PHE20      -0.0003
     42  CE2       12.0470  -16.2620  -18.5350 C.ar   20  PHE20      -0.0003
     43  CZ        11.0680  -15.8020  -19.4000 C.ar   20  PHE20      -0.0000
     44  N          8.6010  -13.7830  -14.3410 N.am   21  ASN21      -0.1958
     45  CA         7.1690  -13.7130  -14.6410 C.3    21  ASN21       0.1819
     46  C          6.9390  -12.9970  -15.9640 C.2    21  ASN21       0.2621
     47  O          7.6490  -12.0390  -16.2920 O.2    21  ASN21      -0.2715
     48  CB         6.3890  -12.9430  -13.5620 C.3    21  ASN21       0.1195
     49  CG         6.5360  -13.5290  -12.1620 C.2    21  ASN21       0.2630
     50  OD1        6.1550  -12.8850  -11.1740 O.2    21  ASN21      -0.2716
     51  ND2        7.0730  -14.7310  -12.0650 N.am   21  ASN21      -0.0877
     52  N          5.9300  -13.4500  -16.7040 N.am   22  ILE22      -0.1963
     53  CA         5.4620  -12.7300  -17.8860 C.3    22  ILE22       0.1727
     54  C          4.1780  -11.9460  -17.6290 C.2    22  ILE22       0.2616
     55  O          3.3250  -12.3460  -16.8240 O.2    22  ILE22      -0.2715
     56  CB         5.2550  -13.6660  -19.0990 C.3    22  ILE22       0.0290
     57  CG1        4.2370  -14.7620  -18.7770 C.3    22  ILE22       0.0022
     58  CG2        6.5790  -14.2490  -19.5450 C.3    22  ILE22       0.0023
     59  CD1        3.7680  -15.5470  -20.0020 C.3    22  ILE22       0.0001
     60  N          4.0530  -10.8260  -18.3310 N.am   23  VAL23      -0.1977
     61  CA         2.8470  -10.0100  -18.3110 C.3    23  VAL23       0.1596
     62  C          2.4810   -9.6690  -19.7540 C.2    23  VAL23       0.2287
     63  O          3.3470   -9.6540  -20.6270 O.2    23  VAL23      -0.2864
     64  CB         3.0840   -8.7170  -17.4910 C.3    23  VAL23       0.0276
     65  CG1        4.0470   -7.7750  -18.2170 C.3    23  VAL23       0.0022
     66  CG2        1.7660   -8.0290  -17.1620 C.3    23  VAL23       0.0022
     67  N         -0.0170  -10.0070  -23.4100 N.3    25  GLY25      -0.1210
     68  CA        -0.8000  -10.9290  -24.2250 C.3    25  GLY25       0.1956
     69  C         -2.2690  -10.9070  -23.8510 C.2    25  GLY25       0.2612
     70  O         -2.9640  -11.9180  -23.9630 O.2    25  GLY25      -0.2717
     71  N         -2.7430   -9.7470  -23.4060 N.am   26  GLU26      -0.1965
     72  CA        -4.1410   -9.5830  -23.0350 C.3    26  GLU26       0.1733
     73  C         -4.9580   -9.1030  -24.2280 C.2    26  GLU26       0.2616
     74  O         -6.1670   -9.3260  -24.2910 O.2    26  GLU26      -0.2715
     75  CB        -4.2730   -8.5910  -21.8750 C.3    26  GLU26       0.0429
     76  CG        -3.4640   -8.9660  -20.6380 C.3    26  GLU26       0.1163
     77  CD        -4.0960  -10.0880  -19.8340 C.2    26  GLU26       0.3649
     78  OE1       -5.2090  -10.5280  -20.1910 O.co2  26  GLU26      -0.2457
     79  OE2       -3.4780  -10.5330  -18.8430 O.co2  26  GLU26      -0.2457
     80  N         -4.2920   -8.4470  -25.1740 N.am   27  ASP27      -0.1971
     81  CA        -4.9830   -7.7890  -26.2790 C.3    27  ASP27       0.1709
     82  C         -4.0460   -7.5030  -27.4500 C.2    27  ASP27       0.2293
     83  O         -4.1090   -6.4340  -28.0580 O.2    27  ASP27      -0.2864
     84  CB        -5.6430   -6.5030  -25.7990 C.3    27  ASP27       0.1436
     85  CG        -6.5180   -5.8650  -26.8690 C.2    27  ASP27       0.3671
     86  OD1       -6.9560   -6.5390  -27.8670 O.co2  27  ASP27      -0.2456
     87  OD2       -6.9080   -4.7060  -26.6690 O.co2  27  ASP27      -0.2456
     88  N         -0.8180   -7.1110  -27.5750 N.3    29  GLU29      -0.1245
     89  CA         0.2220   -6.1220  -27.3040 C.3    29  GLU29       0.1567
     90  C          1.5820   -6.7560  -27.0210 C.2    29  GLU29       0.2260
     91  O          2.5790   -6.0520  -26.8500 O.2    29  GLU29      -0.2867
     92  CB        -0.1860   -5.2430  -26.1210 C.3    29  GLU29       0.0388
     93  CG         0.0150   -5.9010  -24.7600 C.3    29  GLU29       0.1160
     94  CD        -1.1290   -6.8270  -24.3830 C.2    29  GLU29       0.3649
     95  OE1       -1.8570   -7.2810  -25.2930 O.co2  29  GLU29      -0.2457
     96  OE2       -1.3040   -7.1040  -23.1790 O.co2  29  GLU29      -0.2457
     97  N          7.9660   -9.0710  -16.4410 N.3    34  SER34      -0.1217
     98  CA         7.5220   -8.1870  -15.3680 C.3    34  SER34       0.1889
     99  C          8.4010   -8.2810  -14.1240 C.2    34  SER34       0.2288
    100  O          8.4580   -7.3470  -13.3270 O.2    34  SER34      -0.2866
    101  CB         6.0690   -8.4760  -14.9960 C.3    34  SER34       0.2089
    102  OG         5.9280   -9.7880  -14.4660 O.3    34  SER34      -0.2183
    103  N         -1.4280  -14.3590  -23.6130 N.3    67  HIS67      -0.1226
    104  CA        -0.7920  -14.7250  -22.3570 C.3    67  HIS67       0.1752
    105  C         -0.6830  -16.2430  -22.2480 C.2    67  HIS67       0.2595
    106  O          0.3570  -16.7820  -21.8620 O.2    67  HIS67      -0.2718
    107  CB        -1.6040  -14.1680  -21.1900 C.3    67  HIS67       0.0759
    108  CG        -0.8610  -14.1530  -19.8930 C.ar   67  HIS67       0.0818
    109  ND1       -0.2270  -13.0270  -19.4150 N.ar   67  HIS67      -0.2268
    110  CD2       -0.6560  -15.1230  -18.9700 C.ar   67  HIS67       0.1154
    111  CE1        0.3420  -13.3050  -18.2560 C.ar   67  HIS67       0.1986
    112  NE2        0.0950  -14.5690  -17.9610 N.ar   67  HIS67      -0.2212
    113  N         -1.7690  -16.9210  -22.6000 N.am   68  GLU68      -0.1979
    114  CA        -1.8970  -18.3550  -22.3870 C.3    68  GLU68       0.1602
    115  C         -1.0160  -19.1400  -23.3540 C.2    68  GLU68       0.2287
    116  O         -0.4310  -20.1580  -22.9850 O.2    68  GLU68      -0.2864
    117  CB        -3.3600  -18.7690  -22.5300 C.3    68  GLU68       0.0415
    118  CG        -4.2580  -18.2530  -21.4040 C.3    68  GLU68       0.1163
    119  CD        -4.7680  -16.8310  -21.6260 C.2    68  GLU68       0.3649
    120  OE1       -4.4260  -16.2010  -22.6520 O.co2  68  GLU68      -0.2457
    121  OE2       -5.5230  -16.3370  -20.7590 O.co2  68  GLU68      -0.2457
    122  N          2.5800  -18.6750  -21.9970 N.3    71  ALA71      -0.1245
    123  CA         2.7580  -19.5370  -20.8320 C.3    71  ALA71       0.1562
    124  C          2.9760  -20.9880  -21.2530 C.2    71  ALA71       0.2260
    125  O          3.8710  -21.6650  -20.7370 O.2    71  ALA71      -0.2867
    126  CB         1.5670  -19.4200  -19.8890 C.3    71  ALA71       0.0290
    127  N          6.4910  -21.4480  -22.8290 N.3    74  LEU74      -0.1231
    128  CA         7.6000  -21.2570  -21.9000 C.3    74  LEU74       0.1693
    129  C          7.6590  -22.3720  -20.8630 C.2    74  LEU74       0.2591
    130  O          8.7430  -22.8090  -20.4710 O.2    74  LEU74      -0.2718
    131  CB         7.4900  -19.8910  -21.2160 C.3    74  LEU74       0.0284
    132  CG         7.9770  -18.7340  -22.0870 C.3    74  LEU74       0.0019
    133  CD1        7.3380  -17.4190  -21.6660 C.3    74  LEU74       0.0001
    134  CD2        9.4990  -18.6460  -22.0650 C.3    74  LEU74       0.0001
    135  N          6.4940  -22.8360  -20.4260 N.am   75  LYS75      -0.1980
    136  CA         6.4290  -23.8800  -19.4110 C.3    75  LYS75       0.1596
    137  C          6.8060  -25.2550  -19.9600 C.2    75  LYS75       0.2287
    138  O          7.3240  -26.0990  -19.2300 O.2    75  LYS75      -0.2864
    139  CB         5.0500  -23.9120  -18.7500 C.3    75  LYS75       0.0298
    140  CG         4.7890  -22.7330  -17.8200 C.3    75  LYS75       0.0038
    141  CD         3.3180  -22.6270  -17.4520 C.3    75  LYS75       0.0206
    142  CE         3.1390  -22.0490  -16.0590 C.3    75  LYS75       0.1093
    143  NZ         3.6240  -22.9880  -15.0100 N.3    75  LYS75      -0.1314
    144  N          3.2750    1.0750  -20.9310 N.3    93  ARG93      -0.1231
    145  CA         1.8300    0.9000  -20.8690 C.3    93  ARG93       0.1694
    146  C          1.4610   -0.0480  -19.7340 C.2    93  ARG93       0.2592
    147  O          0.3190   -0.0650  -19.2710 O.2    93  ARG93      -0.2718
    148  CB         1.2930    0.3690  -22.2000 C.3    93  ARG93       0.0321
    149  CG         1.3030    1.4000  -23.3200 C.3    93  ARG93       0.0489
    150  CD         0.1510    2.3870  -23.1820 C.3    93  ARG93       0.2205
    151  NE        -1.1420    1.7530  -23.4280 N.pl3  93  ARG93      -0.0865
    152  CZ        -1.6230    1.4790  -24.6360 C.cat  93  ARG93       0.5346
    153  NH1       -0.9210    1.7870  -25.7190 N.pl3  93  ARG93       0.1354
    154  NH2       -2.8080    0.8980  -24.7630 N.pl3  93  ARG93       0.1354
    155  N          2.4380   -0.8360  -19.2930 N.am   94  PHE94      -0.1976
    156  CA         2.2470   -1.7400  -18.1610 C.3    94  PHE94       0.1639
    157  C          2.6420   -1.1050  -16.8360 C.2    94  PHE94       0.2290
    158  O          1.9130   -1.2120  -15.8530 O.2    94  PHE94      -0.2864
    159  CB         3.0240   -3.0420  -18.3660 C.3    94  PHE94       0.0560
    160  CG         2.4340   -3.9330  -19.4180 C.ar   94  PHE94      -0.0200
    161  CD1        1.3330   -4.7190  -19.1350 C.ar   94  PHE94      -0.0042
    162  CD2        2.9740   -3.9710  -20.6930 C.ar   94  PHE94      -0.0042
    163  CE1        0.7810   -5.5370  -20.1050 C.ar   94  PHE94      -0.0003
    164  CE2        2.4260   -4.7870  -21.6660 C.ar   94  PHE94      -0.0003
    165  CZ         1.3280   -5.5680  -21.3690 C.ar   94  PHE94      -0.0000
@<TRIPOS>BOND
     1    83    82    2
     2    86    85   ar
     3    88    89    1
     4    82    81    1
     5    89    90    1
     6    89    92    1
     7    90    91    2
     8    85    87   ar
     9    85    84    1
    10    81    84    1
    11    81    80    1
    12    92    93    1
    13   153   152    1
    14    95    94   ar
    15    80    73   am
    16   154   152    1
    17    93    94    1
    18   152   151    2
    19    94    96   ar
    20    74    73    2
    21    73    72    1
    22    68    69    1
    23    68    67    1
    24    70    69    2
    25    69    71   am
    26   103   104    1
    27   151   150    1
    28    71    72    1
    29   115   116    2
    30   115   114    1
    31   149   150    1
    32   149   148    1
    33    72    75    1
    34   127   128    1
    35   120   119   ar
    36   113   114    1
    37   113   105   am
    38   117   114    1
    39   117   118    1
    40   104   105    1
    41   104   107    1
    42   105   106    2
    43   148   145    1
    44   132   134    1
    45   132   133    1
    46   132   131    1
    47   122   123    1
    48   128   131    1
    49   128   129    1
    50    75    76    1
    51   164   165   ar
    52   164   162   ar
    53   119   118    1
    54   119   121   ar
    55   165   163   ar
    56   124   123    1
    57   124   125    2
    58   107   108    1
    59   144   145    1
    60   145   146    1
    61   129   130    2
    62   129   135   am
    63   123   126    1
    64   162   160   ar
    65    76    77    1
    66    63    62    2
    67   135   136    1
    68    78    77   ar
    69   163   161   ar
    70    59    57    1
    71   137   136    1
    72   137   138    2
    73   108   109   ar
    74   108   110   ar
    75    77    79   ar
    76    62    61    1
    77   146   155   am
    78   146   147    2
    79    58    56    1
    80   160   161   ar
    81   160   159    1
    82   109   111   ar
    83   136   139    1
    84    43    41   ar
    85    43    42   ar
    86    27    26    1
    87   155   156    1
    88    56    57    1
    89    56    53    1
    90    41    39   ar
    91   110   112   ar
    92     9     8    1
    93   139   140    1
    94    28    26    1
    95     8     7    1
    96    42    40   ar
    97   159   156    1
    98    60    61    1
    99    60    54   am
   100    61    64    1
   101   111   112   ar
   102    65    64    1
   103    26    25    1
   104   156   157    1
   105    53    54    1
   106    53    52    1
   107   140   141    1
   108    39    38   ar
   109    54    55    2
   110     7     6    1
   111    64    66    1
   112   141   142    1
   113     6     5    1
   114    40    38   ar
   115    25    22    1
   116     1     2    1
   117    38    37    1
   118   157   158    2
   119    52    46   am
   120    97    98    1
   121     5     2    1
   122    47    46    2
   123   142   143    1
   124     2     3    1
   125    46    45    1
   126    22    21    1
   127    22    23    1
   128    37    34    1
   129    98   101    1
   130    98    99    1
   131    21    19   am
   132   101   102    1
   133     4     3    2
   134    24    23    2
   135    23    29   am
   136    36    35    2
   137    45    44    1
   138    45    48    1
   139    35    44   am
   140    35    34    1
   141    19    18    1
   142    19    20    2
   143    34    33    1
   144    33    31   am
   145    99   100    2
   146    18    17    1
   147    29    30    1
   148    48    49    1
   149    31    30    1
   150    31    32    2
   151    17    12   am
   152    49    51   am
   153    49    50    2
   154    12    13    2
   155    12    11    1
   156    11    10    1
   157    11    14    1
   158    14    15    1
   159    14    16    1
