@<TRIPOS>MOLECULE
tmp/3jxwA00.pdb
 177 165 0 0 0
SMALL
GASTEIGER

@<TRIPOS>ATOM
      1  N        -17.2780  -38.6790   -4.7260 N.3    12  LEU12      -0.1231
      2  CA       -18.6900  -38.4770   -5.1070 C.3    12  LEU12       0.1693
      3  C        -18.9150  -37.1770   -5.8620 C.2    12  LEU12       0.2592
      4  O        -19.7770  -37.0850   -6.7380 O.2    12  LEU12      -0.2718
      5  CB       -19.6130  -38.5630   -3.8960 C.3    12  LEU12       0.0284
      6  CG       -19.6520  -39.9660   -3.2390 C.3    12  LEU12       0.0019
      7  CD1      -19.9780  -39.9660   -1.7530 C.3    12  LEU12       0.0001
      8  CD2      -20.5550  -40.9530   -3.9430 C.3    12  LEU12       0.0001
      9  N        -18.1360  -36.1660   -5.5370 N.am   13  GLY13      -0.1957
     10  CA       -18.1930  -34.9000   -6.2580 C.3    13  GLY13       0.1869
     11  C        -17.0880  -33.9970   -5.7380 C.2    13  GLY13       0.2309
     12  O        -16.4150  -34.3190   -4.7430 O.2    13  GLY13      -0.2863
     13  N        -15.7870  -25.5110   -3.2000 N.3    17  PHE17      -0.1241
     14  CA       -16.1230  -25.9140   -1.7920 C.3    17  PHE17       0.1605
     15  C        -15.2060  -27.0750   -1.2710 C.2    17  PHE17       0.2264
     16  O        -14.8830  -27.1310   -0.0590 O.2    17  PHE17      -0.2867
     17  CB       -17.6300  -26.2920   -1.6350 C.3    17  PHE17       0.0534
     18  CG       -17.9280  -27.7700   -1.9050 C.ar   17  PHE17      -0.0203
     19  CD1      -17.6470  -28.7550   -0.9390 C.ar   17  PHE17      -0.0042
     20  CD2      -18.4630  -28.1800   -3.1320 C.ar   17  PHE17      -0.0042
     21  CE1      -17.8780  -30.1240   -1.1950 C.ar   17  PHE17      -0.0003
     22  CE2      -18.7080  -29.5610   -3.3900 C.ar   17  PHE17      -0.0003
     23  CZ       -18.4070  -30.5260   -2.4150 C.ar   17  PHE17      -0.0000
     24  N        -15.9280  -34.6760   -2.0180 N.3    20  VAL20      -0.1245
     25  CA       -16.6370  -35.5770   -1.1040 C.3    20  VAL20       0.1561
     26  C        -16.4230  -37.0530   -1.5060 C.2    20  VAL20       0.2260
     27  O        -16.6690  -37.3920   -2.6480 O.2    20  VAL20      -0.2867
     28  CB       -18.1880  -35.2410   -1.0470 C.3    20  VAL20       0.0252
     29  CG1      -18.9140  -36.0560    0.0040 C.3    20  VAL20       0.0019
     30  CG2      -18.4300  -33.7930   -0.7560 C.3    20  VAL20       0.0019
     31  N        -20.0030  -40.2610    4.3070 N.3    33  ALA33      -0.1245
     32  CA       -19.4660  -39.3920    3.2770 C.3    33  ALA33       0.1562
     33  C        -18.3730  -38.6050    3.9600 C.2    33  ALA33       0.2260
     34  O        -18.5440  -38.1920    5.1040 O.2    33  ALA33      -0.2867
     35  CB       -20.5720  -38.4610    2.6930 C.3    33  ALA33       0.0290
     36  N        -16.0180  -35.4020    3.7200 N.3    35  LYS35      -0.1245
     37  CA       -16.0210  -34.1030    3.0630 C.3    35  LYS35       0.1561
     38  C        -14.8160  -33.3290    3.5390 C.2    35  LYS35       0.2260
     39  O        -14.6290  -33.1210    4.7390 O.2    35  LYS35      -0.2867
     40  CB       -17.3360  -33.3610    3.3310 C.3    35  LYS35       0.0271
     41  CG       -17.4260  -31.9710    2.7110 C.3    35  LYS35       0.0035
     42  CD       -18.8590  -31.4310    2.8090 C.3    35  LYS35       0.0206
     43  CE       -19.0410  -30.0230    2.2440 C.3    35  LYS35       0.1093
     44  NZ       -20.5410  -29.6320    2.2450 N.3    35  LYS35      -0.1314
     45  N        -19.9010  -23.9770    8.8580 N.3    57  GLU57      -0.1245
     46  CA       -20.6350  -25.1440    8.4020 C.3    57  GLU57       0.1567
     47  C        -20.7670  -26.1670    9.5290 C.2    57  GLU57       0.2260
     48  O        -21.8530  -26.7400    9.7720 O.2    57  GLU57      -0.2867
     49  CB       -19.9280  -25.7110    7.1700 C.3    57  GLU57       0.0388
     50  CG       -20.4570  -26.9740    6.6120 C.3    57  GLU57       0.1160
     51  CD       -19.7730  -27.3900    5.2960 C.2    57  GLU57       0.3649
     52  OE1      -18.8870  -26.7040    4.8190 O.co2  57  GLU57      -0.2457
     53  OE2      -20.1730  -28.3990    4.6910 O.co2  57  GLU57      -0.2457
     54  N        -23.9980  -27.4960   11.2820 N.3    61  LEU61      -0.1245
     55  CA       -24.2050  -28.9410   11.3210 C.3    61  LEU61       0.1561
     56  C        -24.5220  -29.4840   12.7230 C.2    61  LEU61       0.2260
     57  O        -25.3320  -30.4020   12.8430 O.2    61  LEU61      -0.2867
     58  CB       -23.0890  -29.7230   10.6040 C.3    61  LEU61       0.0270
     59  CG       -23.2530  -29.7660    9.0620 C.3    61  LEU61       0.0019
     60  CD1      -22.0490  -30.3500    8.3920 C.3    61  LEU61       0.0001
     61  CD2      -24.5490  -30.4290    8.4620 C.3    61  LEU61       0.0001
     62  N        -29.1460  -34.0940    6.6320 N.3    72  ILE72      -0.1245
     63  CA       -28.0180  -34.9900    6.8080 C.3    72  ILE72       0.1561
     64  C        -27.2730  -34.6900    8.1170 C.2    72  ILE72       0.2260
     65  O        -26.8820  -33.5510    8.3540 O.2    72  ILE72      -0.2867
     66  CB       -27.0760  -34.9440    5.5990 C.3    72  ILE72       0.0252
     67  CG1      -27.6460  -35.8320    4.4870 C.3    72  ILE72       0.0019
     68  CG2      -25.6770  -35.3870    5.9610 C.3    72  ILE72       0.0019
     69  CD1      -26.8730  -37.0740    4.2020 C.3    72  ILE72       0.0001
     70  N        -20.2000  -37.4840    7.4660 N.3    88  LEU88      -0.1231
     71  CA       -21.6590  -37.2840    7.5150 C.3    88  LEU88       0.1693
     72  C        -22.3650  -38.5610    7.0600 C.2    88  LEU88       0.2592
     73  O        -21.7350  -39.4040    6.4140 O.2    88  LEU88      -0.2718
     74  CB       -22.0410  -36.1420    6.5710 C.3    88  LEU88       0.0284
     75  CG       -21.3970  -34.7760    6.6930 C.3    88  LEU88       0.0019
     76  CD1      -20.8860  -34.4330    5.3870 C.3    88  LEU88       0.0001
     77  CD2      -22.4560  -33.7790    7.1440 C.3    88  LEU88       0.0001
     78  N        -23.6600  -38.7110    7.3430 N.am   89  GLU89      -0.1966
     79  CA       -24.3270  -39.9450    6.9010 C.3    89  GLU89       0.1733
     80  C        -24.4620  -40.0290    5.4100 C.2    89  GLU89       0.2616
     81  O        -24.2730  -39.0290    4.7190 O.2    89  GLU89      -0.2715
     82  CB       -25.6500  -40.2110    7.6090 C.3    89  GLU89       0.0429
     83  CG       -26.7520  -39.2780    7.3170 C.3    89  GLU89       0.1163
     84  CD       -27.8000  -39.3070    8.4120 C.2    89  GLU89       0.3649
     85  OE1      -28.8720  -38.6740    8.2670 O.co2  89  GLU89      -0.2457
     86  OE2      -27.5430  -39.9730    9.4330 O.co2  89  GLU89      -0.2457
     87  N        -24.7200  -41.2370    4.9130 N.am   90  ARG90      -0.1964
     88  CA       -24.8610  -41.5090    3.4690 C.3    90  ARG90       0.1717
     89  C        -25.8580  -42.6010    3.3180 C.2    90  ARG90       0.2495
     90  O        -25.5650  -43.7260    3.6930 O.2    90  ARG90      -0.2727
     91  CB       -23.5480  -41.9950    2.8440 C.3    90  ARG90       0.0348
     92  CG       -23.7080  -42.4680    1.3820 C.3    90  ARG90       0.0492
     93  CD       -22.3670  -42.6500    0.6760 C.3    90  ARG90       0.2205
     94  NE       -21.5140  -43.6420    1.3330 N.pl3  90  ARG90      -0.0865
     95  CZ       -21.5190  -44.9570    1.0700 C.cat  90  ARG90       0.5346
     96  NH1      -22.3540  -45.4660    0.1510 N.pl3  90  ARG90       0.1354
     97  NH2      -20.6970  -45.7690    1.7500 N.pl3  90  ARG90       0.1354
     98  N        -27.0530  -42.2790    2.8100 N.am   91  PRO91      -0.2504
     99  CA       -28.0370  -43.3410    2.4420 C.3    91  PRO91       0.1487
    100  C        -27.6070  -44.1590    1.2000 C.2    91  PRO91       0.2276
    101  O        -26.9110  -43.6550    0.3170 O.2    91  PRO91      -0.2865
    102  CB       -29.3330  -42.5710    2.1560 C.3    91  PRO91       0.0556
    103  CG       -28.9990  -41.0430    2.3330 C.2    91  PRO91      -0.0078
    104  CD       -27.5340  -40.8920    2.5930 C.2    91  PRO91       0.0634
    105  N        -28.7360  -43.6750   -3.1510 N.3    94  VAL94      -0.1231
    106  CA       -29.0410  -42.2740   -3.0240 C.3    94  VAL94       0.1692
    107  C        -28.8190  -41.6160   -4.3990 C.2    94  VAL94       0.2592
    108  O        -28.0050  -42.0840   -5.1670 O.2    94  VAL94      -0.2718
    109  CB       -28.1140  -41.6610   -1.9590 C.3    94  VAL94       0.0266
    110  CG1      -26.7750  -41.4020   -2.5300 C.3    94  VAL94       0.0020
    111  CG2      -28.6640  -40.3910   -1.4070 C.3    94  VAL94       0.0020
    112  N        -29.5640  -40.5530   -4.7120 N.am   95  GLN95      -0.1966
    113  CA       -29.3160  -39.7140   -5.8830 C.3    95  GLN95       0.1733
    114  C        -29.8050  -38.2720   -5.5930 C.2    95  GLN95       0.2616
    115  O        -30.7610  -38.0480   -4.8420 O.2    95  GLN95      -0.2715
    116  CB       -30.0060  -40.2980   -7.1090 C.3    95  GLN95       0.0408
    117  CG       -29.8400  -39.4320   -8.3270 C.3    95  GLN95       0.0908
    118  CD       -30.5150  -39.9640   -9.5710 C.2    95  GLN95       0.2608
    119  OE1      -31.6790  -40.3970   -9.5410 O.2    95  GLN95      -0.2717
    120  NE2      -29.7930  -39.9080  -10.6970 N.am   95  GLN95      -0.0878
    121  N        -29.1310  -37.2780   -6.1590 N.am   96  ASP96      -0.1971
    122  CA       -29.4230  -35.9180   -5.7940 C.3    96  ASP96       0.1709
    123  C        -30.5510  -35.3510   -6.6560 C.2    96  ASP96       0.2293
    124  O        -30.7830  -35.8390   -7.7660 O.2    96  ASP96      -0.2864
    125  CB       -28.1320  -35.0990   -5.7060 C.3    96  ASP96       0.1436
    126  CG       -27.6740  -34.4780   -7.0370 C.2    96  ASP96       0.3671
    127  OD1      -28.3530  -34.5300   -8.1150 O.co2  96  ASP96      -0.2456
    128  OD2      -26.5810  -33.8580   -6.9560 O.co2  96  ASP96      -0.2456
    129  N        -29.7880  -34.5160  -10.4850 N.3    99  ASP99      -0.1239
    130  CA       -29.7460  -35.6930  -11.3710 C.3    99  ASP99       0.1674
    131  C        -31.1040  -36.3370  -11.6020 C.2    99  ASP99       0.2266
    132  O        -31.4350  -36.7040  -12.7270 O.2    99  ASP99      -0.2867
    133  CB       -28.7140  -36.7140  -10.8730 C.3    99  ASP99       0.1410
    134  CG       -27.3200  -36.1270  -10.8560 C.2    99  ASP99       0.3668
    135  OD1      -27.1340  -35.0100  -11.3870 O.co2  99  ASP99      -0.2456
    136  OD2      -26.4100  -36.7270  -10.2900 O.co2  99  ASP99      -0.2456
    137  N        -29.4270  -29.5080   -6.1630 N.3   139  GLU139     -0.1231
    138  CA       -28.1030  -30.1360   -5.8230 C.3   139  GLU139      0.1699
    139  C        -27.7850  -30.2470   -4.3250 C.2   139  GLU139      0.2592
    140  O        -26.8900  -30.9610   -3.9370 O.2   139  GLU139     -0.2718
    141  CB       -26.9040  -29.4280   -6.5310 C.3   139  GLU139      0.0402
    142  CG       -27.3200  -28.7070   -7.8540 C.3   139  GLU139      0.1161
    143  CD       -26.2660  -27.7880   -8.4820 C.2   139  GLU139      0.3649
    144  OE1      -26.6110  -26.6250   -8.8280 O.co2 139  GLU139     -0.2457
    145  OE2      -25.1130  -28.2460   -8.6650 O.co2 139  GLU139     -0.2457
    146  N        -28.5070  -29.5300   -3.4830 N.am  140  ASN140     -0.1974
    147  CA       -28.3480  -29.6760   -2.0510 C.3   140  ASN140      0.1688
    148  C        -29.4810  -30.5030   -1.4260 C.2   140  ASN140      0.2292
    149  O        -29.8950  -30.3030   -0.2470 O.2   140  ASN140     -0.2864
    150  CB       -28.1900  -28.2990   -1.4210 C.3   140  ASN140      0.1181
    151  CG       -26.9280  -27.6080   -1.8960 C.2   140  ASN140      0.2629
    152  OD1      -25.9820  -28.2740   -2.3140 O.2   140  ASN140     -0.2716
    153  ND2      -26.9030  -26.2700   -1.8490 N.am  140  ASN140     -0.0877
    154  N        -30.5710  -34.6130   -1.2900 N.3   142  LEU142     -0.1245
    155  CA       -30.3960  -36.0030   -1.5680 C.3   142  LEU142      0.1561
    156  C        -31.7100  -36.7300   -1.3770 C.2   142  LEU142      0.2260
    157  O        -32.4700  -36.4290   -0.4490 O.2   142  LEU142     -0.2867
    158  CB       -29.3700  -36.5860   -0.6310 C.3   142  LEU142      0.0270
    159  CG       -27.9860  -35.9570   -0.7880 C.3   142  LEU142      0.0019
    160  CD1      -26.9670  -36.7030    0.0790 C.3   142  LEU142      0.0001
    161  CD2      -27.5240  -35.8770   -2.2720 C.3   142  LEU142      0.0001
    162  N        -28.5850  -31.0080    2.2880 N.3   153  ILE153     -0.1231
    163  CA       -27.1390  -31.1400    2.5180 C.3   153  ILE153      0.1692
    164  C        -26.3850  -29.8500    2.2670 C.2   153  ILE153      0.2592
    165  O        -26.9000  -28.9420    1.6100 O.2   153  ILE153     -0.2718
    166  CB       -26.4780  -32.2080    1.6120 C.3   153  ILE153      0.0266
    167  CG1      -26.6650  -31.8650    0.1410 C.3   153  ILE153      0.0019
    168  CG2      -26.9510  -33.6080    1.9400 C.3   153  ILE153      0.0020
    169  CD1      -25.8670  -32.8130   -0.7900 C.3   153  ILE153      0.0001
    170  N        -25.1570  -29.7750    2.7840 N.am  154  ASP154     -0.1974
    171  CA       -24.2380  -28.6900    2.4490 C.3   154  ASP154      0.1709
    172  C        -24.5680  -27.3250    3.0700 C.2   154  ASP154      0.2293
    173  O        -25.2130  -26.4820    2.4390 O.2   154  ASP154     -0.2864
    174  CB       -24.0960  -28.5440    0.9300 C.3   154  ASP154      0.1436
    175  CG       -22.8040  -27.8380    0.5250 C.2   154  ASP154      0.3671
    176  OD1      -22.2720  -27.0680    1.3660 O.co2 154  ASP154     -0.2456
    177  OD2      -22.3490  -28.0710   -0.6290 O.co2 154  ASP154     -0.2456
@<TRIPOS>BOND
     1   132   131    2
     2   131   130    1
     3   135   134   ar
     4   130   133    1
     5   130   129    1
     6   133   134    1
     7   134   136   ar
     8   120   118   am
     9   118   119    2
    10   118   117    1
    11   144   143   ar
    12   145   143   ar
    13   143   142    1
    14   117   116    1
    15   127   126   ar
    16   142   141    1
    17   124   123    2
    18   116   113    1
    19   126   128   ar
    20   126   125    1
    21     4     3    2
    22   123   122    1
    23   141   138    1
    24    10    11    1
    25    10     9    1
    26   137   138    1
    27   121   122    1
    28   121   114   am
    29   113   114    1
    30   113   112    1
    31     3     9   am
    32     3     2    1
    33   138   139    1
    34   122   125    1
    35    11    12    2
    36   114   115    2
    37   108   107    2
    38     2     1    1
    39     2     5    1
    40   112   107   am
    41   107   106    1
    42   139   140    2
    43   139   146   am
    44     8     6    1
    45     5     6    1
    46   146   147    1
    47    22    20   ar
    48    22    23   ar
    49     6     7    1
    50    13    14    1
    51   105   106    1
    52    20    18   ar
    53   106   109    1
    54    27    26    2
    55   110   109    1
    56    23    21   ar
    57   152   151    2
    58   161   159    1
    59   147   148    1
    60   147   150    1
    61    24    25    1
    62   109   111    1
    63    18    17    1
    64    18    19   ar
    65   151   153   am
    66   151   150    1
    67    14    17    1
    68    14    15    1
    69   155   156    1
    70   155   154    1
    71   155   158    1
    72    26    25    1
    73   148   149    2
    74   156   157    2
    75    15    16    2
    76    21    19   ar
    77    25    28    1
    78    28    30    1
    79    28    29    1
    80   169   167    1
    81   159   158    1
    82   159   160    1
    83   177   175   ar
    84   167   166    1
    85    96    95    1
    86   101   100    2
    87   175   174    1
    88   175   176   ar
    89    93    94    1
    90    93    92    1
    91   174   171    1
    92    95    94    2
    93    95    97    1
    94   100    99    1
    95    92    91    1
    96   165   164    2
    97   166   168    1
    98   166   163    1
    99   102   103    1
   100   102    99    1
   101    43    44    1
   102    43    42    1
   103   164   163    1
   104   164   170   am
   105   162   163    1
   106   103   104    2
   107   173   172    2
   108    99    98    1
   109   171   170    1
   110   171   172    1
   111   104    98    1
   112    35    32    1
   113    41    42    1
   114    41    40    1
   115    98    89   am
   116    91    88    1
   117    37    40    1
   118    37    38    1
   119    37    36    1
   120    32    33    1
   121    32    31    1
   122    89    88    1
   123    89    90    2
   124    88    87    1
   125    38    39    2
   126    33    34    2
   127    69    67    1
   128    67    66    1
   129    53    51   ar
   130    81    80    2
   131    52    51   ar
   132    87    80   am
   133    51    50    1
   134    76    75    1
   135    80    79    1
   136    66    68    1
   137    66    63    1
   138    73    72    2
   139    74    75    1
   140    74    71    1
   141    50    49    1
   142    62    63    1
   143    75    77    1
   144    63    64    1
   145    79    78    1
   146    79    82    1
   147    72    78   am
   148    72    71    1
   149    49    46    1
   150    83    82    1
   151    83    84    1
   152    70    71    1
   153    64    65    2
   154    85    84   ar
   155    60    59    1
   156    46    45    1
   157    46    47    1
   158    84    86   ar
   159    61    59    1
   160    59    58    1
   161    47    48    2
   162    58    55    1
   163    54    55    1
   164    55    56    1
   165    56    57    2
