@<TRIPOS>MOLECULE
tmp/3jy0A00.pdb
 159 143 0 0 0
SMALL
GASTEIGER

@<TRIPOS>ATOM
      1  N        -42.0700    4.4500    4.8600 N.3    12  LEU12      -0.1245
      2  CA       -42.6080    3.1510    5.2680 C.3    12  LEU12       0.1561
      3  C        -41.6110    2.4070    6.1540 C.2    12  LEU12       0.2260
      4  O        -40.4210    2.6270    6.0940 O.2    12  LEU12      -0.2867
      5  CB       -42.9300    2.3080    4.0470 C.3    12  LEU12       0.0270
      6  CG       -44.3770    2.2680    3.5210 C.3    12  LEU12       0.0019
      7  CD1      -45.3230    3.3290    4.0300 C.3    12  LEU12       0.0001
      8  CD2      -44.3970    2.2740    2.0110 C.3    12  LEU12       0.0001
      9  N        -32.7250    1.3550    5.1330 N.3    18  GLY18      -0.1225
     10  CA       -33.2520    1.5580    3.7640 C.3    18  GLY18       0.1811
     11  C        -34.2620    2.6950    3.7590 C.2    18  GLY18       0.2280
     12  O        -34.6780    3.1640    4.8030 O.2    18  GLY18      -0.2866
     13  N        -37.9600    3.7940    2.0650 N.3    20  VAL20      -0.1245
     14  CA       -39.0780    3.5170    1.1470 C.3    20  VAL20       0.1561
     15  C        -40.2420    4.3420    1.5850 C.2    20  VAL20       0.2260
     16  O        -40.6140    4.2330    2.7590 O.2    20  VAL20      -0.2867
     17  CB       -39.5510    2.0190    1.2310 C.3    20  VAL20       0.0252
     18  CG1      -40.6950    1.7560    0.2360 C.3    20  VAL20       0.0019
     19  CG2      -38.3660    1.0560    1.0340 C.3    20  VAL20       0.0019
     20  N        -44.9330    2.5120   -4.1190 N.3    33  ALA33      -0.1245
     21  CA       -43.8880    2.5780   -3.1000 C.3    33  ALA33       0.1562
     22  C        -42.7070    3.2070   -3.8100 C.2    33  ALA33       0.2260
     23  O        -42.4120    2.8550   -4.9510 O.2    33  ALA33      -0.2867
     24  CB       -43.5180    1.1660   -2.5240 C.3    33  ALA33       0.0290
     25  N        -38.7900    3.6700   -3.5390 N.3    35  LYS35      -0.1245
     26  CA       -37.6660    3.0680   -2.9060 C.3    35  LYS35       0.1561
     27  C        -36.3890    3.7010   -3.4310 C.2    35  LYS35       0.2260
     28  O        -36.1070    3.6540   -4.6300 O.2    35  LYS35      -0.2867
     29  CB       -37.6790    1.5550   -3.1900 C.3    35  LYS35       0.0271
     30  CG       -36.4280    0.8980   -2.6820 C.3    35  LYS35       0.0035
     31  CD       -36.6060   -0.6240   -2.5500 C.3    35  LYS35       0.0206
     32  CE       -35.3110   -1.3770   -2.0420 C.3    35  LYS35       0.1093
     33  NZ       -35.6930   -2.8540   -2.1750 N.3    35  LYS35      -0.1314
     34  N        -30.6530   -5.0940   -8.8210 N.3    57  GLU57      -0.1245
     35  CA       -32.0200   -5.1400   -8.3700 C.3    57  GLU57       0.1567
     36  C        -32.9890   -4.7850   -9.5010 C.2    57  GLU57       0.2260
     37  O        -34.0710   -5.4100   -9.6730 O.2    57  GLU57      -0.2867
     38  CB       -32.2010   -4.2280   -7.1530 C.3    57  GLU57       0.0388
     39  CG       -33.6190   -4.1880   -6.5390 C.3    57  GLU57       0.1160
     40  CD       -33.6630   -3.4230   -5.1690 C.2    57  GLU57       0.3649
     41  OE1      -32.6460   -2.9440   -4.7100 O.co2  57  GLU57      -0.2457
     42  OE2      -34.7090   -3.2960   -4.5170 O.co2  57  GLU57      -0.2457
     43  N        -35.8000   -6.9770  -11.1420 N.3    61  LEU61      -0.1245
     44  CA       -37.2160   -6.5220  -11.1750 C.3    61  LEU61       0.1561
     45  C        -37.7290   -6.5490  -12.6240 C.2    61  LEU61       0.2260
     46  O        -38.7740   -7.1150  -12.9230 O.2    61  LEU61      -0.2867
     47  CB       -37.4370   -5.1670  -10.4820 C.3    61  LEU61       0.0270
     48  CG       -37.3440   -5.1930   -8.9580 C.3    61  LEU61       0.0019
     49  CD1      -37.0930   -3.8200   -8.3950 C.3    61  LEU61       0.0001
     50  CD2      -38.5710   -5.8560   -8.2440 C.3    61  LEU61       0.0001
     51  N        -44.1580   -8.0720   -6.5100 N.3    72  ILE72      -0.1245
     52  CA       -44.4190   -6.6770   -6.6680 C.3    72  ILE72       0.1561
     53  C        -43.8340   -6.2100   -8.0160 C.2    72  ILE72       0.2260
     54  O        -42.7400   -6.5940   -8.3670 O.2    72  ILE72      -0.2867
     55  CB       -43.7690   -5.8800   -5.5760 C.3    72  ILE72       0.0252
     56  CG1      -44.6310   -5.9190   -4.3430 C.3    72  ILE72       0.0019
     57  CG2      -43.6520   -4.4340   -5.9700 C.3    72  ILE72       0.0019
     58  CD1      -45.6740   -4.8830   -4.2790 C.3    72  ILE72       0.0001
     59  N        -42.6170    1.2720   -7.3730 N.3    88  LEU88      -0.1231
     60  CA       -43.1810   -0.0920   -7.3870 C.3    88  LEU88       0.1693
     61  C        -44.6510   -0.0550   -6.9960 C.2    88  LEU88       0.2592
     62  O        -45.1160    0.9090   -6.3870 O.2    88  LEU88      -0.2718
     63  CB       -42.4100   -0.9790   -6.3920 C.3    88  LEU88       0.0284
     64  CG       -40.9240   -1.1040   -6.6710 C.3    88  LEU88       0.0019
     65  CD1      -40.0800   -0.6120   -5.4810 C.3    88  LEU88       0.0001
     66  CD2      -40.5980   -2.5720   -7.0080 C.3    88  LEU88       0.0001
     67  N        -45.3820   -1.1080   -7.3070 N.am   89  GLU89      -0.1966
     68  CA       -46.7660   -1.1490   -6.9020 C.3    89  GLU89       0.1733
     69  C        -46.8680   -1.2220   -5.4120 C.2    89  GLU89       0.2616
     70  O        -45.9440   -1.6820   -4.7110 O.2    89  GLU89      -0.2715
     71  CB       -47.5230   -2.2720   -7.6080 C.3    89  GLU89       0.0429
     72  CG       -47.3210   -3.5890   -7.0930 C.3    89  GLU89       0.1163
     73  CD       -48.0520   -4.6630   -7.9320 C.2    89  GLU89       0.3649
     74  OE1      -49.0590   -5.2290   -7.4300 O.co2  89  GLU89      -0.2457
     75  OE2      -47.6320   -4.9490   -9.0810 O.co2  89  GLU89      -0.2457
     76  N        -47.9490   -0.6790   -4.8940 N.am   90  ARG90      -0.1977
     77  CA       -48.2350   -0.7760   -3.4590 C.3    90  ARG90       0.1597
     78  C        -49.6710   -1.1630   -3.2760 C.2    90  ARG90       0.2287
     79  O        -50.5190   -0.3780   -3.6230 O.2    90  ARG90      -0.2864
     80  CB       -48.0020    0.5510   -2.7260 C.3    90  ARG90       0.0334
     81  CG       -48.5000    0.5470   -1.2850 C.3    90  ARG90       0.0492
     82  CD       -47.9380    1.7850   -0.5340 C.3    90  ARG90       0.2205
     83  NE       -48.3450    3.0650   -1.1470 N.pl3  90  ARG90      -0.0865
     84  CZ       -49.5290    3.6480   -0.8990 C.cat  90  ARG90       0.5346
     85  NH1      -50.3900    3.0200   -0.0950 N.pl3  90  ARG90       0.1354
     86  NH2      -49.8770    4.8160   -1.4710 N.pl3  90  ARG90       0.1354
     87  N        -52.1770   -3.1270    3.3010 N.3    94  VAL94      -0.1245
     88  CA       -51.1320   -4.0800    3.1220 C.3    94  VAL94       0.1561
     89  C        -50.4230   -4.2800    4.4610 C.2    94  VAL94       0.2260
     90  O        -50.4450   -3.4210    5.2970 O.2    94  VAL94      -0.2867
     91  CB       -50.0850   -3.5060    2.1930 C.3    94  VAL94       0.0252
     92  CG1      -49.4020   -2.2360    2.8870 C.3    94  VAL94       0.0019
     93  CG2      -49.0440   -4.5920    1.8430 C.3    94  VAL94       0.0019
     94  N        -46.7670   -6.5810    6.0310 N.3    96  ASP96      -0.1239
     95  CA       -45.7760   -7.5690    5.7520 C.3    96  ASP96       0.1674
     96  C        -45.9880   -8.8260    6.5980 C.2    96  ASP96       0.2266
     97  O        -46.7230   -8.7940    7.6040 O.2    96  ASP96      -0.2867
     98  CB       -44.3660   -6.9440    5.8440 C.3    96  ASP96       0.1410
     99  CG       -43.8360   -6.9180    7.2390 C.2    96  ASP96       0.3668
    100  OD1      -44.5630   -7.3630    8.1840 O.co2  96  ASP96      -0.2456
    101  OD2      -42.6650   -6.4650    7.3920 O.co2  96  ASP96      -0.2456
    102  N        -33.2390  -14.0790   -0.6240 N.3   135  ASP135     -0.1239
    103  CA       -33.5590  -13.5130    0.6990 C.3   135  ASP135      0.1674
    104  C        -35.0380  -13.7240    0.9840 C.2   135  ASP135      0.2266
    105  O        -35.7450  -12.8560    1.4520 O.2   135  ASP135     -0.2867
    106  CB       -33.2030  -12.0110    0.6800 C.3   135  ASP135      0.1410
    107  CG       -33.1530  -11.4000    2.0550 C.2   135  ASP135      0.3668
    108  OD1      -32.9240  -12.1570    3.0040 O.co2 135  ASP135     -0.2456
    109  OD2      -33.3440  -10.1430    2.1910 O.co2 135  ASP135     -0.2456
    110  N        -38.0140  -14.5100    2.9840 N.3   137  LYS137     -0.1245
    111  CA       -38.2460  -14.4700    4.4160 C.3   137  LYS137      0.1561
    112  C        -39.5030  -13.6090    4.7150 C.2   137  LYS137      0.2260
    113  O        -39.9190  -12.8500    3.8610 O.2   137  LYS137     -0.2867
    114  CB       -37.0180  -13.9310    5.1430 C.3   137  LYS137      0.0271
    115  CG       -36.6680  -12.5340    4.7470 C.3   137  LYS137      0.0035
    116  CD       -35.7280  -11.9090    5.7300 C.3   137  LYS137      0.0206
    117  CE       -35.4500  -10.4950    5.2590 C.3   137  LYS137      0.1093
    118  NZ       -34.1520  -10.0560    5.9360 N.3   137  LYS137     -0.1314
    119  N        -40.2810  -10.8430    6.2680 N.3   139  GLU139     -0.1231
    120  CA       -40.1610   -9.4070    5.9260 C.3   139  GLU139      0.1699
    121  C        -40.1640   -9.0920    4.4360 C.2   139  GLU139      0.2592
    122  O        -40.2570   -7.9300    4.0760 O.2   139  GLU139     -0.2718
    123  CB       -38.8470   -8.8290    6.4710 C.3   139  GLU139      0.0402
    124  CG       -38.5600   -9.2700    7.9410 C.3   139  GLU139      0.1161
    125  CD       -37.3470   -8.5910    8.5630 C.2   139  GLU139      0.3649
    126  OE1      -36.3480   -9.2580    8.8150 O.co2 139  GLU139     -0.2457
    127  OE2      -37.3700   -7.3590    8.7520 O.co2 139  GLU139     -0.2457
    128  N        -39.9760  -10.0800    3.5600 N.am  140  ASN140     -0.1974
    129  CA       -39.8640   -9.7680    2.1510 C.3   140  ASN140      0.1688
    130  C        -41.1090  -10.2620    1.4560 C.2   140  ASN140      0.2292
    131  O        -41.1030  -10.6030    0.2800 O.2   140  ASN140     -0.2864
    132  CB       -38.5550  -10.3430    1.5560 C.3   140  ASN140      0.1181
    133  CG       -37.3560   -9.4430    1.8540 C.2   140  ASN140      0.2629
    134  OD1      -37.5470   -8.2420    2.0620 O.2   140  ASN140     -0.2716
    135  ND2      -36.1210   -9.9880    1.8220 N.am  140  ASN140     -0.0877
    136  N        -45.2770   -9.3250    1.2520 N.3   142  LEU142     -0.1245
    137  CA       -46.3950   -8.4530    1.5410 C.3   142  LEU142      0.1561
    138  C        -47.6940   -9.1810    1.4230 C.2   142  LEU142      0.2260
    139  O        -47.8610  -10.0110    0.5440 O.2   142  LEU142     -0.2867
    140  CB       -46.4180   -7.2920    0.5660 C.3   142  LEU142      0.0270
    141  CG       -45.1800   -6.3910    0.7080 C.3   142  LEU142      0.0019
    142  CD1      -45.3430   -5.1280   -0.1870 C.3   142  LEU142      0.0001
    143  CD2      -44.8620   -6.0170    2.1940 C.3   142  LEU142      0.0001
    144  N        -41.0710   -9.2350   -2.2970 N.3   153  ILE153     -0.1231
    145  CA       -40.4570   -7.9400   -2.5500 C.3   153  ILE153      0.1692
    146  C        -38.9870   -8.0480   -2.2450 C.2   153  ILE153      0.2592
    147  O        -38.4990   -9.0640   -1.6910 O.2   153  ILE153     -0.2718
    148  CB       -41.0220   -6.8120   -1.6210 C.3   153  ILE153      0.0266
    149  CG1      -40.9400   -7.2480   -0.1610 C.3   153  ILE153      0.0019
    150  CG2      -42.4740   -6.4280   -2.0190 C.3   153  ILE153      0.0020
    151  CD1      -41.0080   -6.0530    0.8140 C.3   153  ILE153      0.0001
    152  N        -38.2950   -6.9950   -2.6600 N.am  154  ASP154     -0.1974
    153  CA       -36.9310   -6.7100   -2.3490 C.3   154  ASP154      0.1709
    154  C        -35.9230   -7.6880   -2.9520 C.2   154  ASP154      0.2293
    155  O        -35.4750   -8.6690   -2.2990 O.2   154  ASP154     -0.2864
    156  CB       -36.7520   -6.5730   -0.8460 C.3   154  ASP154      0.1436
    157  CG       -35.4320   -5.8650   -0.4770 C.2   154  ASP154      0.3671
    158  OD1      -34.4840   -5.8690   -1.2840 O.co2 154  ASP154     -0.2456
    159  OD2      -35.3870   -5.2410    0.5820 O.co2 154  ASP154     -0.2456
@<TRIPOS>BOND
     1    46    45    2
     2    45    44    1
     3    44    43    1
     4    44    47    1
     5    47    48    1
     6    37    36    2
     7    36    35    1
     8    75    73   ar
     9    48    49    1
    10    48    50    1
    11    34    35    1
    12    35    38    1
    13    54    53    2
    14    53    52    1
    15    73    74   ar
    16    73    72    1
    17    71    72    1
    18    71    68    1
    19    60    59    1
    20    60    61    1
    21    60    63    1
    22    67    61   am
    23    67    68    1
    24    38    39    1
    25    66    64    1
    26    61    62    2
    27    68    69    1
    28    64    63    1
    29    64    65    1
    30    52    51    1
    31    52    55    1
    32    39    40    1
    33    57    55    1
    34    55    56    1
    35    69    76   am
    36    69    70    2
    37    40    41   ar
    38    40    42   ar
    39    23    22    2
    40    76    77    1
    41    28    27    2
    42    56    58    1
    43    20    21    1
    44    22    21    1
    45    79    78    2
    46    25    26    1
    47    77    78    1
    48    77    80    1
    49    27    26    1
    50    29    26    1
    51    29    30    1
    52    21    24    1
    53   154   153    1
    54   154   155    2
    55    80    81    1
    56    30    31    1
    57   152   153    1
    58   152   146   am
    59    31    32    1
    60   145   144    1
    61   145   146    1
    62   145   148    1
    63   153   156    1
    64   146   147    2
    65    33    32    1
    66   150   148    1
    67   148   149    1
    68    86    84    1
    69    81    82    1
    70   158   157   ar
    71    83    84    2
    72    83    82    1
    73    84    85    1
    74   156   157    1
    75   102   103    1
    76   157   159   ar
    77   142   141    1
    78   149   151    1
    79    18    17    1
    80   131   130    2
    81   139   138    2
    82   140   141    1
    83   140   137    1
    84   106   103    1
    85   106   107    1
    86   103   104    1
    87   141   143    1
    88   104   105    2
    89    19    17    1
    90    14    17    1
    91    14    15    1
    92    14    13    1
    93   136   137    1
    94   138   137    1
    95   130   129    1
    96   132   133    1
    97   132   129    1
    98    15    16    2
    99   135   133   am
   100    93    91    1
   101   133   134    2
   102     8     6    1
   103   107   109   ar
   104   107   108   ar
   105   129   128    1
   106    91    92    1
   107    91    88    1
   108   110   111    1
   109    88    87    1
   110    88    89    1
   111     6     7    1
   112     6     5    1
   113   128   121   am
   114    11    10    1
   115    11    12    2
   116    10     9    1
   117   113   112    2
   118     5     2    1
   119   122   121    2
   120   111   112    1
   121   111   114    1
   122   121   120    1
   123    89    90    2
   124   115   114    1
   125   115   116    1
   126     1     2    1
   127   117   116    1
   128   117   118    1
   129     2     3    1
   130    95    98    1
   131    95    94    1
   132    95    96    1
   133    98    99    1
   134   120   119    1
   135   120   123    1
   136     4     3    2
   137   123   124    1
   138    96    97    2
   139    99   101   ar
   140    99   100   ar
   141   124   125    1
   142   125   127   ar
   143   125   126   ar
