@<TRIPOS>MOLECULE
tmp/3jy9A00.pdb
 165 154 0 0 0
SMALL
GASTEIGER

@<TRIPOS>ATOM
      1  N         13.6240   10.0470   11.0350 N.3    14  LEU14      -0.1231
      2  CA        14.6730   10.0770   10.0200 C.3    14  LEU14       0.1693
      3  C         15.4720   11.3660   10.0090 C.2    14  LEU14       0.2593
      4  O         16.6090   11.3420    9.6320 O.2    14  LEU14      -0.2718
      5  CB        14.1600    9.7090    8.6060 C.3    14  LEU14       0.0284
      6  CG        13.4590    8.3590    8.3280 C.3    14  LEU14       0.0019
      7  CD1       12.7100    8.3520    6.9610 C.3    14  LEU14       0.0001
      8  CD2       14.4180    7.1430    8.4150 C.3    14  LEU14       0.0001
      9  N         14.9010   12.4830   10.4200 N.am   15  GLY15      -0.1942
     10  CA        15.6160   13.7610   10.3090 C.3    15  GLY15       0.2014
     11  C         14.7270   14.9260   10.6570 C.2    15  GLY15       0.2638
     12  O         13.4960   14.7780   10.6130 O.2    15  GLY15      -0.2714
     13  N         15.3350   16.0660   11.0330 N.am   16  LYS16      -0.1977
     14  CA        14.5900   17.2810   11.4450 C.3    16  LYS16       0.1596
     15  C         15.2150   18.5820   10.9270 C.2    16  LYS16       0.2287
     16  O         16.3750   18.5800   10.5380 O.2    16  LYS16      -0.2864
     17  CB        14.4090   17.3960   12.9800 C.3    16  LYS16       0.0298
     18  CG        14.3780   16.0740   13.7170 C.3    16  LYS16       0.0038
     19  CD        13.3610   16.1060   14.8570 C.3    16  LYS16       0.0206
     20  CE        13.7210   17.1110   15.9380 C.3    16  LYS16       0.1093
     21  NZ        12.6360   17.1700   16.9650 N.3    16  LYS16      -0.1314
     22  N         10.9590   14.4640    9.5540 N.3    20  VAL20      -0.1245
     23  CA        10.5410   13.4090    8.6250 C.3    20  VAL20       0.1561
     24  C         10.6190   12.0790    9.3940 C.2    20  VAL20       0.2260
     25  O         11.6650   11.7880    9.9820 O.2    20  VAL20      -0.2867
     26  CB        11.3910   13.3610    7.3290 C.3    20  VAL20       0.0252
     27  CG1       10.9460   12.1920    6.4360 C.3    20  VAL20       0.0019
     28  CG2       11.3570   14.7450    6.5440 C.3    20  VAL20       0.0019
     29  N          7.4160    7.4930    3.9960 N.3    37  ALA37      -0.1245
     30  CA         8.0300    8.6350    4.6530 C.3    37  ALA37       0.1562
     31  C          6.9670    9.6650    4.9690 C.2    37  ALA37       0.2260
     32  O          6.1780   10.0340    4.0630 O.2    37  ALA37      -0.2867
     33  CB         9.0570    9.2590    3.6970 C.3    37  ALA37       0.0290
     34  N          6.3030   13.5970    6.4850 N.3    39  LYS39      -0.1245
     35  CA         6.7170   14.8940    7.0340 C.3    39  LYS39       0.1561
     36  C          5.5940   15.5620    7.7930 C.2    39  LYS39       0.2260
     37  O          4.4480   15.6440    7.2960 O.2    39  LYS39      -0.2867
     38  CB         7.2030   15.8570    5.9450 C.3    39  LYS39       0.0271
     39  CG         7.4970   17.2470    6.5090 C.3    39  LYS39       0.0035
     40  CD         8.1860   18.1990    5.4710 C.3    39  LYS39       0.0206
     41  CE         8.2250   19.5670    6.1030 C.3    39  LYS39       0.1093
     42  NZ         8.8930   20.5710    5.1970 N.3    39  LYS39      -0.1314
     43  N          4.0950   23.7550   -0.0810 N.3    55  GLU55      -0.1245
     44  CA         5.0410   22.6760   -0.3740 C.3    55  GLU55       0.1567
     45  C          4.3080   21.4030   -0.8320 C.2    55  GLU55       0.2260
     46  O          4.7250   20.6720   -1.7430 O.2    55  GLU55      -0.2867
     47  CB         5.7790   22.3450    0.9340 C.3    55  GLU55       0.0388
     48  CG         6.7730   21.2420    0.7120 C.3    55  GLU55       0.1160
     49  CD         7.6030   20.9130    1.9380 C.2    55  GLU55       0.3649
     50  OE1        7.4640   21.5940    2.9930 O.co2  55  GLU55      -0.2457
     51  OE2        8.3970   19.9640    1.8200 O.co2  55  GLU55      -0.2457
     52  N          4.7760   19.5170   -4.4710 N.3    59  LEU59      -0.1245
     53  CA         5.1700   18.1430   -4.6360 C.3    59  LEU59       0.1561
     54  C          4.0870   17.3360   -5.3840 C.2    59  LEU59       0.2260
     55  O          4.3800   16.6080   -6.3120 O.2    59  LEU59      -0.2867
     56  CB         5.5680   17.4860   -3.3020 C.3    59  LEU59       0.0270
     57  CG         6.2690   16.1260   -3.4620 C.3    59  LEU59       0.0019
     58  CD1        7.6590   16.3150   -4.0100 C.3    59  LEU59       0.0001
     59  CD2        6.3710   15.3920   -2.1500 C.3    59  LEU59       0.0001
     60  N         11.1640   12.9070   -6.1230 N.3    68  VAL68      -0.1245
     61  CA        10.5430   12.1470   -5.0760 C.3    68  VAL68       0.1561
     62  C          8.9690   12.1650   -5.2080 C.2    68  VAL68       0.2260
     63  O          8.3210   13.1790   -5.5400 O.2    68  VAL68      -0.2867
     64  CB        11.0740   12.5450   -3.6940 C.3    68  VAL68       0.0252
     65  CG1       10.6420   13.9210   -3.3350 C.3    68  VAL68       0.0019
     66  CG2       10.4980   11.6290   -2.6080 C.3    68  VAL68       0.0019
     67  N          2.3800   15.0680    5.4960 N.3    81  LEU81      -0.1245
     68  CA         2.6420   14.8300    4.0740 C.3    81  LEU81       0.1561
     69  C          3.1780   13.4340    3.9490 C.2    81  LEU81       0.2260
     70  O          4.2530   13.1380    4.4740 O.2    81  LEU81      -0.2867
     71  CB         3.6460   15.8430    3.4960 C.3    81  LEU81       0.0270
     72  CG         4.3500   15.6250    2.1520 C.3    81  LEU81       0.0019
     73  CD1        3.3520   15.5570    0.9370 C.3    81  LEU81       0.0001
     74  CD2        5.3700   16.7700    1.9710 C.3    81  LEU81       0.0001
     75  N          4.7760   10.3930    1.7180 N.3    83  MET83      -0.1230
     76  CA         5.6190   10.3020    0.5000 C.3    83  MET83       0.1702
     77  C          6.2330    8.9410    0.3850 C.2    83  MET83       0.2592
     78  O          6.2710    8.2340    1.3850 O.2    83  MET83      -0.2718
     79  CB         6.7570   11.3170    0.5620 C.3    83  MET83       0.0401
     80  CG         6.3060   12.7850    0.7650 C.3    83  MET83       0.0596
     81  SD         7.6770   13.9070    0.9990 S.3    83  MET83      -0.1393
     82  CE         7.9000   13.6930    2.7370 C.3    83  MET83       0.0692
     83  N          6.8120    8.5810   -0.7680 N.am   84  GLU84      -0.1966
     84  CA         7.5580    7.3110   -0.8240 C.3    84  GLU84       0.1733
     85  C          8.7640    7.3800    0.1370 C.2    84  GLU84       0.2616
     86  O          9.3640    8.4590    0.2960 O.2    84  GLU84      -0.2715
     87  CB         8.0480    6.9520   -2.2320 C.3    84  GLU84       0.0429
     88  CG         8.9670    8.0460   -2.9170 C.3    84  GLU84       0.1163
     89  CD         9.4620    7.6510   -4.3220 C.2    84  GLU84       0.3649
     90  OE1        9.2860    6.4940   -4.7340 O.co2  84  GLU84      -0.2457
     91  OE2       10.0010    8.4890   -5.0580 O.co2  84  GLU84      -0.2457
     92  N          9.0980    6.2340    0.7390 N.am   85  TYR85      -0.1960
     93  CA        10.3550    6.0510    1.4660 C.3    85  TYR85       0.1771
     94  C         11.4980    5.5620    0.5460 C.2    85  TYR85       0.2619
     95  O         11.3850    4.5140   -0.0760 O.2    85  TYR85      -0.2715
     96  CB        10.1480    5.0880    2.6590 C.3    85  TYR85       0.0574
     97  CG        11.4110    4.7950    3.4360 C.ar   85  TYR85      -0.0198
     98  CD1       12.0960    5.8240    4.1120 C.ar   85  TYR85      -0.0009
     99  CD2       11.9200    3.4840    3.5080 C.ar   85  TYR85      -0.0009
    100  CE1       13.2970    5.5610    4.8020 C.ar   85  TYR85       0.0417
    101  CE2       13.1190    3.1950    4.2430 C.ar   85  TYR85       0.0417
    102  CZ        13.7880    4.2410    4.8670 C.ar   85  TYR85       0.1957
    103  OH        14.9360    4.0210    5.5820 O.3    85  TYR85      -0.2866
    104  N         12.5790    6.3470    0.4240 N.am   86  LEU86      -0.1977
    105  CA        13.7730    5.9110   -0.3660 C.3    86  LEU86       0.1596
    106  C         14.8600    5.3780    0.5540 C.2    86  LEU86       0.2287
    107  O         15.5100    6.1230    1.2620 O.2    86  LEU86      -0.2864
    108  CB        14.2560    7.0140   -1.3400 C.3    86  LEU86       0.0297
    109  CG        13.1730    7.4860   -2.2980 C.3    86  LEU86       0.0022
    110  CD1       13.7080    8.4610   -3.3130 C.3    86  LEU86       0.0001
    111  CD2       12.4710    6.2940   -2.9990 C.3    86  LEU86       0.0001
    112  N         18.7100    6.4430    1.3920 N.3    89  GLY89      -0.1225
    113  CA        18.9210    7.7610    2.0070 C.3    89  GLY89       0.1811
    114  C         19.3960    8.8110    1.0130 C.2    89  GLY89       0.2280
    115  O         19.1630    8.7030   -0.2150 O.2    89  GLY89      -0.2866
    116  N         22.7320   16.6610   -0.0010 N.3   134  ARG134     -0.1231
    117  CA        21.9800   16.1520    1.1190 C.3   134  ARG134      0.1694
    118  C         20.4710   16.1800    0.8220 C.2   134  ARG134      0.2592
    119  O         19.6880   15.4980    1.5310 O.2   134  ARG134     -0.2718
    120  CB        22.3290   16.8900    2.4260 C.3   134  ARG134      0.0321
    121  CG        21.9740   18.4120    2.4330 C.3   134  ARG134      0.0489
    122  CD        22.2820   19.0560    3.8060 C.3   134  ARG134      0.2205
    123  NE        21.5740   20.3280    3.9960 N.pl3 134  ARG134     -0.0865
    124  CZ        21.7030   21.1060    5.0790 C.cat 134  ARG134      0.5346
    125  NH1       22.5390   20.7650    6.0880 N.pl3 134  ARG134      0.1354
    126  NH2       20.9880   22.2280    5.1650 N.pl3 134  ARG134      0.1354
    127  N         20.0580   16.9970   -0.1730 N.am  135  ASN135     -0.1974
    128  CA        18.6390   17.0440   -0.5700 C.3   135  ASN135      0.1688
    129  C         18.3390   16.2860   -1.8650 C.2   135  ASN135      0.2292
    130  O         17.2630   16.4530   -2.4610 O.2   135  ASN135     -0.2864
    131  CB        18.0670   18.4870   -0.5600 C.3   135  ASN135      0.1181
    132  CG        18.4100   19.2090    0.7170 C.2   135  ASN135      0.2629
    133  OD1       18.3280   18.6320    1.8000 O.2   135  ASN135     -0.2716
    134  ND2       18.9040   20.4200    0.6060 N.am  135  ASN135     -0.0877
    135  N         17.9830   12.2290   -3.1870 N.3   137  LEU137     -0.1245
    136  CA        17.7980   10.9400   -2.5130 C.3   137  LEU137      0.1561
    137  C         18.1360    9.8370   -3.4890 C.2   137  LEU137      0.2260
    138  O         17.9720   10.0150   -4.6670 O.2   137  LEU137     -0.2867
    139  CB        16.3300   10.7590   -2.0970 C.3   137  LEU137      0.0270
    140  CG        15.7350   11.7150   -1.0830 C.3   137  LEU137      0.0019
    141  CD1       14.2520   11.3500   -0.9780 C.3   137  LEU137      0.0001
    142  CD2       16.3670   11.5520    0.2820 C.3   137  LEU137      0.0001
    143  N         14.7230   15.8350   -3.6880 N.3   147  GLY147     -0.1210
    144  CA        13.8200   15.7980   -2.5390 C.3   147  GLY147      0.1956
    145  C         13.7880   17.1850   -1.9170 C.2   147  GLY147      0.2612
    146  O         14.0510   18.1830   -2.5960 O.2   147  GLY147     -0.2717
    147  N         13.4580   17.1810   -0.6170 N.am  148  ASP148     -0.1959
    148  CA        13.1800   18.2920    0.2180 C.3   148  ASP148      0.1840
    149  C         12.8570   19.5860   -0.5030 C.2   148  ASP148      0.2622
    150  O         13.7660   20.4240   -0.7270 O.2   148  ASP148     -0.2715
    151  CB        14.3320   18.5210    1.2160 C.3   148  ASP148      0.1450
    152  CG        13.8570   19.2360    2.4790 C.2   148  ASP148      0.3671
    153  OD1       12.8740   20.0010    2.4280 O.co2 148  ASP148     -0.2456
    154  OD2       14.4430   19.0000    3.5320 O.co2 148  ASP148     -0.2456
    155  N         11.5630   19.7560   -0.8140 N.am  149  PHE149     -0.1974
    156  CA        11.0330   20.9620   -1.4730 C.3   149  PHE149      0.1639
    157  C         10.6750   22.0450   -0.4290 C.2   149  PHE149      0.2290
    158  O          9.9480   22.9820   -0.7230 O.2   149  PHE149     -0.2864
    159  CB         9.8530   20.5880   -2.3970 C.3   149  PHE149      0.0560
    160  CG        10.3040   19.8860   -3.6470 C.ar  149  PHE149     -0.0200
    161  CD1       10.5040   20.5880   -4.8280 C.ar  149  PHE149     -0.0042
    162  CD2       10.6550   18.5030   -3.6150 C.ar  149  PHE149     -0.0042
    163  CE1       11.0160   19.9150   -6.0060 C.ar  149  PHE149     -0.0003
    164  CE2       11.1160   17.8550   -4.7680 C.ar  149  PHE149     -0.0003
    165  CZ        11.3320   18.5480   -5.9470 C.ar  149  PHE149     -0.0000
@<TRIPOS>BOND
     1    55    54    2
     2    60    61    1
     3   163   165   ar
     4   163   161   ar
     5   165   164   ar
     6    63    62    2
     7    54    53    1
     8    62    61    1
     9    61    64    1
    10    91    89   ar
    11   161   160   ar
    12   164   162   ar
    13    90    89   ar
    14   138   137    2
    15    53    52    1
    16    53    56    1
    17    89    88    1
    18    58    57    1
    19    64    65    1
    20    64    66    1
    21   143   144    1
    22   160   162   ar
    23   160   159    1
    24   137   136    1
    25    57    56    1
    26    57    59    1
    27   110   109    1
    28   135   136    1
    29   111   109    1
    30    88    87    1
    31   146   145    2
    32   144   145    1
    33   136   139    1
    34   130   129    2
    35   159   156    1
    36   109   108    1
    37    87    84    1
    38   139   140    1
    39   145   147   am
    40   129   128    1
    41    46    45    2
    42   156   155    1
    43   156   157    1
    44   108   105    1
    45   140   141    1
    46   140   142    1
    47    45    44    1
    48    84    83    1
    49    84    85    1
    50   155   149   am
    51    83    77   am
    52   150   149    2
    53   158   157    2
    54   147   148    1
    55   128   131    1
    56   128   127    1
    57   131   132    1
    58   149   148    1
    59    44    43    1
    60    44    47    1
    61   105   104    1
    62   105   106    1
    63   115   114    2
    64   127   118   am
    65    95    94    2
    66   116   117    1
    67    85    86    2
    68    85    92   am
    69   148   151    1
    70    77    76    1
    71    77    78    2
    72   104    94   am
    73    76    79    1
    74    76    75    1
    75    94    93    1
    76   106   107    2
    77    79    80    1
    78   134   132   am
    79    48    47    1
    80    48    49    1
    81   132   133    2
    82    92    93    1
    83    80    81    1
    84   118   117    1
    85   118   119    2
    86    73    72    1
    87    81    82    1
    88   114   113    1
    89   117   120    1
    90   151   152    1
    91   112   113    1
    92    93    96    1
    93    51    49   ar
    94    49    50   ar
    95    74    72    1
    96    72    71    1
    97   120   121    1
    98   153   152   ar
    99   121   122    1
   100   152   154   ar
   101    96    97    1
   102    97    99   ar
   103    97    98   ar
   104    71    68    1
   105    99   101   ar
   106    33    30    1
   107   122   123    1
   108    69    68    1
   109    69    70    2
   110    29    30    1
   111   123   124    2
   112    32    31    2
   113    68    67    1
   114    98   100   ar
   115   101   102   ar
   116    30    31    1
   117   100   102   ar
   118   102   103    1
   119   124   126    1
   120   124   125    1
   121    42    41    1
   122    40    41    1
   123    40    39    1
   124    38    39    1
   125    38    35    1
   126    27    26    1
   127    34    35    1
   128    28    26    1
   129     7     6    1
   130    35    36    1
   131    37    36    2
   132    26    23    1
   133     6     8    1
   134     6     5    1
   135     5     2    1
   136    23    24    1
   137    23    22    1
   138    24    25    2
   139     4     3    2
   140     3     2    1
   141     3     9   am
   142     2     1    1
   143    10     9    1
   144    10    11    1
   145    16    15    2
   146    12    11    2
   147    11    13   am
   148    15    14    1
   149    13    14    1
   150    14    17    1
   151    17    18    1
   152    18    19    1
   153    19    20    1
   154    20    21    1
