@<TRIPOS>MOLECULE
tmp/3jyaA00.pdb
 126 117 0 0 0
SMALL
GASTEIGER

@<TRIPOS>ATOM
      1  N          6.3570   88.6410    4.3690 N.3    12  LEU12      -0.1231
      2  CA         5.7470   87.3640    4.7000 C.3    12  LEU12       0.1693
      3  C          6.7360   86.4370    5.3810 C.2    12  LEU12       0.2592
      4  O          6.3490   85.6630    6.2460 O.2    12  LEU12      -0.2718
      5  CB         5.1280   86.7000    3.4680 C.3    12  LEU12       0.0284
      6  CG         3.9340   87.3820    2.7780 C.3    12  LEU12       0.0019
      7  CD1        3.5500   86.6110    1.5270 C.3    12  LEU12       0.0001
      8  CD2        2.7390   87.5250    3.7040 C.3    12  LEU12       0.0001
      9  N          8.0020   86.5050    4.9890 N.am   13  GLY13      -0.1957
     10  CA         9.0420   85.7080    5.6320 C.3    13  GLY13       0.1869
     11  C         10.4380   86.1250    5.2090 C.2    13  GLY13       0.2309
     12  O         10.6290   86.8300    4.1960 O.2    13  GLY13      -0.2863
     13  N         16.3550   81.6810    2.2820 N.3    17  PHE17      -0.1241
     14  CA        15.7990   81.9160    0.9320 C.3    17  PHE17       0.1605
     15  C         15.7970   83.3730    0.4520 C.2    17  PHE17       0.2264
     16  O         15.5340   83.6390   -0.7260 O.2    17  PHE17      -0.2867
     17  CB        14.3790   81.3540    0.8350 C.3    17  PHE17       0.0534
     18  CG        13.4540   81.8280    1.9240 C.ar   17  PHE17      -0.0203
     19  CD1       12.7400   83.0240    1.7860 C.ar   17  PHE17      -0.0042
     20  CD2       13.2780   81.0730    3.0790 C.ar   17  PHE17      -0.0042
     21  CE1       11.8870   83.4600    2.7970 C.ar   17  PHE17      -0.0003
     22  CE2       12.4230   81.5130    4.1010 C.ar   17  PHE17      -0.0003
     23  CZ        11.7260   82.6970    3.9500 C.ar   17  PHE17      -0.0000
     24  N         10.6710   87.5590    1.4970 N.3    20  VAL20      -0.1245
     25  CA         9.4580   87.4190    0.7020 C.3    20  VAL20       0.1561
     26  C          8.3780   88.3620    1.2250 C.2    20  VAL20       0.2260
     27  O          8.0780   88.3530    2.4240 O.2    20  VAL20      -0.2867
     28  CB         8.9240   85.9460    0.7170 C.3    20  VAL20       0.0252
     29  CG1        7.6250   85.8250   -0.0800 C.3    20  VAL20       0.0019
     30  CG2        9.9670   84.9960    0.1510 C.3    20  VAL20       0.0019
     31  N          3.6110   86.8250   -4.4780 N.3    33  ALA33      -0.1245
     32  CA         4.6670   86.9240   -3.4920 C.3    33  ALA33       0.1562
     33  C          5.8740   87.5070   -4.2070 C.2    33  ALA33       0.2260
     34  O          6.1490   87.1490   -5.3500 O.2    33  ALA33      -0.2867
     35  CB         5.0050   85.5350   -2.8800 C.3    33  ALA33       0.0290
     36  N          9.8750   88.0080   -3.9460 N.3    35  LYS35      -0.1245
     37  CA        11.0340   87.4340   -3.2780 C.3    35  LYS35       0.1561
     38  C         12.3450   88.0830   -3.7260 C.2    35  LYS35       0.2260
     39  O         12.6670   88.1290   -4.9240 O.2    35  LYS35      -0.2867
     40  CB        11.0590   85.9160   -3.5050 C.3    35  LYS35       0.0271
     41  CG        12.2540   85.2070   -2.9360 C.3    35  LYS35       0.0035
     42  CD        12.3470   83.8110   -3.5130 C.3    35  LYS35       0.0206
     43  CE        12.8430   82.8320   -2.4630 C.3    35  LYS35       0.1093
     44  NZ        12.8420   81.4090   -2.9300 N.3    35  LYS35      -0.1314
     45  N          4.7880   76.3710   -6.3390 N.3    72  ILE72      -0.1245
     46  CA         4.4760   77.7950   -6.4540 C.3    72  ILE72       0.1561
     47  C          5.2110   78.2970   -7.7070 C.2    72  ILE72       0.2260
     48  O          6.4430   78.2660   -7.7680 O.2    72  ILE72      -0.2867
     49  CB         4.8930   78.6340   -5.2060 C.3    72  ILE72       0.0252
     50  CG1        3.8950   78.4710   -4.0450 C.3    72  ILE72       0.0019
     51  CG2        5.0230   80.1080   -5.5620 C.3    72  ILE72       0.0019
     52  CD1        2.5650   79.1780   -4.2180 C.3    72  ILE72       0.0001
     53  N          6.1460   85.4410   -7.6780 N.3    88  LEU88      -0.1231
     54  CA         5.6020   84.0860   -7.5630 C.3    88  LEU88       0.1693
     55  C          4.1150   84.1440   -7.2720 C.2    88  LEU88       0.2592
     56  O          3.6550   85.1120   -6.6910 O.2    88  LEU88      -0.2718
     57  CB         6.3320   83.3290   -6.4460 C.3    88  LEU88       0.0284
     58  CG         7.8510   83.2350   -6.5890 C.3    88  LEU88       0.0019
     59  CD1        8.5060   83.2660   -5.2290 C.3    88  LEU88       0.0001
     60  CD2        8.2640   81.9930   -7.3670 C.3    88  LEU88       0.0001
     61  N          3.3530   83.1240   -7.6750 N.am   89  GLU89      -0.1966
     62  CA         1.9280   83.0850   -7.3200 C.3    89  GLU89       0.1733
     63  C          1.7420   83.0280   -5.8100 C.2    89  GLU89       0.2616
     64  O          2.5900   82.4970   -5.0890 O.2    89  GLU89      -0.2715
     65  CB         1.1640   81.9360   -8.0090 C.3    89  GLU89       0.0429
     66  CG         1.9440   80.6660   -8.2050 C.3    89  GLU89       0.1163
     67  CD         1.1050   79.5020   -8.7280 C.2    89  GLU89       0.3649
     68  OE1        1.4810   78.3470   -8.4520 O.co2  89  GLU89      -0.2457
     69  OE2        0.0770   79.7230   -9.4080 O.co2  89  GLU89      -0.2457
     70  N          0.6570   83.6150   -5.3280 N.am   90  ARG90      -0.1964
     71  CA         0.3500   83.5690   -3.9110 C.3    90  ARG90       0.1714
     72  C         -1.1000   83.1380   -3.7110 C.2    90  ARG90       0.2458
     73  O         -2.0030   83.9220   -3.9550 O.2    90  ARG90      -0.2730
     74  CB         0.6350   84.9300   -3.2500 C.3    90  ARG90       0.0347
     75  CG         0.2710   85.0400   -1.7890 C.3    90  ARG90       0.0492
     76  CD         0.7830   86.3480   -1.1880 C.3    90  ARG90       0.2205
     77  NE         0.2420   87.5480   -1.8410 N.pl3  90  ARG90      -0.0865
     78  CZ        -0.9510   88.0940   -1.5840 C.cat  90  ARG90       0.5346
     79  NH1       -1.7700   87.5580   -0.6840 N.pl3  90  ARG90       0.1354
     80  NH2       -1.3350   89.1900   -2.2280 N.pl3  90  ARG90       0.1354
     81  N         -1.3130   81.8790   -3.2630 N.am   91  PRO91      -0.2727
     82  CA        -2.6250   81.3770   -2.8250 C.3    91  PRO91       0.1402
     83  C         -3.0610   82.1640   -1.6020 C.2    91  PRO91       0.2269
     84  O         -2.2020   82.6310   -0.8360 O.2    91  PRO91      -0.2865
     85  CB        -2.3340   79.9330   -2.3960 C.3    91  PRO91       0.0296
     86  CG        -1.0330   79.5850   -3.0600 C.3    91  PRO91       0.0237
     87  CD        -0.2580   80.8620   -3.1100 C.3    91  PRO91       0.0939
     88  N         -3.1640   81.2170    2.9980 N.3    94  VAL94      -0.1245
     89  CA        -2.0820   80.2480    2.9100 C.3    94  VAL94       0.1561
     90  C         -1.3740   80.1150    4.2670 C.2    94  VAL94       0.2260
     91  O         -1.2390   81.0980    5.0120 O.2    94  VAL94      -0.2867
     92  CB        -1.0950   80.5960    1.7210 C.3    94  VAL94       0.0252
     93  CG1       -0.2920   81.8860    1.9810 C.3    94  VAL94       0.0019
     94  CG2       -0.1580   79.4660    1.4410 C.3    94  VAL94       0.0019
     95  N          2.2020   77.8500    5.8610 N.3    96  ASP96      -0.1239
     96  CA         3.2280   76.8330    5.6400 C.3    96  ASP96       0.1674
     97  C          3.0010   75.6630    6.5900 C.2    96  ASP96       0.2266
     98  O          2.3760   75.8230    7.6440 O.2    96  ASP96      -0.2867
     99  CB         4.6800   77.3800    5.5960 C.3    96  ASP96       0.1410
    100  CG         5.3090   77.5910    6.9710 C.2    96  ASP96       0.3668
    101  OD1        5.0420   76.8330    7.9340 O.co2  96  ASP96      -0.2456
    102  OD2        6.1320   78.5190    7.0690 O.co2  96  ASP96      -0.2456
    103  N          3.7180   75.0190    1.3140 N.3   142  LEU142     -0.1245
    104  CA         2.5900   75.9070    1.6270 C.3   142  LEU142      0.1561
    105  C          1.2750   75.1690    1.4570 C.2   142  LEU142      0.2260
    106  O          1.1410   74.3450    0.5410 O.2   142  LEU142     -0.2867
    107  CB         2.5900   77.1460    0.7230 C.3   142  LEU142      0.0270
    108  CG         3.8260   78.0580    0.7660 C.3   142  LEU142      0.0019
    109  CD1        3.6140   79.2680   -0.1030 C.3   142  LEU142      0.0001
    110  CD2        4.1440   78.4750    2.2050 C.3   142  LEU142      0.0001
    111  N          7.8740   75.2120   -2.3320 N.3   153  ILE153     -0.1231
    112  CA         8.6110   76.4750   -2.4620 C.3   153  ILE153      0.1692
    113  C         10.1110   76.3230   -2.1470 C.2   153  ILE153      0.2592
    114  O         10.5460   75.2790   -1.6430 O.2   153  ILE153     -0.2718
    115  CB         8.0200   77.5890   -1.5180 C.3   153  ILE153      0.0266
    116  CG1        7.9980   77.1060   -0.0620 C.3   153  ILE153      0.0019
    117  CG2        6.6120   77.9880   -1.9670 C.3   153  ILE153      0.0020
    118  CD1        7.9270   78.2010    0.9990 C.3   153  ILE153      0.0001
    119  N         10.8580   77.4110   -2.3800 N.am  154  ASP154     -0.1974
    120  CA        12.3390   77.5320   -2.2760 C.3   154  ASP154      0.1709
    121  C         13.1940   76.4340   -2.8800 C.2   154  ASP154      0.2293
    122  O         13.7000   75.5350   -2.1950 O.2   154  ASP154     -0.2864
    123  CB        12.9140   78.0140   -0.9060 C.3   154  ASP154      0.1436
    124  CG        14.4680   78.4220   -1.0000 C.2   154  ASP154      0.3671
    125  OD1       14.9090   79.0440   -2.0180 O.co2 154  ASP154     -0.2456
    126  OD2       15.2660   78.1230   -0.0420 O.co2 154  ASP154     -0.2456
@<TRIPOS>BOND
     1    69    67   ar
     2    67    68   ar
     3    67    66    1
     4    66    65    1
     5    65    62    1
     6    48    47    2
     7    47    46    1
     8    53    54    1
     9    61    62    1
    10    61    55   am
    11    54    55    1
    12    54    57    1
    13    60    58    1
    14    62    63    1
    15    55    56    2
    16    58    57    1
    17    58    59    1
    18    46    45    1
    19    46    49    1
    20    63    70   am
    21    63    64    2
    22    51    49    1
    23    34    33    2
    24    70    71    1
    25    49    50    1
    26    39    38    2
    27    31    32    1
    28    52    50    1
    29    33    32    1
    30    73    72    2
    31    36    37    1
    32    71    72    1
    33    71    74    1
    34    38    37    1
    35    72    81   am
    36    42    41    1
    37    42    43    1
    38    40    37    1
    39    40    41    1
    40    32    35    1
    41    81    87    1
    42    81    82    1
    43    74    75    1
    44    87    86    1
    45    86    85    1
    46    44    43    1
    47   121   120    1
    48   121   122    2
    49    82    85    1
    50    82    83    1
    51   112   111    1
    52   112   113    1
    53   112   115    1
    54   119   120    1
    55   119   113   am
    56   120   123    1
    57    80    78    1
    58   113   114    2
    59   125   124   ar
    60   117   115    1
    61    77    78    2
    62    77    76    1
    63    75    76    1
    64    83    84    2
    65    78    79    1
    66   115   116    1
    67   124   123    1
    68   124   126   ar
    69    16    15    2
    70   109   108    1
    71    29    28    1
    72   116   118    1
    73    30    28    1
    74    15    14    1
    75   106   105    2
    76    25    28    1
    77    25    26    1
    78    25    24    1
    79   107   108    1
    80   107   104    1
    81   108   110    1
    82    17    14    1
    83    17    18    1
    84    14    13    1
    85    26    27    2
    86   103   104    1
    87    94    92    1
    88   105   104    1
    89     7     6    1
    90    92    93    1
    91    92    89    1
    92    19    18   ar
    93    19    21   ar
    94    18    20   ar
    95     6     5    1
    96     6     8    1
    97    21    23   ar
    98    89    88    1
    99    89    90    1
   100    20    22   ar
   101     5     2    1
   102    23    22   ar
   103    12    11    2
   104    90    91    2
   105     1     2    1
   106     2     3    1
   107     9     3   am
   108     9    10    1
   109    11    10    1
   110     3     4    2
   111    99    96    1
   112    99   100    1
   113    96    95    1
   114    96    97    1
   115    97    98    2
   116   100   102   ar
   117   100   101   ar
