@<TRIPOS>MOLECULE
tmp/3jyfA00.pdb
 103 100 0 0 0
SMALL
GASTEIGER

@<TRIPOS>ATOM
      1  N         23.5180    8.5650   63.2620 N.3    14  HIS14      -0.1241
      2  CA        24.2500    7.4760   63.9140 C.3    14  HIS14       0.1621
      3  C         24.4300    7.7010   65.4160 C.2    14  HIS14       0.2264
      4  O         25.5030    7.4600   65.9670 O.2    14  HIS14      -0.2867
      5  CB        25.5890    7.1730   63.2180 C.3    14  HIS14       0.0745
      6  CG        25.4360    6.4080   61.9360 C.ar   14  HIS14       0.0817
      7  ND1       24.9970    5.0950   61.8960 N.ar   14  HIS14      -0.2268
      8  CD2       25.6300    6.7820   60.6470 C.ar   14  HIS14       0.1154
      9  CE1       24.9320    4.7000   60.6360 C.ar   14  HIS14       0.1986
     10  NE2       25.3120    5.7030   59.8590 N.ar   14  HIS14      -0.2212
     11  N         19.1220    5.6570   60.0850 N.3    55  ASP55      -0.1239
     12  CA        20.4570    5.3590   60.6190 C.3    55  ASP55       0.1674
     13  C         20.7570    6.3030   61.7500 C.2    55  ASP55       0.2266
     14  O         21.6940    7.0990   61.6770 O.2    55  ASP55      -0.2867
     15  CB        21.5610    5.4200   59.5550 C.3    55  ASP55       0.1410
     16  CG        21.8150    4.0740   58.9030 C.2    55  ASP55       0.3668
     17  OD1       20.9860    3.1380   59.0460 O.co2  55  ASP55      -0.2456
     18  OD2       22.8550    3.9500   58.2440 O.co2  55  ASP55      -0.2456
     19  N         19.0970    1.2530   57.3820 N.3    93  ASN93      -0.1225
     20  CA        19.4760   -0.1510   57.5750 C.3    93  ASN93       0.1785
     21  C         19.9260   -0.4860   59.0060 C.2    93  ASN93       0.2597
     22  O         19.5910   -1.5630   59.5410 O.2    93  ASN93      -0.2718
     23  CB        20.5060   -0.6170   56.5520 C.3    93  ASN93       0.1169
     24  CG        21.6640    0.3250   56.4200 C.2    93  ASN93       0.2627
     25  OD1       21.5450    1.4110   55.8330 O.2    93  ASN93      -0.2716
     26  ND2       22.8100   -0.0770   56.9520 N.am   93  ASN93      -0.0877
     27  N         20.6510    0.4320   59.6410 N.am   94  HIS94      -0.1975
     28  CA        21.1790    0.1510   60.9700 C.3    94  HIS94       0.1656
     29  C         20.1300    0.1680   62.0720 C.2    94  HIS94       0.2291
     30  O         20.4230   -0.2740   63.1760 O.2    94  HIS94      -0.2864
     31  CB        22.3490    1.0790   61.3040 C.3    94  HIS94       0.0771
     32  CG        23.5900    0.7640   60.5340 C.ar   94  HIS94       0.0820
     33  ND1       24.4330   -0.2710   60.8780 N.ar   94  HIS94      -0.2267
     34  CD2       24.1050    1.3080   59.4050 C.ar   94  HIS94       0.1154
     35  CE1       25.4280   -0.3340   60.0120 C.ar   94  HIS94       0.1986
     36  NE2       25.2500    0.6060   59.1050 N.ar   94  HIS94      -0.2212
     37  N         19.8720   -3.4510   63.5170 N.3    97  ASN97      -0.1240
     38  CA        21.0270   -4.1410   64.0820 C.3    97  ASN97       0.1653
     39  C         20.7460   -4.7480   65.4640 C.2    97  ASN97       0.2266
     40  O         21.3840   -5.7120   65.8510 O.2    97  ASN97      -0.2867
     41  CB        22.2230   -3.1890   64.2120 C.3    97  ASN97       0.1155
     42  CG        22.7760   -2.7100   62.8780 C.2    97  ASN97       0.2627
     43  OD1       23.6490   -1.8250   62.8520 O.2    97  ASN97      -0.2716
     44  ND2       22.3120   -3.2960   61.7700 N.am   97  ASN97      -0.0877
     45  N         19.0720   -5.1950   53.8500 N.3   160  ILE160     -0.1245
     46  CA        18.9270   -5.5190   55.2660 C.3   160  ILE160      0.1561
     47  C         18.6870   -7.0070   55.4800 C.2   160  ILE160      0.2260
     48  O         19.0360   -7.5300   56.5420 O.2   160  ILE160     -0.2867
     49  CB        17.8450   -4.6680   56.0330 C.3   160  ILE160      0.0252
     50  CG1       16.3980   -4.9760   55.5780 C.3   160  ILE160      0.0019
     51  CG2       18.1970   -3.1730   56.0050 C.3   160  ILE160      0.0019
     52  CD1       15.2870   -4.0900   56.3060 C.3   160  ILE160      0.0001
     53  N         22.3260   -8.1190   55.6180 N.3   162  TRP162     -0.1227
     54  CA        23.0730   -7.4470   56.6610 C.3   162  TRP162      0.1737
     55  C         22.5490   -7.8250   58.0450 C.2   162  TRP162      0.2595
     56  O         23.3260   -7.9560   58.9910 O.2   162  TRP162     -0.2718
     57  CB        22.9890   -5.9410   56.4580 C.3   162  TRP162      0.0564
     58  CG        23.6260   -5.4360   55.1960 C.ar  162  TRP162      0.0003
     59  CD1       24.6480   -6.0160   54.5000 C.ar  162  TRP162      0.0946
     60  CD2       23.3180   -4.2150   54.5030 C.ar  162  TRP162      0.0152
     61  NE1       24.9810   -5.2510   53.4100 N.ar  162  TRP162     -0.2442
     62  CE2       24.1820   -4.1370   53.3880 C.ar  162  TRP162      0.0810
     63  CE3       22.3850   -3.1920   54.7060 C.ar  162  TRP162      0.0012
     64  CZ2       24.1530   -3.0600   52.4830 C.ar  162  TRP162      0.0191
     65  CZ3       22.3590   -2.1250   53.8080 C.ar  162  TRP162      0.0001
     66  CH2       23.2330   -2.0710   52.7090 C.ar  162  TRP162      0.0015
     67  N         21.2320   -7.9920   58.1540 N.am  163  ASP163     -0.1974
     68  CA        20.6120   -8.4450   59.3870 C.3   163  ASP163      0.1709
     69  C         19.8220   -9.7620   59.2350 C.2   163  ASP163      0.2293
     70  O         18.7630   -9.9480   59.8540 O.2   163  ASP163     -0.2864
     71  CB        19.7510   -7.3320   59.9770 C.3   163  ASP163      0.1436
     72  CG        20.4970   -6.5230   61.0210 C.2   163  ASP163      0.3671
     73  OD1       20.9650   -7.1290   62.0230 O.co2 163  ASP163     -0.2456
     74  OD2       20.6190   -5.2850   60.8460 O.co2 163  ASP163     -0.2456
     75  N         20.6280   -1.3310   45.8410 N.3   211  GLU211     -0.1245
     76  CA        20.8090   -0.7160   47.1330 C.3   211  GLU211      0.1567
     77  C         20.7090    0.8150   47.0080 C.2   211  GLU211      0.2260
     78  O         20.1570    1.4990   47.8770 O.2   211  GLU211     -0.2867
     79  CB        22.1910   -1.1090   47.6470 C.3   211  GLU211      0.0388
     80  CG        22.6300   -0.4210   48.9490 C.3   211  GLU211      0.1160
     81  CD        23.9970   -0.9010   49.4120 C.2   211  GLU211      0.3649
     82  OE1       24.4970   -1.9130   48.8460 O.co2 211  GLU211     -0.2457
     83  OE2       24.5580   -0.2730   50.3470 O.co2 211  GLU211     -0.2457
     84  N         22.3380    7.2810   53.4180 N.3   229  HIS229     -0.1241
     85  CA        22.9860    5.9670   53.3160 C.3   229  HIS229      0.1621
     86  C         24.4240    6.0070   52.7560 C.2   229  HIS229      0.2264
     87  O         25.3020    5.3310   53.2960 O.2   229  HIS229     -0.2867
     88  CB        22.1060    4.9830   52.5400 C.3   229  HIS229      0.0745
     89  CG        22.6650    3.6010   52.4450 C.ar  229  HIS229      0.0817
     90  ND1       22.8210    2.7830   53.5420 N.ar  229  HIS229     -0.2268
     91  CD2       23.0830    2.8820   51.3720 C.ar  229  HIS229      0.1154
     92  CE1       23.3320    1.6290   53.1530 C.ar  229  HIS229      0.1986
     93  NE2       23.5010    1.6620   51.8410 N.ar  229  HIS229     -0.2212
     94  N         26.6420    8.4370   52.9270 N.3   231  HIS231     -0.1241
     95  CA        27.5540    9.2820   53.7050 C.3   231  HIS231      0.1621
     96  C         28.3760   10.2300   52.8070 C.2   231  HIS231      0.2264
     97  O         29.5470   10.4930   53.0700 O.2   231  HIS231     -0.2867
     98  CB        28.4910    8.4260   54.5670 C.3   231  HIS231      0.0745
     99  CG        27.7910    7.6470   55.6360 C.ar  231  HIS231      0.0817
    100  ND1       28.4720    6.9750   56.6300 N.ar  231  HIS231     -0.2268
    101  CD2       26.4740    7.4420   55.8780 C.ar  231  HIS231      0.1154
    102  CE1       27.6040    6.3730   57.4230 C.ar  231  HIS231      0.1986
    103  NE2       26.3860    6.6520   56.9970 N.ar  231  HIS231     -0.2212
@<TRIPOS>BOND
     1    75    76    1
     2    77    76    1
     3    77    78    2
     4    76    79    1
     5    79    80    1
     6    82    81   ar
     7    80    81    1
     8    81    83   ar
     9    91    93   ar
    10    91    89   ar
    11    93    92   ar
    12    89    88    1
    13    89    90   ar
    14    64    66   ar
    15    64    62   ar
    16    88    85    1
    17    66    65   ar
    18    86    87    2
    19    86    85    1
    20    96    97    2
    21    96    95    1
    22    94    95    1
    23    92    90   ar
    24    85    84    1
    25    62    61   ar
    26    62    60   ar
    27    61    59   ar
    28    95    98    1
    29    65    63   ar
    30    45    46    1
    31    59    58   ar
    32    60    63   ar
    33    60    58   ar
    34    98    99    1
    35    58    57    1
    36    46    47    1
    37    46    49    1
    38    47    48    2
    39    50    49    1
    40    50    52    1
    41    53    54    1
    42    99   101   ar
    43    99   100   ar
    44    25    24    2
    45   101   103   ar
    46    51    49    1
    47    24    23    1
    48    24    26   am
    49    57    54    1
    50    23    20    1
    51   100   102   ar
    52    54    55    1
    53   103   102   ar
    54    19    20    1
    55    20    21    1
    56    55    67   am
    57    55    56    2
    58    67    68    1
    59    18    16   ar
    60    16    17   ar
    61    16    15    1
    62    21    22    2
    63    21    27   am
    64    36    34   ar
    65    36    35   ar
    66    69    68    1
    67    69    70    2
    68    68    71    1
    69    34    32   ar
    70    15    12    1
    71    27    28    1
    72    10     9   ar
    73    10     8   ar
    74    71    72    1
    75    35    33   ar
    76    11    12    1
    77    32    33   ar
    78    32    31    1
    79    12    13    1
    80     9     7   ar
    81     8     6   ar
    82    74    72   ar
    83    28    31    1
    84    28    29    1
    85    72    73   ar
    86    14    13    2
    87    44    42   am
    88     7     6   ar
    89     6     5    1
    90    29    30    2
    91    43    42    2
    92    42    41    1
    93     5     2    1
    94     1     2    1
    95    37    38    1
    96     2     3    1
    97    38    41    1
    98    38    39    1
    99     3     4    2
   100    39    40    2
