@<TRIPOS>MOLECULE
tmp/3jyjB00.pdb
 145 136 0 0 0
SMALL
GASTEIGER

@<TRIPOS>ATOM
      1  N          6.4850   30.6770   18.1060 N.3     9  HIS9       -0.1241
      2  CA         7.0660   30.9070   19.4300 C.3     9  HIS9        0.1621
      3  C          7.4560   29.5810   20.0840 C.2     9  HIS9        0.2264
      4  O          7.1020   28.4840   19.6560 O.2     9  HIS9       -0.2867
      5  CB         6.1260   31.7210   20.3120 C.3     9  HIS9        0.0745
      6  CG         5.0110   30.9560   20.9530 C.ar    9  HIS9        0.0817
      7  ND1        4.5930   31.2030   22.2420 N.ar    9  HIS9       -0.2268
      8  CD2        4.2070   29.9670   20.4970 C.ar    9  HIS9        0.1154
      9  CE1        3.5880   30.4000   22.5580 C.ar    9  HIS9        0.1986
     10  NE2        3.3380   29.6310   21.5110 N.ar    9  HIS9       -0.2212
     11  N          7.3020   28.3460   24.0300 N.3    11  LEU11      -0.1245
     12  CA         6.8130   28.6530   25.3630 C.3    11  LEU11       0.1561
     13  C          7.3810   27.6910   26.3930 C.2    11  LEU11       0.2260
     14  O          7.3990   26.4650   26.2210 O.2    11  LEU11      -0.2867
     15  CB         5.2900   28.5720   25.3370 C.3    11  LEU11       0.0270
     16  CG         4.5780   28.6880   26.6840 C.3    11  LEU11       0.0019
     17  CD1        4.7660   30.0800   27.2770 C.3    11  LEU11       0.0001
     18  CD2        3.1070   28.3610   26.4870 C.3    11  LEU11       0.0001
     19  N          6.4720   26.9730   30.2360 N.3    13  LYS13      -0.1245
     20  CA         5.5290   27.3220   31.2970 C.3    13  LYS13       0.1561
     21  C          6.1840   27.1450   32.6560 C.2    13  LYS13       0.2260
     22  O          7.2380   26.5120   32.7690 O.2    13  LYS13      -0.2867
     23  CB         4.2660   26.4590   31.1840 C.3    13  LYS13       0.0271
     24  CG         3.4370   26.7060   29.9270 C.3    13  LYS13       0.0035
     25  CD         2.2700   25.7260   29.8560 C.3    13  LYS13       0.0206
     26  CE         1.1710   26.2390   28.9380 C.3    13  LYS13       0.1093
     27  NZ        -0.1070   25.4890   29.1350 N.3    13  LYS13      -0.1314
     28  N         -2.3090   27.9350   32.9490 N.3    19  ARG19      -0.1245
     29  CA        -2.5880   26.5150   32.7840 C.3    19  ARG19       0.1563
     30  C         -1.2790   25.7270   32.8050 C.2    19  ARG19       0.2260
     31  O         -0.6940   25.5100   31.7400 O.2    19  ARG19      -0.2867
     32  CB        -3.3370   26.2760   31.4770 C.3    19  ARG19       0.0307
     33  CG        -4.0260   24.9140   31.4320 C.3    19  ARG19       0.0489
     34  CD        -4.7690   24.7490   30.1160 C.3    19  ARG19       0.2205
     35  NE        -3.8620   24.4580   29.0070 N.pl3  19  ARG19      -0.0865
     36  CZ        -3.4710   23.2160   28.7210 C.cat  19  ARG19       0.5346
     37  NH1       -2.6490   22.9610   27.7090 N.pl3  19  ARG19       0.1354
     38  NH2       -3.9190   22.2160   29.4710 N.pl3  19  ARG19       0.1354
     39  N          6.0470   24.2390   25.4810 N.3    62  ASP62      -0.1225
     40  CA         4.9280   23.8030   26.3080 C.3    62  ASP62       0.1805
     41  C          3.5890   24.2640   25.7380 C.2    62  ASP62       0.2598
     42  O          2.5490   24.0020   26.3420 O.2    62  ASP62      -0.2718
     43  CB         5.0840   24.3310   27.7330 C.3    62  ASP62       0.1424
     44  CG         6.0150   23.4950   28.5870 C.2    62  ASP62       0.3668
     45  OD1        5.9520   22.2470   28.5320 O.co2  62  ASP62      -0.2456
     46  OD2        6.8140   24.0910   29.3320 O.co2  62  ASP62      -0.2456
     47  N          3.5980   24.9390   24.5910 N.am   63  CYS63      -0.1956
     48  CA         2.3710   25.3180   23.8860 C.3    63  CYS63       0.1843
     49  C          1.9770   24.2330   22.8940 C.2    63  CYS63       0.2626
     50  O          2.8530   23.6110   22.2780 O.2    63  CYS63      -0.2714
     51  CB         2.5660   26.6520   23.1650 C.3    63  CYS63       0.0997
     52  SG         1.2410   27.2270   22.0790 S.3    63  CYS63      -0.0797
     53  N          0.6830   23.9930   22.6850 N.am   64  SER64      -0.1936
     54  CA         0.3150   22.9650   21.7100 C.3    64  SER64       0.2055
     55  C          0.7630   23.3400   20.3110 C.2    64  SER64       0.2643
     56  O          0.7970   22.4780   19.4340 O.2    64  SER64      -0.2714
     57  CB        -1.1940   22.7000   21.7160 C.3    64  SER64       0.2130
     58  OG        -1.9040   23.9160   21.5760 O.3    64  SER64      -0.2179
     59  N          1.1660   24.5830   20.0280 N.am   65  SER65      -0.1949
     60  CA         1.6620   24.9070   18.6890 C.3    65  SER65       0.1924
     61  C          3.0000   24.2270   18.4110 C.2    65  SER65       0.2314
     62  O          3.4900   24.2950   17.2780 O.2    65  SER65      -0.2863
     63  CB         1.7970   26.4190   18.4680 C.3    65  SER65       0.2116
     64  OG         2.6780   26.9640   19.4510 O.3    65  SER65      -0.2180
     65  N          3.3130   21.3020   17.8370 N.3    67  LYS67      -0.1231
     66  CA         2.9500   20.3460   16.7960 C.3    67  LYS67       0.1693
     67  C          3.0290   20.9930   15.4130 C.2    67  LYS67       0.2591
     68  O          3.1630   20.3330   14.3830 O.2    67  LYS67      -0.2718
     69  CB         1.5500   19.7900   17.0660 C.3    67  LYS67       0.0285
     70  CG         0.4830   20.8710   17.1680 C.3    67  LYS67       0.0035
     71  CD        -0.8730   20.3140   17.5480 C.3    67  LYS67       0.0206
     72  CE        -1.4490   20.9340   18.8020 C.3    67  LYS67       0.1093
     73  NZ        -2.3470   22.0960   18.5430 N.3    67  LYS67      -0.1314
     74  N          2.9530   22.3160   15.4190 N.am   68  ALA68      -0.1980
     75  CA         3.0790   23.1610   14.2460 C.3    68  ALA68       0.1597
     76  C          4.4380   23.8530   14.2420 C.2    68  ALA68       0.2287
     77  O          4.5910   24.9390   13.6910 O.2    68  ALA68      -0.2864
     78  CB         1.9550   24.1870   14.2040 C.3    68  ALA68       0.0319
     79  N          4.4790   27.5310   15.0200 N.3    71  ASP71      -0.1225
     80  CA         3.7270   28.5310   14.2590 C.3    71  ASP71       0.1805
     81  C          2.3540   28.7720   14.8630 C.2    71  ASP71       0.2597
     82  O          1.5660   27.8670   15.1030 O.2    71  ASP71      -0.2718
     83  CB         3.6390   28.0850   12.7990 C.3    71  ASP71       0.1424
     84  CG         2.7680   28.9870   11.9490 C.2    71  ASP71       0.3668
     85  OD1        2.8410   30.2330   12.0500 O.co2  71  ASP71      -0.2456
     86  OD2        1.9970   28.3830   11.1670 O.co2  71  ASP71      -0.2456
     87  N          2.0470   30.0310   15.1490 N.am   72  LEU72      -0.1979
     88  CA         0.7720   30.4430   15.7010 C.3    72  LEU72       0.1596
     89  C         -0.1800   30.9060   14.5960 C.2    72  LEU72       0.2287
     90  O         -1.3810   31.1040   14.8200 O.2    72  LEU72      -0.2864
     91  CB         0.9700   31.5920   16.6990 C.3    72  LEU72       0.0297
     92  CG         1.7460   31.3140   17.9870 C.3    72  LEU72       0.0022
     93  CD1        1.9940   32.6140   18.7350 C.3    72  LEU72       0.0001
     94  CD2        1.0290   30.3370   18.9100 C.3    72  LEU72       0.0001
     95  N         -4.2360   38.3250   20.8250 N.3    80  MET80      -0.1230
     96  CA        -3.2780   37.6770   21.7130 C.3    80  MET80       0.1702
     97  C         -3.0540   38.5340   22.9510 C.2    80  MET80       0.2592
     98  O         -3.3130   39.7340   22.9080 O.2    80  MET80      -0.2718
     99  CB        -1.9540   37.4250   20.9930 C.3    80  MET80       0.0401
    100  CG        -2.1240   36.6480   19.6950 C.3    80  MET80       0.0596
    101  SD        -2.1440   34.8610   19.9570 S.3    80  MET80      -0.1393
    102  CE        -2.4880   34.2730   18.2970 C.3    80  MET80       0.0692
    103  N         -2.5850   37.8910   24.0080 N.am   81  GLN81      -0.1979
    104  CA        -2.2870   38.5490   25.2680 C.3    81  GLN81       0.1601
    105  C         -1.4560   39.8050   25.0120 C.2    81  GLN81       0.2287
    106  O         -0.4870   39.7330   24.2550 O.2    81  GLN81      -0.2864
    107  CB        -1.5240   37.6250   26.2140 C.3    81  GLN81       0.0394
    108  CG        -2.3130   36.4740   26.8140 C.3    81  GLN81       0.0908
    109  CD        -1.5610   35.7630   27.9270 C.2    81  GLN81       0.2608
    110  OE1       -0.8670   36.3660   28.7520 O.2    81  GLN81      -0.2717
    111  NE2       -1.7010   34.4450   27.9580 N.am   81  GLN81      -0.0878
    112  N          2.2960   39.6530   24.7660 N.3    84  PHE84      -0.1241
    113  CA         2.7550   38.9380   23.5740 C.3    84  PHE84       0.1605
    114  C          2.5450   39.7720   22.3100 C.2    84  PHE84       0.2264
    115  O          3.4460   39.9090   21.4840 O.2    84  PHE84      -0.2867
    116  CB         2.0450   37.5900   23.4400 C.3    84  PHE84       0.0534
    117  CG         2.5730   36.6820   22.3390 C.ar   84  PHE84      -0.0203
    118  CD1        3.5350   35.7260   22.6450 C.ar   84  PHE84      -0.0042
    119  CD2        2.1210   36.7730   21.0310 C.ar   84  PHE84      -0.0042
    120  CE1        4.0240   34.8950   21.6560 C.ar   84  PHE84      -0.0003
    121  CE2        2.6150   35.9560   20.0360 C.ar   84  PHE84      -0.0003
    122  CZ         3.5740   35.0130   20.3480 C.ar   84  PHE84      -0.0000
    123  N          4.5710   36.4390   29.9730 N.3   102  THR102     -0.1218
    124  CA         3.1190   36.5240   29.9180 C.3   102  THR102      0.1862
    125  C          2.5110   35.7110   31.0590 C.2   102  THR102      0.2287
    126  O          3.2330   35.0160   31.7770 O.2   102  THR102     -0.2866
    127  CB         2.5160   35.9880   28.6090 C.3   102  THR102      0.1770
    128  OG1        2.6320   34.5550   28.6330 O.3   102  THR102     -0.2211
    129  CG2        3.2750   36.4830   27.3910 C.3   102  THR102      0.0375
    130  N          0.9050   33.1620   30.4150 N.3   104  SER104     -0.1217
    131  CA         1.0040   31.7660   29.9900 C.3   104  SER104      0.1889
    132  C          2.3630   31.1570   30.2950 C.2   104  SER104      0.2288
    133  O          2.4990   29.9240   30.3780 O.2   104  SER104     -0.2866
    134  CB         0.7320   31.6220   28.4900 C.3   104  SER104      0.2089
    135  OG        -0.6150   31.9450   28.1830 O.3   104  SER104     -0.2183
    136  N          8.2030   33.1990   26.9250 N.3   107  HIS107     -0.1241
    137  CA         8.2780   32.8510   25.5210 C.3   107  HIS107      0.1621
    138  C          9.5110   33.4650   24.8660 C.2   107  HIS107      0.2264
    139  O         10.0110   34.4750   25.3320 O.2   107  HIS107     -0.2867
    140  CB         7.1050   33.3720   24.7070 C.3   107  HIS107      0.0745
    141  CG         5.7640   33.3870   25.3390 C.ar  107  HIS107      0.0817
    142  ND1        4.6650   32.7980   24.7430 N.ar  107  HIS107     -0.2268
    143  CD2        5.3220   33.9200   26.4970 C.ar  107  HIS107      0.1154
    144  CE1        3.6000   32.9570   25.5070 C.ar  107  HIS107      0.1986
    145  NE2        3.9800   33.6350   26.5790 N.ar  107  HIS107     -0.2212
@<TRIPOS>BOND
     1    86    84   ar
     2    84    85   ar
     3    84    83    1
     4    83    80    1
     5    77    76    2
     6    78    75    1
     7    76    75    1
     8    75    74    1
     9    80    81    1
    10    80    79    1
    11    68    67    2
    12    89    90    2
    13    89    88    1
    14    81    82    2
    15    81    87   am
    16    87    88    1
    17    67    74   am
    18    67    66    1
    19    88    91    1
    20    91    92    1
    21    66    69    1
    22    66    65    1
    23    69    70    1
    24    70    71    1
    25    62    61    2
    26    71    72    1
    27    92    93    1
    28    92    94    1
    29     1     2    1
    30   102   101    1
    31    61    60    1
    32    63    60    1
    33    63    64    1
    34    73    72    1
    35    60    59    1
    36     2     3    1
    37     2     5    1
    38    56    55    2
    39     4     3    2
    40   100   101    1
    41   100    99    1
    42    59    55   am
    43   121   122   ar
    44   121   119   ar
    45    55    54    1
    46     5     6    1
    47   122   120   ar
    48     8     6   ar
    49     8    10   ar
    50    95    96    1
    51     6     7   ar
    52    99    96    1
    53   119   117   ar
    54   115   114    2
    55    10     9   ar
    56    58    57    1
    57   120   118   ar
    58    54    57    1
    59    54    53    1
    60    96    97    1
    61    52    51    1
    62     7     9   ar
    63    50    49    2
    64   114   113    1
    65   117   118   ar
    66   117   116    1
    67    53    49   am
    68    49    48    1
    69    98    97    2
    70    97   103   am
    71    51    48    1
    72   116   113    1
    73   113   112    1
    74    48    47    1
    75   103   104    1
    76    11    12    1
    77   106   105    2
    78    47    41   am
    79   140   141    1
    80   140   137    1
    81   142   141   ar
    82   142   144   ar
    83   138   139    2
    84   138   137    1
    85   105   104    1
    86   104   107    1
    87    15    12    1
    88    15    16    1
    89   141   143   ar
    90    12    13    1
    91    39    40    1
    92   144   145   ar
    93   137   136    1
    94    41    40    1
    95    41    42    2
    96   107   108    1
    97    14    13    2
    98    40    43    1
    99    18    16    1
   100   143   145   ar
   101    16    17    1
   102   108   109    1
   103   129   127    1
   104    37    36    1
   105    43    44    1
   106   109   111   am
   107   109   110    2
   108   135   134    1
   109   134   131    1
   110    45    44   ar
   111    44    46   ar
   112   127   128    1
   113   127   124    1
   114    36    35    2
   115    36    38    1
   116    26    27    1
   117    26    25    1
   118    35    34    1
   119    25    24    1
   120   124   123    1
   121   124   125    1
   122    24    23    1
   123   131   132    1
   124   131   130    1
   125    34    33    1
   126    19    20    1
   127   132   133    2
   128   125   126    2
   129    23    20    1
   130    20    21    1
   131    33    32    1
   132    32    29    1
   133    31    30    2
   134    21    22    2
   135    29    30    1
   136    29    28    1
