@<TRIPOS>MOLECULE
tmp/3jyqA01.pdb
 109 101 0 0 0
SMALL
GASTEIGER

@<TRIPOS>ATOM
      1  N          9.6710   56.0070    1.1110 N.3     8  LEU8       -0.1245
      2  CA        11.0050   56.5450    1.2840 C.3     8  LEU8        0.1561
      3  C         11.0490   57.8870    0.5820 C.2     8  LEU8        0.2260
      4  O         10.9180   57.9320   -0.6250 O.2     8  LEU8       -0.2867
      5  CB        12.0220   55.5830    0.6570 C.3     8  LEU8        0.0270
      6  CG        13.4750   56.0440    0.5670 C.3     8  LEU8        0.0019
      7  CD1       14.1080   56.3080    1.9100 C.3     8  LEU8        0.0001
      8  CD2       14.2390   54.9870   -0.2030 C.3     8  LEU8        0.0001
      9  N         16.1260   57.1830   -6.1650 N.3    13  LEU13      -0.1245
     10  CA        15.7580   56.0270   -5.3660 C.3    13  LEU13       0.1561
     11  C         15.5450   54.7420   -6.1480 C.2    13  LEU13       0.2260
     12  O         15.1980   53.7430   -5.5120 O.2    13  LEU13      -0.2867
     13  CB        14.4950   56.3460   -4.5840 C.3    13  LEU13       0.0270
     14  CG        14.5320   57.6140   -3.7150 C.3    13  LEU13       0.0019
     15  CD1       13.2110   57.7920   -2.9800 C.3    13  LEU13       0.0001
     16  CD2       15.7040   57.6180   -2.7360 C.3    13  LEU13       0.0001
     17  N         17.1230   51.4330   -4.7170 N.3    16  SER16      -0.1202
     18  CA        16.9900   51.0920   -3.3510 C.3    16  SER16       0.2020
     19  C         16.4360   49.6930   -3.1930 C.2    16  SER16       0.2619
     20  O         15.4700   49.3370   -3.8310 O.2    16  SER16      -0.2717
     21  CB        16.0810   52.0660   -2.5920 C.3    16  SER16       0.2103
     22  OG        15.9960   51.7390   -1.2480 O.3    16  SER16      -0.2182
     23  N         17.0360   48.9380   -2.2730 N.am   17  ARG17      -0.1965
     24  CA        16.5400   47.6110   -1.9020 C.3    17  ARG17       0.1729
     25  C         15.6040   47.6510   -0.7120 C.2    17  ARG17       0.2616
     26  O         15.0060   46.6350   -0.3360 O.2    17  ARG17      -0.2715
     27  CB        17.7200   46.6950   -1.6060 C.3    17  ARG17       0.0348
     28  CG        18.6150   46.5500   -2.7990 C.3    17  ARG17       0.0492
     29  CD        19.7130   45.6100   -2.5570 C.3    17  ARG17       0.2205
     30  NE        20.6530   45.7050   -3.6550 N.pl3  17  ARG17      -0.0865
     31  CZ        21.7080   44.9330   -3.7980 C.cat  17  ARG17       0.5346
     32  NH1       21.9030   43.9480   -2.9400 N.pl3  17  ARG17       0.1354
     33  NH2       22.5210   45.1110   -4.8520 N.pl3  17  ARG17       0.1354
     34  N         15.4010   48.8340   -0.1440 N.am   18  THR18      -0.1951
     35  CA        14.6020   48.9710    1.0620 C.3    18  THR18       0.1897
     36  C         13.1100   48.6800    0.7710 C.2    18  THR18       0.2313
     37  O         12.5020   47.9440    1.5500 O.2    18  THR18      -0.2863
     38  CB        14.8350   50.3420    1.6730 C.3    18  THR18       0.1794
     39  OG1       16.1990   50.3900    2.0690 O.3    18  THR18      -0.2208
     40  CG2       13.9560   50.6060    2.8820 C.3    18  THR18       0.0378
     41  N         10.7570   56.0800    5.5220 N.3    66  ASN66      -0.1225
     42  CA        12.1840   56.3340    5.6560 C.3    66  ASN66       0.1785
     43  C         12.5160   57.6290    4.9390 C.2    66  ASN66       0.2597
     44  O         11.7560   58.1000    4.1040 O.2    66  ASN66      -0.2718
     45  CB        13.0240   55.1710    5.1330 C.3    66  ASN66       0.1169
     46  CG        12.9720   53.9690    6.0650 C.2    66  ASN66       0.2627
     47  OD1       13.3970   54.0380    7.2580 O.2    66  ASN66      -0.2716
     48  ND2       12.4780   52.8880    5.5780 N.am   66  ASN66      -0.0877
     49  N         13.6150   58.2280    5.3560 N.am   67  ILE67      -0.1966
     50  CA        14.0950   59.5060    4.8420 C.3    67  ILE67       0.1727
     51  C         15.5420   59.3110    4.4910 C.2    67  ILE67       0.2616
     52  O         16.3240   58.7620    5.2530 O.2    67  ILE67      -0.2715
     53  CB        14.0130   60.6090    5.9340 C.3    67  ILE67       0.0290
     54  CG1       12.6220   60.7000    6.5750 C.3    67  ILE67       0.0022
     55  CG2       14.4360   61.9530    5.3310 C.3    67  ILE67       0.0023
     56  CD1       11.4900   61.1610    5.6520 C.3    67  ILE67       0.0001
     57  N         15.9120   59.7230    3.2910 N.am   68  THR68      -0.1951
     58  CA        17.2910   59.6420    2.8680 C.3    68  THR68       0.1897
     59  C         17.7490   60.9810    2.3320 C.2    68  THR68       0.2313
     60  O         17.0520   61.9730    2.4260 O.2    68  THR68      -0.2863
     61  CB        17.5350   58.4260    1.9560 C.3    68  THR68       0.1794
     62  OG1       18.9420   58.2130    1.8370 O.3    68  THR68      -0.2208
     63  CG2       16.8820   58.5290    0.6030 C.3    68  THR68       0.0378
     64  N         17.7060   64.0790    5.5960 N.3    72  LYS72      -0.1245
     65  CA        17.7570   63.4890    6.9280 C.3    72  LYS72       0.1561
     66  C         18.0070   64.4810    8.0520 C.2    72  LYS72       0.2260
     67  O         17.7080   64.1790    9.2020 O.2    72  LYS72      -0.2867
     68  CB        18.7880   62.3620    7.0050 C.3    72  LYS72       0.0271
     69  CG        18.4070   61.1430    6.1810 C.3    72  LYS72       0.0035
     70  CD        19.4740   60.0750    6.2480 C.3    72  LYS72       0.0206
     71  CE        20.6210   60.4180    5.3210 C.3    72  LYS72       0.1093
     72  NZ        21.6640   59.3440    5.3000 N.3    72  LYS72      -0.1314
     73  N         16.3420   58.9470    9.8080 N.3    93  ASN93      -0.1240
     74  CA        16.1140   58.1660    8.6210 C.3    93  ASN93       0.1653
     75  C         14.7880   57.3930    8.6570 C.2    93  ASN93       0.2266
     76  O         14.4860   56.7180    7.6830 O.2    93  ASN93      -0.2867
     77  CB        17.2600   57.1740    8.3270 C.3    93  ASN93       0.1155
     78  CG        17.1530   55.9380    9.1590 C.2    93  ASN93       0.2627
     79  OD1       16.7390   56.0270   10.2940 O.2    93  ASN93      -0.2716
     80  ND2       17.4970   54.7950    8.6460 N.am   93  ASN93      -0.0877
     81  N         19.9790   53.9160   10.8470 N.3   109  ASP109     -0.1239
     82  CA        21.3530   53.8040   10.3640 C.3   109  ASP109      0.1674
     83  C         22.3170   53.5580   11.5370 C.2   109  ASP109      0.2266
     84  O         23.1820   52.7020   11.4850 O.2   109  ASP109     -0.2867
     85  CB        21.7690   55.0610    9.6100 C.3   109  ASP109      0.1410
     86  CG        21.0210   55.2610    8.3170 C.2   109  ASP109      0.3668
     87  OD1       20.8130   54.2720    7.5940 O.co2 109  ASP109     -0.2456
     88  OD2       20.6960   56.4440    8.0370 O.co2 109  ASP109     -0.2456
     89  N         27.9870   48.5770   -0.2310 N.3   229  TYR229     -0.1241
     90  CA        27.3530   47.2640   -0.2300 C.3   229  TYR229      0.1605
     91  C         27.1960   46.6540   -1.5970 C.2   229  TYR229      0.2264
     92  O         26.7200   45.5310   -1.7130 O.2   229  TYR229     -0.2867
     93  CB        26.0170   47.2760    0.5040 C.3   229  TYR229      0.0534
     94  CG        24.9230   48.0810   -0.1160 C.ar  229  TYR229     -0.0201
     95  CD1       24.2340   47.6130   -1.2470 C.ar  229  TYR229     -0.0009
     96  CD2       24.5590   49.3020    0.4200 C.ar  229  TYR229     -0.0009
     97  CE1       23.2110   48.3330   -1.7980 C.ar  229  TYR229      0.0417
     98  CE2       23.5310   50.0430   -0.1450 C.ar  229  TYR229      0.0417
     99  CZ        22.8700   49.5490   -1.2550 C.ar  229  TYR229      0.1957
    100  OH        21.8410   50.2630   -1.8320 O.3   229  TYR229     -0.2866
    101  N         19.3080   48.3940    9.1020 N.3   257  GLN257     -0.1245
    102  CA        18.5410   49.6170    9.1810 C.3   257  GLN257      0.1566
    103  C         17.0670   49.3270    8.8640 C.2   257  GLN257      0.2260
    104  O         16.1920   49.9510    9.4520 O.2   257  GLN257     -0.2867
    105  CB        19.1170   50.7290    8.3070 C.3   257  GLN257      0.0367
    106  CG        19.1490   50.5130    6.8170 C.3   257  GLN257      0.0905
    107  CD        17.8260   50.7440    6.1040 C.2   257  GLN257      0.2608
    108  OE1       16.9860   51.5140    6.5190 O.2   257  GLN257     -0.2717
    109  NE2       17.6880   50.1100    4.9610 N.am  257  GLN257     -0.0878
@<TRIPOS>BOND
     1     9    10    1
     2    11    12    2
     3    11    10    1
     4    10    13    1
     5    33    31    1
     6    17    18    1
     7    13    14    1
     8    20    19    2
     9    31    30    2
    10    31    32    1
    11    14    15    1
    12    14    16    1
    13    30    29    1
    14    18    19    1
    15    18    21    1
    16    19    23   am
    17    28    29    1
    18    28    27    1
    19    21    22    1
    20    23    24    1
    21    24    27    1
    22    24    25    1
    23   100    99    1
    24    97    99   ar
    25    97    95   ar
    26    92    91    2
    27    91    90    1
    28    99    98   ar
    29    95    94   ar
    30    25    26    2
    31    25    34   am
    32     4     3    2
    33    89    90    1
    34    90    93    1
    35     8     6    1
    36    98    96   ar
    37    34    35    1
    38    94    96   ar
    39    94    93    1
    40     6     5    1
    41     6     7    1
    42     3     2    1
    43    63    61    1
    44     5     2    1
    45    36    35    1
    46    36    37    2
    47    35    38    1
    48     1     2    1
    49    38    39    1
    50    38    40    1
    51    62    61    1
    52    61    58    1
    53    59    60    2
    54    59    58    1
    55    58    57    1
    56    57    51   am
    57    44    43    2
    58    51    50    1
    59    51    52    2
    60    50    49    1
    61    50    53    1
    62    43    49   am
    63    43    42    1
    64   109   107   am
    65    45    42    1
    66    45    46    1
    67    72    71    1
    68    71    70    1
    69    55    53    1
    70    41    42    1
    71    48    46   am
    72    64    65    1
    73    56    54    1
    74    53    54    1
    75    46    47    2
    76   107   108    2
    77   107   106    1
    78    69    70    1
    79    69    68    1
    80   106   105    1
    81    65    68    1
    82    65    66    1
    83    87    86   ar
    84    76    75    2
    85    88    86   ar
    86    66    67    2
    87   105   102    1
    88    86    85    1
    89    77    74    1
    90    77    78    1
    91    74    75    1
    92    74    73    1
    93    80    78   am
    94   103   102    1
    95   103   104    2
    96   101   102    1
    97    78    79    2
    98    85    82    1
    99    82    81    1
   100    82    83    1
   101    84    83    2
