@<TRIPOS>MOLECULE
tmp/3jyrA00.pdb
 227 222 0 0 0
SMALL
GASTEIGER

@<TRIPOS>ATOM
      1  N         19.3480    4.0460   19.3510 N.3    12  ASN12      -0.1240
      2  CA        20.3990    3.4850   18.5120 C.3    12  ASN12       0.1653
      3  C         21.3070    4.5580   17.8960 C.2    12  ASN12       0.2266
      4  O         20.8550    5.6700   17.5480 O.2    12  ASN12      -0.2867
      5  CB        19.8210    2.5620   17.4240 C.3    12  ASN12       0.1155
      6  CG        20.8390    1.5380   16.9210 C.2    12  ASN12       0.2627
      7  OD1       21.5160    0.8770   17.7160 O.2    12  ASN12      -0.2716
      8  ND2       20.9490    1.3960   15.5940 N.am   12  ASN12      -0.0877
      9  N         22.5370    4.9990   15.1090 N.3    14  ASP14      -0.1225
     10  CA        22.2630    5.4980   13.7440 C.3    14  ASP14       0.1805
     11  C         21.1230    6.5330   13.7240 C.2    14  ASP14       0.2597
     12  O         20.7970    7.0880   12.6740 O.2    14  ASP14      -0.2718
     13  CB        22.0000    4.3490   12.7610 C.3    14  ASP14       0.1424
     14  CG        20.7720    3.4900   13.1260 C.2    14  ASP14       0.3668
     15  OD1       20.0360    3.7950   14.1010 O.co2  14  ASP14      -0.2456
     16  OD2       20.5560    2.4850   12.4120 O.co2  14  ASP14      -0.2456
     17  N         20.5480    6.8200   14.8930 N.am   15  LYS15      -0.1979
     18  CA        19.4450    7.7840   15.0100 C.3    15  LYS15       0.1596
     19  C         19.9320    9.1580   15.4910 C.2    15  LYS15       0.2287
     20  O         21.1100    9.3190   15.8390 O.2    15  LYS15      -0.2864
     21  CB        18.3220    7.2390   15.9280 C.3    15  LYS15       0.0298
     22  CG        17.7490    5.8540   15.5130 C.3    15  LYS15       0.0038
     23  CD        17.3150    5.8710   14.0370 C.3    15  LYS15       0.0206
     24  CE        16.5300    4.6300   13.6150 C.3    15  LYS15       0.1093
     25  NZ        17.1530    3.3310   13.9650 N.3    15  LYS15      -0.1314
     26  N         24.8690   -2.4530   20.8870 N.3    42  LYS42      -0.1245
     27  CA        23.9620   -3.6110   21.1050 C.3    42  LYS42       0.1561
     28  C         22.9200   -3.3620   22.2110 C.2    42  LYS42       0.2260
     29  O         22.6050   -4.2560   23.0090 O.2    42  LYS42      -0.2867
     30  CB        24.7650   -4.8770   21.4280 C.3    42  LYS42       0.0271
     31  CG        25.8150   -5.2900   20.3660 C.3    42  LYS42       0.0035
     32  CD        26.6590   -6.4450   20.9250 C.3    42  LYS42       0.0206
     33  CE        27.8710   -6.7730   20.0340 C.3    42  LYS42       0.1093
     34  NZ        27.7500   -8.1120   19.4080 N.3    42  LYS42      -0.1314
     35  N         19.8020   -3.1700   22.2490 N.3    44  GLU44      -0.1231
     36  CA        18.6040   -3.9950   22.1690 C.3    44  GLU44       0.1699
     37  C         18.8420   -5.3990   22.7310 C.2    44  GLU44       0.2592
     38  O         17.8790   -6.0870   23.1020 O.2    44  GLU44      -0.2718
     39  CB        18.0790   -4.0530   20.7240 C.3    44  GLU44       0.0402
     40  CG        18.7820   -5.0810   19.8190 C.3    44  GLU44       0.1161
     41  CD        20.2230   -4.7240   19.4180 C.2    44  GLU44       0.3649
     42  OE1       20.7430   -3.6430   19.7820 O.co2  44  GLU44      -0.2457
     43  OE2       20.8400   -5.5440   18.6980 O.co2  44  GLU44      -0.2457
     44  N         20.1130   -5.8190   22.7850 N.am   45  GLU45      -0.1979
     45  CA        20.5020   -7.0740   23.4480 C.3    45  GLU45       0.1602
     46  C         20.7820   -6.8530   24.9360 C.2    45  GLU45       0.2287
     47  O         20.5440   -7.7370   25.7570 O.2    45  GLU45      -0.2864
     48  CB        21.7400   -7.7000   22.8030 C.3    45  GLU45       0.0415
     49  CG        21.4720   -8.2880   21.4040 C.3    45  GLU45       0.1163
     50  CD        22.6410   -9.0610   20.8310 C.2    45  GLU45       0.3649
     51  OE1       23.8040   -8.7470   21.1710 O.co2  45  GLU45      -0.2457
     52  OE2       22.3800  -10.0050   20.0280 O.co2  45  GLU45      -0.2457
     53  N         13.5350    1.6550   20.0810 N.3    62  TRP62      -0.1227
     54  CA        13.8760    0.6990   19.0240 C.3    62  TRP62       0.1737
     55  C         12.6760    0.6010   18.0790 C.2    62  TRP62       0.2595
     56  O         11.5830    1.1000   18.3950 O.2    62  TRP62      -0.2718
     57  CB        14.1570   -0.6900   19.6290 C.3    62  TRP62       0.0564
     58  CG        14.9680   -1.5990   18.7160 C.ar   62  TRP62       0.0003
     59  CD1       14.4980   -2.6500   17.9570 C.ar   62  TRP62       0.0946
     60  CD2       16.3710   -1.5170   18.4540 C.ar   62  TRP62       0.0152
     61  NE1       15.5340   -3.2420   17.2610 N.ar   62  TRP62      -0.2442
     62  CE2       16.6940   -2.5710   17.5510 C.ar   62  TRP62       0.0810
     63  CE3       17.4000   -0.6670   18.9090 C.ar   62  TRP62       0.0012
     64  CZ2       17.9950   -2.7880   17.0840 C.ar   62  TRP62       0.0191
     65  CZ3       18.6930   -0.8910   18.4480 C.ar   62  TRP62       0.0001
     66  CH2       18.9750   -1.9460   17.5400 C.ar   62  TRP62       0.0015
     67  N         12.8470   -0.0610   16.9350 N.am   63  ALA63      -0.1980
     68  CA        11.6710   -0.4340   16.1360 C.3    63  ALA63       0.1597
     69  C         10.7920   -1.3920   16.9440 C.2    63  ALA63       0.2287
     70  O         11.2950   -2.1450   17.7790 O.2    63  ALA63      -0.2864
     71  CB        12.0920   -1.0800   14.7740 C.3    63  ALA63       0.0319
     72  N          9.3840   -4.1690   16.5340 N.3    65  ASP65      -0.1225
     73  CA         9.5610   -5.6360   16.4740 C.3    65  ASP65       0.1805
     74  C         10.2200   -6.2320   17.7280 C.2    65  ASP65       0.2597
     75  O          9.9710   -7.3920   18.0600 O.2    65  ASP65      -0.2718
     76  CB        10.2990   -6.0870   15.1940 C.3    65  ASP65       0.1424
     77  CG        11.7520   -5.6300   15.1440 C.2    65  ASP65       0.3668
     78  OD1       11.9890   -4.4030   15.1640 O.co2  65  ASP65      -0.2456
     79  OD2       12.6640   -6.4910   15.0710 O.co2  65  ASP65      -0.2456
     80  N         11.0510   -5.4520   18.4160 N.am   66  ARG66      -0.1979
     81  CA        11.7030   -5.9500   19.6370 C.3    66  ARG66       0.1597
     82  C         10.7650   -5.9500   20.8360 C.2    66  ARG66       0.2287
     83  O         11.0070   -6.6450   21.8350 O.2    66  ARG66      -0.2864
     84  CB        12.9510   -5.1190   19.9810 C.3    66  ARG66       0.0334
     85  CG        14.2700   -5.6880   19.4660 C.3    66  ARG66       0.0492
     86  CD        14.6460   -6.9560   20.2450 C.3    66  ARG66       0.2205
     87  NE        15.9940   -7.4470   19.9330 N.pl3  66  ARG66      -0.0865
     88  CZ        16.6020   -8.3970   20.6400 C.cat  66  ARG66       0.5346
     89  NH1       15.9900   -8.9100   21.7000 N.pl3  66  ARG66       0.1354
     90  NH2       17.8180   -8.8150   20.3130 N.pl3  66  ARG66       0.1354
     91  N          9.3740    3.6260    9.4300 N.3   111  GLU111     -0.1245
     92  CA        10.6070    3.4360    8.6710 C.3   111  GLU111      0.1567
     93  C         10.4430    2.3630    7.6120 C.2   111  GLU111      0.2260
     94  O          9.9880    1.2550    7.8980 O.2   111  GLU111     -0.2867
     95  CB        11.7420    2.9650    9.5900 C.3   111  GLU111      0.0388
     96  CG        12.0830    3.9070   10.7530 C.3   111  GLU111      0.1160
     97  CD        13.1020    3.3100   11.7170 C.2   111  GLU111      0.3649
     98  OE1       13.4880    2.1270   11.5520 O.co2 111  GLU111     -0.2457
     99  OE2       13.5200    4.0240   12.6520 O.co2 111  GLU111     -0.2457
    100  N         24.3440   -2.9550    2.9090 N.3   150  ASN150     -0.1240
    101  CA        24.7380   -3.7950    4.0240 C.3   150  ASN150      0.1653
    102  C         24.2590   -5.2560    3.8540 C.2   150  ASN150      0.2266
    103  O         23.0640   -5.5250    3.9330 O.2   150  ASN150     -0.2867
    104  CB        24.1440   -3.1680    5.2920 C.3   150  ASN150      0.1155
    105  CG        24.5870   -3.8600    6.5600 C.2   150  ASN150      0.2627
    106  OD1       25.3960   -4.8010    6.5280 O.2   150  ASN150     -0.2716
    107  ND2       24.0640   -3.3860    7.7010 N.am  150  ASN150     -0.0877
    108  N         23.3600   -7.3940    7.8410 N.3   153  GLU153     -0.1231
    109  CA        22.0940   -7.3450    8.5840 C.3   153  GLU153      0.1684
    110  C         20.9340   -7.7750    7.6940 C.2   153  GLU153      0.2434
    111  O         20.7450   -7.1970    6.6050 O.2   153  GLU153     -0.2733
    112  CB        21.8430   -5.9460    9.1540 C.3   153  GLU153      0.0402
    113  CG        22.7170   -5.6050   10.3800 C.3   153  GLU153      0.1161
    114  CD        22.2110   -6.1900   11.6890 C.2   153  GLU153      0.3649
    115  OE1       21.0460   -6.6590   11.7820 O.co2 153  GLU153     -0.2457
    116  OE2       23.0060   -6.1660   12.6570 O.co2 153  GLU153     -0.2457
    117  N         20.1520   -8.7890    8.1360 N.am  154  PRO154     -0.2718
    118  CA        19.0880   -9.3490    7.2840 C.3   154  PRO154      0.1535
    119  C         17.9670   -8.3520    6.9370 C.2   154  PRO154      0.2599
    120  O         17.2620   -8.5380    5.9340 O.2   154  PRO154     -0.2715
    121  CB        18.5300  -10.5090    8.1240 C.3   154  PRO154      0.0310
    122  CG        18.9010  -10.1770    9.5540 C.3   154  PRO154      0.0237
    123  CD        20.2230   -9.4770    9.4480 C.3   154  PRO154      0.0939
    124  N         17.7970   -7.3210    7.7670 N.am  155  TYR155     -0.1960
    125  CA        16.8900   -6.2090    7.4570 C.3   155  TYR155      0.1771
    126  C         17.0510   -5.7330    6.0010 C.2   155  TYR155      0.2619
    127  O         16.0600   -5.4950    5.3040 O.2   155  TYR155     -0.2715
    128  CB        17.1780   -5.0450    8.3920 C.3   155  TYR155      0.0574
    129  CG        16.2360   -3.8460    8.2980 C.ar  155  TYR155     -0.0198
    130  CD1       14.9050   -3.9270    8.7370 C.ar  155  TYR155     -0.0009
    131  CD2       16.7150   -2.6170    7.8550 C.ar  155  TYR155     -0.0009
    132  CE1       14.0510   -2.7900    8.6750 C.ar  155  TYR155      0.0417
    133  CE2       15.8980   -1.5010    7.7970 C.ar  155  TYR155      0.0417
    134  CZ        14.5730   -1.5870    8.1800 C.ar  155  TYR155      0.1957
    135  OH        13.8210   -0.4390    8.1220 O.3   155  TYR155     -0.2866
    136  N         18.2980   -5.6070    5.5530 N.am  156  PHE156     -0.1974
    137  CA        18.5650   -5.0130    4.2180 C.3   156  PHE156      0.1639
    138  C         18.3480   -5.9430    3.0320 C.2   156  PHE156      0.2290
    139  O         18.1100   -5.4880    1.9140 O.2   156  PHE156     -0.2864
    140  CB        19.9770   -4.4270    4.1720 C.3   156  PHE156      0.0560
    141  CG        20.1800   -3.2840    5.1160 C.ar  156  PHE156     -0.0200
    142  CD1       20.4570   -3.5210    6.4630 C.ar  156  PHE156     -0.0042
    143  CD2       20.1160   -1.9600    4.6660 C.ar  156  PHE156     -0.0042
    144  CE1       20.6460   -2.4490    7.3490 C.ar  156  PHE156     -0.0003
    145  CE2       20.3050   -0.8850    5.5570 C.ar  156  PHE156     -0.0003
    146  CZ        20.5710   -1.1370    6.8920 C.ar  156  PHE156     -0.0000
    147  N         27.3840   -2.0010    6.7450 N.3   210  TYR210     -0.1241
    148  CA        26.7650   -0.6770    6.7260 C.3   210  TYR210      0.1605
    149  C         27.7900    0.4060    6.3700 C.2   210  TYR210      0.2264
    150  O         27.5430    1.2310    5.4870 O.2   210  TYR210     -0.2867
    151  CB        26.0860   -0.3660    8.0600 C.3   210  TYR210      0.0534
    152  CG        25.2130    0.8700    8.0000 C.ar  210  TYR210     -0.0201
    153  CD1       25.7630    2.1450    8.1360 C.ar  210  TYR210     -0.0009
    154  CD2       23.8400    0.7600    7.7910 C.ar  210  TYR210     -0.0009
    155  CE1       24.9510    3.2940    8.0640 C.ar  210  TYR210      0.0417
    156  CE2       23.0280    1.8840    7.7260 C.ar  210  TYR210      0.0417
    157  CZ        23.5820    3.1420    7.8600 C.ar  210  TYR210      0.1957
    158  OH        22.7600    4.2440    7.7860 O.3   210  TYR210     -0.2866
    159  N         17.2850    7.5760    8.1670 N.3   230  TRP230     -0.1241
    160  CA        18.3810    8.0050    9.0510 C.3   230  TRP230      0.1605
    161  C         19.6730    8.2460    8.2530 C.2   230  TRP230      0.2264
    162  O         20.5380    9.0250    8.6680 O.2   230  TRP230     -0.2867
    163  CB        18.6330    6.9630   10.1620 C.3   230  TRP230      0.0550
    164  CG        18.8710    5.6000    9.5700 C.ar  230  TRP230      0.0003
    165  CD1       20.0590    5.0830    9.1450 C.ar  230  TRP230      0.0946
    166  CD2       17.8710    4.6070    9.2960 C.ar  230  TRP230      0.0152
    167  NE1       19.8630    3.8030    8.6250 N.ar  230  TRP230     -0.2442
    168  CE2       18.5240    3.5020    8.6960 C.ar  230  TRP230      0.0810
    169  CE3       16.4880    4.5530    9.4870 C.ar  230  TRP230      0.0012
    170  CZ2       17.8370    2.3450    8.3010 C.ar  230  TRP230      0.0191
    171  CZ3       15.7920    3.3730    9.1030 C.ar  230  TRP230      0.0001
    172  CH2       16.4740    2.3000    8.5080 C.ar  230  TRP230      0.0015
    173  N          9.3380   -0.8260   10.0400 N.3   260  GLY260     -0.1225
    174  CA         9.5090   -0.6530   11.4860 C.3   260  GLY260      0.1811
    175  C          8.9140    0.6470   11.9790 C.2   260  GLY260      0.2280
    176  O          9.0350    1.6740   11.3330 O.2   260  GLY260     -0.2866
    177  N          6.2100   -5.0640   10.5460 N.3   330  MET330     -0.1245
    178  CA         6.7620   -6.2230   11.2590 C.3   330  MET330      0.1570
    179  C          5.7990   -6.6740   12.3510 C.2   330  MET330      0.2261
    180  O          5.1380   -5.8320   12.9710 O.2   330  MET330     -0.2867
    181  CB         8.1090   -5.8850   11.8810 C.3   330  MET330      0.0387
    182  CG         9.2390   -5.7380   10.8660 C.3   330  MET330      0.0595
    183  SD        10.8270   -5.5060   11.6570 S.3   330  MET330     -0.1393
    184  CE        10.7620   -3.8210   12.1110 C.3   330  MET330      0.0692
    185  N         12.7160  -12.4250   17.3970 N.3   337  SER337     -0.1217
    186  CA        14.1220  -12.7020   17.7120 C.3   337  SER337      0.1889
    187  C         14.6230  -13.9640   17.0090 C.2   337  SER337      0.2288
    188  O         15.6030  -13.8900   16.2520 O.2   337  SER337     -0.2866
    189  CB        14.3590  -12.7930   19.2400 C.3   337  SER337      0.2089
    190  OG        14.3540  -11.5080   19.8070 O.3   337  SER337     -0.2183
    191  N         14.8350  -13.2770   13.1780 N.3   340  TRP340     -0.1227
    192  CA        15.9190  -12.4270   12.7030 C.3   340  TRP340      0.1737
    193  C         17.2840  -13.0760   12.8500 C.2   340  TRP340      0.2595
    194  O         18.1010  -12.9910   11.9350 O.2   340  TRP340     -0.2718
    195  CB        15.9250  -11.0820   13.4370 C.3   340  TRP340      0.0564
    196  CG        14.9460  -10.0320   12.9180 C.ar  340  TRP340      0.0003
    197  CD1       14.0520   -9.3010   13.6710 C.ar  340  TRP340      0.0946
    198  CD2       14.7940   -9.5670   11.5570 C.ar  340  TRP340      0.0152
    199  NE1       13.3710   -8.4090   12.8680 N.ar  340  TRP340     -0.2442
    200  CE2       13.7950   -8.5590   11.5700 C.ar  340  TRP340      0.0810
    201  CE3       15.3970   -9.9120   10.3340 C.ar  340  TRP340      0.0012
    202  CZ2       13.3950   -7.8880   10.4090 C.ar  340  TRP340      0.0191
    203  CZ3       14.9910   -9.2460    9.1670 C.ar  340  TRP340      0.0001
    204  CH2       13.9930   -8.2480    9.2180 C.ar  340  TRP340      0.0015
    205  N         17.5550  -13.6960   14.0020 N.am  341  TYR341     -0.1976
    206  CA        18.8810  -14.2880   14.1980 C.3   341  TYR341      0.1639
    207  C         19.0950  -15.4380   13.2240 C.2   341  TYR341      0.2290
    208  O         20.2030  -15.6160   12.7180 O.2   341  TYR341     -0.2864
    209  CB        19.0660  -14.7890   15.6350 C.3   341  TYR341      0.0560
    210  CG        19.3420  -13.7030   16.6670 C.ar  341  TYR341     -0.0198
    211  CD1       20.6470  -13.4210   17.0910 C.ar  341  TYR341     -0.0009
    212  CD2       18.3000  -13.0070   17.2600 C.ar  341  TYR341     -0.0009
    213  CE1       20.9040  -12.4290   18.0820 C.ar  341  TYR341      0.0417
    214  CE2       18.5360  -12.0220   18.2280 C.ar  341  TYR341      0.0417
    215  CZ        19.8330  -11.7370   18.6360 C.ar  341  TYR341      0.1957
    216  OH        20.0240  -10.7600   19.6110 O.3   341  TYR341     -0.2866
    217  N         19.6160  -14.0190    9.7180 N.3   344  ARG344     -0.1245
    218  CA        20.9530  -13.4090    9.6680 C.3   344  ARG344      0.1563
    219  C         21.9930  -14.4610    9.3070 C.2   344  ARG344      0.2260
    220  O         22.7940  -14.2540    8.3860 O.2   344  ARG344     -0.2867
    221  CB        21.3240  -12.7630   11.0190 C.3   344  ARG344      0.0307
    222  CG        22.7830  -12.2910   11.0540 C.3   344  ARG344      0.0489
    223  CD        23.1700  -11.6660   12.3820 C.3   344  ARG344      0.2205
    224  NE        24.6230  -11.4130   12.3970 N.pl3 344  ARG344     -0.0865
    225  CZ        25.5450  -12.3560   12.6210 C.cat 344  ARG344      0.5346
    226  NH1       26.8310  -12.0370   12.6000 N.pl3 344  ARG344      0.1354
    227  NH2       25.1860  -13.6170   12.8720 N.pl3 344  ARG344      0.1354
@<TRIPOS>BOND
     1   139   138    2
     2   100   101    1
     3   138   137    1
     4   102   103    2
     5   102   101    1
     6   101   104    1
     7   140   137    1
     8   140   141    1
     9   137   136    1
    10   143   141   ar
    11   143   145   ar
    12   141   142   ar
    13   104   105    1
    14   127   126    2
    15   150   149    2
    16   136   126   am
    17   145   146   ar
    18   120   119    2
    19   126   125    1
    20   149   148    1
    21   142   144   ar
    22   106   105    2
    23   105   107   am
    24   111   110    2
    25   148   147    1
    26   148   151    1
    27   146   144   ar
    28   119   118    1
    29   119   124   am
    30   118   121    1
    31   118   117    1
    32   125   124    1
    33   125   128    1
    34    93    94    2
    35    93    92    1
    36   110   117   am
    37   110   109    1
    38   156   154   ar
    39   156   157   ar
    40   158   157    1
    41   154   152   ar
    42   133   131   ar
    43   133   134   ar
    44   108   109    1
    45   131   129   ar
    46   157   155   ar
    47   152   151    1
    48   152   153   ar
    49   155   153   ar
    50   135   134    1
    51   121   122    1
    52   117   123    1
    53   159   160    1
    54   134   132   ar
    55   161   162    2
    56   161   160    1
    57   129   128    1
    58   129   130   ar
    59   170   172   ar
    60   170   168   ar
    61   220   219    2
    62   172   171   ar
    63   109   112    1
    64   167   168   ar
    65   167   165   ar
    66    92    91    1
    67    92    95    1
    68   132   130   ar
    69   168   166   ar
    70   160   163    1
    71   171   169   ar
    72   165   164   ar
    73   112   113    1
    74   203   204   ar
    75   203   201   ar
    76   204   202   ar
    77   166   169   ar
    78   166   164   ar
    79   219   218    1
    80   123   122    1
    81   164   163    1
    82    95    96    1
    83   218   217    1
    84   218   221    1
    85   173   174    1
    86   201   198   ar
    87   113   114    1
    88   202   200   ar
    89   177   178    1
    90    96    97    1
    91   182   183    1
    92   182   181    1
    93   221   222    1
    94   222   223    1
    95   178   181    1
    96   178   179    1
    97   176   175    2
    98   174   175    1
    99    98    97   ar
   100   198   200   ar
   101   198   196   ar
   102   200   199   ar
   103   183   184    1
   104   114   115   ar
   105   114   116   ar
   106    97    99   ar
   107   194   193    2
   108   179   180    2
   109   223   224    1
   110   224   225    2
   111    16    14   ar
   112   226   225    1
   113   225   227    1
   114    12    11    2
   115   192   193    1
   116   192   191    1
   117   192   195    1
   118   208   207    2
   119    13    14    1
   120    13    10    1
   121   193   205   am
   122   199   197   ar
   123   196   195    1
   124   196   197   ar
   125    14    15   ar
   126   207   206    1
   127    24    25    1
   128    24    23    1
   129    11    10    1
   130    11    17   am
   131    10     9    1
   132   205   206    1
   133    23    22    1
   134   206   209    1
   135    71    68    1
   136    17    18    1
   137    18    19    1
   138    18    21    1
   139    79    77   ar
   140    77    78   ar
   141    77    76    1
   142    76    73    1
   143    19    20    2
   144    22    21    1
   145     8     6   am
   146   209   210    1
   147    68    67    1
   148    68    69    1
   149   188   187    2
   150    73    72    1
   151    73    74    1
   152   210   211   ar
   153   210   212   ar
   154     6     5    1
   155     6     7    2
   156    67    55   am
   157    69    70    2
   158   187   186    1
   159    64    66   ar
   160    64    62   ar
   161   211   213   ar
   162   212   214   ar
   163    61    62   ar
   164    61    59   ar
   165   185   186    1
   166     5     2    1
   167    66    65   ar
   168     4     3    2
   169    62    60   ar
   170   186   189    1
   171    74    75    2
   172    74    80   am
   173     3     2    1
   174    59    58   ar
   175    55    56    2
   176    55    54    1
   177   213   215   ar
   178   214   215   ar
   179    80    81    1
   180    65    63   ar
   181    60    58   ar
   182    60    63   ar
   183     2     1    1
   184   215   216    1
   185    43    41   ar
   186    58    57    1
   187    54    57    1
   188    54    53    1
   189   189   190    1
   190    34    33    1
   191    41    42   ar
   192    41    40    1
   193    85    84    1
   194    85    86    1
   195    81    84    1
   196    81    82    1
   197    40    39    1
   198    87    86    1
   199    87    88    2
   200    52    50   ar
   201    33    32    1
   202    90    88    1
   203    31    32    1
   204    31    30    1
   205    88    89    1
   206    39    36    1
   207    50    51   ar
   208    50    49    1
   209    82    83    2
   210    26    27    1
   211    27    30    1
   212    27    28    1
   213    49    48    1
   214    36    35    1
   215    36    37    1
   216    28    29    2
   217    37    44   am
   218    37    38    2
   219    44    45    1
   220    48    45    1
   221    45    46    1
   222    46    47    2
