@<TRIPOS>MOLECULE
tmp/3jytA01.pdb
 100 99 0 0 0
SMALL
GASTEIGER

@<TRIPOS>ATOM
      1  N         71.2910   65.2360  -67.0910 N.3    72  ARG72      -0.1245
      2  CA        70.2180   64.3530  -67.5120 C.3    72  ARG72       0.1563
      3  C         69.5110   65.1400  -68.5960 C.2    72  ARG72       0.2260
      4  O         69.2040   66.3020  -68.3810 O.2    72  ARG72      -0.2867
      5  CB        69.2550   64.0960  -66.3510 C.3    72  ARG72       0.0307
      6  CG        68.0090   63.2960  -66.7250 C.3    72  ARG72       0.0489
      7  CD        67.3440   62.6890  -65.4830 C.3    72  ARG72       0.2205
      8  NE        67.9450   61.4190  -65.1040 N.pl3  72  ARG72      -0.0865
      9  CZ        68.3390   61.1260  -63.8770 C.cat  72  ARG72       0.5346
     10  NH1       68.1950   62.0290  -62.9050 N.pl3  72  ARG72       0.1354
     11  NH2       68.8700   59.9330  -63.6370 N.pl3  72  ARG72       0.1354
     12  N         73.5320   49.3060  -60.8720 N.3   110  ASP110     -0.1239
     13  CA        72.7290   50.3460  -61.5030 C.3   110  ASP110      0.1674
     14  C         73.0120   50.4260  -62.9880 C.2   110  ASP110      0.2266
     15  O         74.0400   50.9680  -63.3990 O.2   110  ASP110     -0.2867
     16  CB        72.9710   51.7220  -60.8810 C.3   110  ASP110      0.1410
     17  CG        72.0210   52.7830  -61.4360 C.2   110  ASP110      0.3668
     18  OD1       71.9720   53.9030  -60.8760 O.co2 110  ASP110     -0.2456
     19  OD2       71.3210   52.4900  -62.4350 O.co2 110  ASP110     -0.2456
     20  N         67.2090   54.0570  -69.6990 N.3   115  TYR115     -0.1241
     21  CA        66.2220   54.2550  -70.7500 C.3   115  TYR115      0.1605
     22  C         66.8070   54.1810  -72.1490 C.2   115  TYR115      0.2264
     23  O         66.3270   53.4300  -73.0070 O.2   115  TYR115     -0.2867
     24  CB        65.5150   55.5970  -70.5770 C.3   115  TYR115      0.0534
     25  CG        64.3680   55.5830  -69.5920 C.ar  115  TYR115     -0.0201
     26  CD1       64.1940   54.5270  -68.6950 C.ar  115  TYR115     -0.0009
     27  CD2       63.5210   56.6790  -69.4870 C.ar  115  TYR115     -0.0009
     28  CE1       63.2220   54.5800  -67.7110 C.ar  115  TYR115      0.0417
     29  CE2       62.5510   56.7400  -68.5140 C.ar  115  TYR115      0.0417
     30  CZ        62.4110   55.6960  -67.6220 C.ar  115  TYR115      0.1957
     31  OH        61.5200   55.8350  -66.5870 O.3   115  TYR115     -0.2866
     32  N         58.5930   54.7160  -68.3420 N.3   157  PRO157     -0.2116
     33  CA        58.5880   53.9500  -67.0990 C.3   157  PRO157      0.1372
     34  C         58.0370   52.5430  -67.1940 C.2   157  PRO157      0.2244
     35  O         58.7940   51.5770  -67.1360 O.2   157  PRO157     -0.2868
     36  CB        57.7810   54.8360  -66.1720 C.3   157  PRO157      0.0268
     37  CG        58.3120   56.1920  -66.5460 C.3   157  PRO157      0.0207
     38  CD        58.2830   56.1310  -68.0690 C.3   157  PRO157      0.0892
     39  N         64.0990   47.7340  -59.1370 N.3   183  TYR183     -0.1227
     40  CA        63.2970   48.9480  -59.1150 C.3   183  TYR183      0.1736
     41  C         63.7740   49.8200  -60.2800 C.2   183  TYR183      0.2595
     42  O         64.8290   50.4590  -60.2240 O.2   183  TYR183     -0.2718
     43  CB        63.4680   49.6770  -57.7830 C.3   183  TYR183      0.0548
     44  CG        62.5650   50.8690  -57.6300 C.ar  183  TYR183     -0.0200
     45  CD1       61.1850   50.7140  -57.5850 C.ar  183  TYR183     -0.0009
     46  CD2       63.0910   52.1590  -57.5530 C.ar  183  TYR183     -0.0009
     47  CE1       60.3510   51.8170  -57.4680 C.ar  183  TYR183      0.0417
     48  CE2       62.2670   53.2670  -57.4390 C.ar  183  TYR183      0.0417
     49  CZ        60.9000   53.0910  -57.3960 C.ar  183  TYR183      0.1957
     50  OH        60.0820   54.1870  -57.2720 O.3   183  TYR183     -0.2866
     51  N         62.9940   49.8310  -61.3490 N.am  184  MET184     -0.1965
     52  CA        63.3750   50.5960  -62.5070 C.3   184  MET184      0.1736
     53  C         64.6150   49.8880  -63.0060 C.2   184  MET184      0.2616
     54  O         64.5450   48.7160  -63.3600 O.2   184  MET184     -0.2715
     55  CB        63.7100   52.0200  -62.1090 C.3   184  MET184      0.0427
     56  CG        63.8160   52.9420  -63.2840 C.3   184  MET184      0.0599
     57  SD        62.2470   53.1120  -64.1320 S.3   184  MET184     -0.1393
     58  CE        61.3780   54.3040  -63.0550 C.3   184  MET184      0.0692
     59  N         65.7520   50.5760  -62.9930 N.am  185  ASP185     -0.1957
     60  CA        66.9990   49.9890  -63.4690 C.3   185  ASP185      0.1840
     61  C         67.9180   49.6110  -62.3180 C.2   185  ASP185      0.2622
     62  O         69.0180   49.1240  -62.5360 O.2   185  ASP185     -0.2715
     63  CB        67.7180   50.9720  -64.4010 C.3   185  ASP185      0.1450
     64  CG        68.4550   52.0860  -63.6450 C.2   185  ASP185      0.3671
     65  OD1       68.0730   52.4150  -62.4930 O.co2 185  ASP185     -0.2456
     66  OD2       69.4200   52.6420  -64.2200 O.co2 185  ASP185     -0.2456
     67  N         67.4580   49.8190  -61.0940 N.am  186  ASP186     -0.1971
     68  CA        68.2560   49.5250  -59.9060 C.3   186  ASP186      0.1709
     69  C         68.1570   48.0480  -59.4400 C.2   186  ASP186      0.2293
     70  O         67.1130   47.6070  -58.9560 O.2   186  ASP186     -0.2864
     71  CB        67.7970   50.4840  -58.7910 C.3   186  ASP186      0.1436
     72  CG        68.9040   50.8560  -57.8110 C.2   186  ASP186      0.3671
     73  OD1       70.0490   51.1150  -58.2470 O.co2 186  ASP186     -0.2456
     74  OD2       68.6110   50.9210  -56.5960 O.co2 186  ASP186     -0.2456
     75  N         70.8190   51.8220  -51.0200 N.3   229  TRP229     -0.1227
     76  CA        69.7410   51.2350  -51.7980 C.3   229  TRP229      0.1737
     77  C         68.4100   51.8570  -51.4370 C.2   229  TRP229      0.2595
     78  O         68.0730   51.9720  -50.2600 O.2   229  TRP229     -0.2718
     79  CB        69.6900   49.7290  -51.5450 C.3   229  TRP229      0.0564
     80  CG        68.5480   49.0420  -52.2050 C.ar  229  TRP229      0.0003
     81  CD1       68.3690   48.8450  -53.5370 C.ar  229  TRP229      0.0946
     82  CD2       67.4180   48.4720  -51.5640 C.ar  229  TRP229      0.0152
     83  NE1       67.1920   48.1830  -53.7680 N.ar  229  TRP229     -0.2442
     84  CE2       66.5900   47.9450  -52.5660 C.ar  229  TRP229      0.0810
     85  CE3       67.0250   48.3560  -50.2360 C.ar  229  TRP229      0.0012
     86  CZ2       65.3950   47.3140  -52.2820 C.ar  229  TRP229      0.0191
     87  CZ3       65.8330   47.7260  -49.9520 C.ar  229  TRP229      0.0001
     88  CH2       65.0320   47.2140  -50.9700 C.ar  229  TRP229      0.0015
     89  N         67.6620   52.2650  -52.4560 N.am  230  MET230     -0.1965
     90  CA        66.3580   52.8710  -52.2460 C.3   230  MET230      0.1736
     91  C         66.3200   53.9330  -51.1350 C.2   230  MET230      0.2617
     92  O         65.3170   54.0610  -50.4380 O.2   230  MET230     -0.2715
     93  CB        65.3440   51.7740  -51.9420 C.3   230  MET230      0.0427
     94  CG        65.0810   50.8540  -53.1030 C.3   230  MET230      0.0599
     95  SD        64.4590   51.7690  -54.5300 S.3   230  MET230     -0.1393
     96  CE        66.0360   51.9840  -55.4340 C.3   230  MET230      0.0692
     97  N         67.4050   54.6870  -50.9700 N.am  231  GLY231     -0.1955
     98  CA        67.4360   55.7230  -49.9540 C.3   231  GLY231      0.1869
     99  C         67.7170   55.2380  -48.5430 C.2   231  GLY231      0.2309
    100  O         67.3500   55.8710  -47.5580 O.2   231  GLY231     -0.2863
@<TRIPOS>BOND
     1    23    22    2
     2    22    21    1
     3    21    24    1
     4    21    20    1
     5    24    25    1
     6    25    27   ar
     7    25    26   ar
     8    27    29   ar
     9    26    28   ar
    10     3     4    2
    11     3     2    1
    12    29    30   ar
    13    32    38    1
    14    32    33    1
    15    38    37    1
    16    28    30   ar
    17    30    31    1
    18     2     1    1
    19     2     5    1
    20    34    35    2
    21    34    33    1
    22    33    36    1
    23     6     5    1
    24     6     7    1
    25    37    36    1
    26     7     8    1
    27     8     9    2
    28    63    64    1
    29    63    60    1
    30    66    64   ar
    31    57    56    1
    32    57    58    1
    33     9    11    1
    34     9    10    1
    35    64    65   ar
    36    60    59    1
    37    60    61    1
    38    15    14    2
    39    54    53    2
    40    56    55    1
    41    53    59   am
    42    53    52    1
    43    14    13    1
    44    62    61    2
    45    52    55    1
    46    52    51    1
    47    19    17   ar
    48    61    67   am
    49    13    16    1
    50    13    12    1
    51    17    16    1
    52    17    18   ar
    53    51    41   am
    54    67    68    1
    55    41    42    2
    56    41    40    1
    57    68    69    1
    58    68    71    1
    59    69    70    2
    60    39    40    1
    61    40    43    1
    62    71    72    1
    63    73    72   ar
    64    72    74   ar
    65    43    44    1
    66    44    45   ar
    67    44    46   ar
    68    45    47   ar
    69    46    48   ar
    70    47    49   ar
    71    48    49   ar
    72    49    50    1
    73    96    95    1
    74    95    94    1
    75    83    81   ar
    76    83    84   ar
    77    81    80   ar
    78    94    93    1
    79    84    86   ar
    80    84    82   ar
    81    89    90    1
    82    89    77   am
    83    86    88   ar
    84    90    93    1
    85    90    91    1
    86    80    82   ar
    87    80    79    1
    88    76    79    1
    89    76    77    1
    90    76    75    1
    91    82    85   ar
    92    77    78    2
    93    91    97   am
    94    91    92    2
    95    88    87   ar
    96    97    98    1
    97    85    87   ar
    98    98    99    1
    99    99   100    2
