@<TRIPOS>MOLECULE
tmp/3jyyB00.pdb
 88 81 0 0 0
SMALL
GASTEIGER

@<TRIPOS>ATOM
      1  N         40.2470   57.0060   11.3340 N.3    25  GLY25      -0.1210
      2  CA        40.1200   57.1910   12.7840 C.3    25  GLY25       0.1956
      3  C         40.5680   58.5680   13.2340 C.2    25  GLY25       0.2612
      4  O         40.8110   59.4510   12.4060 O.2    25  GLY25      -0.2717
      5  N         40.7020   58.7430   14.5510 N.am   26  SER26      -0.1952
      6  CA        40.8560   60.0710   15.1600 C.3    26  SER26       0.1924
      7  C         42.0000   60.9490   14.6190 C.2    26  SER26       0.2314
      8  O         41.8540   62.1700   14.5690 O.2    26  SER26      -0.2863
      9  CB        40.9680   59.9590   16.6850 C.3    26  SER26       0.2116
     10  OG        42.1830   59.3190   17.0430 O.3    26  SER26      -0.2180
     11  N         40.7720   63.1210   11.8510 N.3    29  LYS29      -0.1245
     12  CA        39.7050   64.0850   12.1650 C.3    29  LYS29       0.1561
     13  C         40.1240   65.1040   13.2330 C.2    29  LYS29       0.2260
     14  O         39.2710   65.7560   13.8270 O.2    29  LYS29      -0.2867
     15  CB        38.4360   63.3700   12.6530 C.3    29  LYS29       0.0271
     16  CG        37.9480   62.2000   11.8170 C.3    29  LYS29       0.0035
     17  CD        37.0830   61.2980   12.6750 C.3    29  LYS29       0.0206
     18  CE        36.6600   60.0280   11.9500 C.3    29  LYS29       0.1093
     19  NZ        36.3420   58.9460   12.9210 N.3    29  LYS29      -0.1314
     20  N         41.2710   64.5340   16.2080 N.3    31  GLU31      -0.1245
     21  CA        40.8240   64.1120   17.5390 C.3    31  GLU31       0.1567
     22  C         41.8080   63.1710   18.2570 C.2    31  GLU31       0.2260
     23  O         41.5120   62.6490   19.3400 O.2    31  GLU31      -0.2867
     24  CB        39.4210   63.4830   17.4660 C.3    31  GLU31       0.0388
     25  CG        38.2650   64.4820   17.2680 C.3    31  GLU31       0.1160
     26  CD        36.8810   63.8060   17.1830 C.2    31  GLU31       0.3649
     27  OE1       36.7500   62.6160   17.5460 O.co2  31  GLU31      -0.2457
     28  OE2       35.9080   64.4710   16.7550 O.co2  31  GLU31      -0.2457
     29  N         44.8770   61.8480   20.4620 N.3    33  ASP33      -0.1239
     30  CA        45.6660   62.2700   21.6240 C.3    33  ASP33       0.1674
     31  C         46.5690   61.1170   22.0680 C.2    33  ASP33       0.2266
     32  O         46.7470   60.1530   21.3220 O.2    33  ASP33      -0.2867
     33  CB        44.7580   62.8030   22.7510 C.3    33  ASP33       0.1410
     34  CG        43.7970   61.7430   23.3080 C.2    33  ASP33       0.3668
     35  OD1       42.7350   62.1280   23.8420 O.co2  33  ASP33      -0.2456
     36  OD2       44.0890   60.5350   23.2230 O.co2  33  ASP33      -0.2456
     37  N         46.0860   58.8270   24.2210 N.3    35  TYR35      -0.1227
     38  CA        45.3840   57.5800   24.5130 C.3    35  TYR35       0.1736
     39  C         44.8660   56.9060   23.2370 C.2    35  TYR35       0.2596
     40  O         44.2390   55.8480   23.3040 O.2    35  TYR35      -0.2718
     41  CB        44.2240   57.8150   25.4960 C.3    35  TYR35       0.0548
     42  CG        44.5800   58.6650   26.7060 C.ar   35  TYR35      -0.0200
     43  CD1       45.3480   58.1490   27.7510 C.ar   35  TYR35      -0.0009
     44  CD2       44.1490   59.9890   26.7980 C.ar   35  TYR35      -0.0009
     45  CE1       45.6820   58.9350   28.8650 C.ar   35  TYR35       0.0417
     46  CE2       44.4700   60.7800   27.9100 C.ar   35  TYR35       0.0417
     47  CZ        45.2340   60.2480   28.9320 C.ar   35  TYR35       0.1957
     48  OH        45.5520   61.0310   30.0240 O.3    35  TYR35      -0.2866
     49  N         45.1320   57.5180   22.0820 N.am   36  SER36      -0.1938
     50  CA        44.6340   57.0170   20.7950 C.3    36  SER36       0.2055
     51  C         45.4160   55.8220   20.2660 C.2    36  SER36       0.2643
     52  O         46.5740   55.6150   20.6340 O.2    36  SER36      -0.2714
     53  CB        44.6660   58.1240   19.7400 C.3    36  SER36       0.2130
     54  OG        43.7690   59.1690   20.0680 O.3    36  SER36      -0.2179
     55  N         44.7780   55.0440   19.3890 N.am   37  ASP37      -0.1971
     56  CA        45.5010   54.0600   18.5980 C.3    37  ASP37       0.1709
     57  C         45.8750   54.6800   17.2490 C.2    37  ASP37       0.2293
     58  O         45.5420   55.8470   16.9770 O.2    37  ASP37      -0.2864
     59  CB        44.6700   52.7770   18.4180 C.3    37  ASP37       0.1436
     60  CG        43.3900   53.0010   17.6260 C.2    37  ASP37       0.3671
     61  OD1       43.1570   54.1190   17.1180 O.co2  37  ASP37      -0.2456
     62  OD2       42.5970   52.0500   17.4950 O.co2  37  ASP37      -0.2456
     63  N         45.8020   53.5720   12.9140 N.3    39  GLU39      -0.1245
     64  CA        45.0500   52.6420   12.0720 C.3    39  GLU39       0.1567
     65  C         45.0860   53.0050   10.6070 C.2    39  GLU39       0.2260
     66  O         44.9410   54.1750   10.2380 O.2    39  GLU39      -0.2867
     67  CB        43.6000   52.5070   12.5530 C.3    39  GLU39       0.0388
     68  CG        42.9480   53.8090   12.9120 C.3    39  GLU39       0.1160
     69  CD        42.0060   53.6920   14.1060 C.2    39  GLU39       0.3649
     70  OE1       41.6640   54.7380   14.7030 O.co2  39  GLU39      -0.2457
     71  OE2       41.6000   52.5600   14.4470 O.co2  39  GLU39      -0.2457
     72  N         29.8150   54.5090   16.1690 N.3   190  ASN190     -0.1240
     73  CA        30.6070   54.6960   17.3810 C.3   190  ASN190      0.1653
     74  C         29.8220   55.5760   18.3710 C.2   190  ASN190      0.2266
     75  O         30.2910   56.6340   18.7910 O.2   190  ASN190     -0.2867
     76  CB        31.9780   55.3190   17.0280 C.3   190  ASN190      0.1155
     77  CG        31.8650   56.6340   16.2000 C.2   190  ASN190      0.2627
     78  OD1       32.7940   57.4550   16.2010 O.2   190  ASN190     -0.2716
     79  ND2       30.7410   56.8260   15.4910 N.am  190  ASN190     -0.0877
     80  N         31.2440   57.3910   21.5320 N.3   192  LYS192     -0.1245
     81  CA        32.3910   58.2910   21.3450 C.3   192  LYS192      0.1561
     82  C         32.0460   59.7380   21.7120 C.2   192  LYS192      0.2260
     83  O         31.0330   60.2760   21.2510 O.2   192  LYS192     -0.2867
     84  CB        32.9540   58.2120   19.9050 C.3   192  LYS192      0.0271
     85  CG        34.1230   59.1740   19.6580 C.3   192  LYS192      0.0035
     86  CD        35.2080   58.5870   18.7950 C.3   192  LYS192      0.0206
     87  CE        36.4250   59.5290   18.7050 C.3   192  LYS192      0.1093
     88  NZ        37.1580   59.6530   20.0000 N.3   192  LYS192     -0.1314
@<TRIPOS>BOND
     1    66    65    2
     2    65    64    1
     3     1     2    1
     4    16    15    1
     5    16    17    1
     6    11    12    1
     7    18    17    1
     8    18    19    1
     9    64    67    1
    10    64    63    1
    11    12    15    1
    12    12    13    1
    13     4     3    2
    14    67    68    1
    15     2     3    1
    16    68    69    1
    17    13    14    2
    18     3     5   am
    19    69    71   ar
    20    69    70   ar
    21     5     6    1
    22     8     7    2
    23     7     6    1
    24     6     9    1
    25    79    77   am
    26    72    73    1
    27    77    78    2
    28    77    76    1
    29    20    21    1
    30     9    10    1
    31    28    26   ar
    32    58    57    2
    33    76    73    1
    34    61    60   ar
    35    26    25    1
    36    26    27   ar
    37    57    56    1
    38    25    24    1
    39    73    74    1
    40    24    21    1
    41    62    60   ar
    42    21    22    1
    43    60    59    1
    44    22    23    2
    45    74    75    2
    46    59    56    1
    47    56    55    1
    48    87    86    1
    49    87    88    1
    50    86    85    1
    51    55    51   am
    52    85    84    1
    53    53    54    1
    54    53    50    1
    55    84    81    1
    56    51    52    2
    57    51    50    1
    58    29    30    1
    59    50    49    1
    60    83    82    2
    61    32    31    2
    62    81    80    1
    63    81    82    1
    64    30    31    1
    65    30    33    1
    66    49    39   am
    67    33    34    1
    68    36    34   ar
    69    39    40    2
    70    39    38    1
    71    34    35   ar
    72    37    38    1
    73    38    41    1
    74    41    42    1
    75    42    44   ar
    76    42    43   ar
    77    44    46   ar
    78    43    45   ar
    79    46    47   ar
    80    45    47   ar
    81    47    48    1
