@<TRIPOS>MOLECULE
tmp/3jz0A01.pdb
 167 155 0 0 0
SMALL
GASTEIGER

@<TRIPOS>ATOM
      1  N         20.3510   24.1550   10.7590 N.3    24  MET24      -0.1245
      2  CA        19.3960   24.5990   11.7680 C.3    24  MET24       0.1570
      3  C         19.4590   23.6710   12.9760 C.2    24  MET24       0.2261
      4  O         19.2490   22.4680   12.8410 O.2    24  MET24      -0.2867
      5  CB        17.9820   24.5800   11.1820 C.3    24  MET24       0.0387
      6  CG        16.8780   25.1110   12.1170 C.3    24  MET24       0.0595
      7  SD        15.2640   24.3940   11.6990 S.3    24  MET24      -0.1393
      8  CE        15.3080   22.8690   12.6460 C.3    24  MET24       0.0692
      9  N         17.8120   22.5130   16.6990 N.3    26  TYR26      -0.1227
     10  CA        16.5440   22.5930   17.4280 C.3    26  TYR26       0.1736
     11  C         16.6870   21.8470   18.7570 C.2    26  TYR26       0.2596
     12  O         17.8010   21.4550   19.1300 O.2    26  TYR26      -0.2718
     13  CB        15.3700   22.0860   16.5610 C.3    26  TYR26       0.0548
     14  CG        15.3870   20.5960   16.2710 C.ar   26  TYR26      -0.0200
     15  CD1       14.4940   19.7410   16.9140 C.ar   26  TYR26      -0.0009
     16  CD2       16.2920   20.0470   15.3620 C.ar   26  TYR26      -0.0009
     17  CE1       14.4980   18.3770   16.6700 C.ar   26  TYR26       0.0417
     18  CE2       16.3090   18.6690   15.1030 C.ar   26  TYR26       0.0417
     19  CZ        15.4090   17.8470   15.7680 C.ar   26  TYR26       0.1957
     20  OH        15.4080   16.4940   15.5430 O.3    26  TYR26      -0.2866
     21  N         15.5810   21.6750   19.4810 N.am   27  GLY27      -0.1957
     22  CA        15.6050   20.9900   20.7650 C.3    27  GLY27       0.1869
     23  C         15.9950   21.9050   21.9040 C.2    27  GLY27       0.2309
     24  O         16.0520   23.1270   21.7370 O.2    27  GLY27      -0.2863
     25  N         18.0510   25.1030   22.0700 N.3    30  THR30      -0.1203
     26  CA        17.4470   26.2870   21.4360 C.3    30  THR30       0.1994
     27  C         16.2490   26.8060   22.2400 C.2    30  THR30       0.2617
     28  O         15.5620   27.7240   21.7960 O.2    30  THR30      -0.2717
     29  CB        17.0140   26.0340   19.9570 C.3    30  THR30       0.1784
     30  OG1       15.8960   25.1360   19.9030 O.3    30  THR30      -0.2211
     31  CG2       18.1690   25.4770   19.1280 C.3    30  THR30       0.0376
     32  N         16.0150   26.2230   23.4220 N.am   31  LYS31      -0.1979
     33  CA        14.8130   26.5070   24.2220 C.3    31  LYS31       0.1596
     34  C         15.1240   26.8020   25.6940 C.2    31  LYS31       0.2287
     35  O         14.2210   26.7950   26.5430 O.2    31  LYS31      -0.2864
     36  CB        13.8090   25.3450   24.1060 C.3    31  LYS31       0.0298
     37  CG        13.2270   25.1350   22.7050 C.3    31  LYS31       0.0038
     38  CD        12.6470   23.7250   22.5210 C.3    31  LYS31       0.0206
     39  CE        11.2010   23.6350   22.9670 C.3    31  LYS31       0.1093
     40  NZ        10.6400   22.2350   22.9930 N.3    31  LYS31      -0.1314
     41  N         20.7110   15.6470   24.4660 N.3    39  ASP39      -0.1239
     42  CA        21.3040   15.2970   23.1840 C.3    39  ASP39       0.1674
     43  C         21.4590   16.5720   22.3670 C.2    39  ASP39       0.2266
     44  O         21.0710   17.6640   22.8050 O.2    39  ASP39      -0.2867
     45  CB        20.4290   14.2810   22.4160 C.3    39  ASP39       0.1410
     46  CG        19.0770   14.8580   21.9710 C.2    39  ASP39       0.3668
     47  OD1       18.7680   16.0270   22.2860 O.co2  39  ASP39      -0.2456
     48  OD2       18.2980   14.1370   21.2980 O.co2  39  ASP39      -0.2456
     49  N         20.8870   18.1210   18.2310 N.3    41  GLU41      -0.1245
     50  CA        20.1060   17.8010   17.0220 C.3    41  GLU41       0.1567
     51  C         20.0120   18.9430   16.0190 C.2    41  GLU41       0.2260
     52  O         19.8860   20.1140   16.3990 O.2    41  GLU41      -0.2867
     53  CB        18.7060   17.3130   17.3900 C.3    41  GLU41       0.0388
     54  CG        17.9680   18.2220   18.3670 C.3    41  GLU41       0.1160
     55  CD        17.4550   17.4700   19.5790 C.2    41  GLU41       0.3649
     56  OE1       17.3060   18.0860   20.6610 O.co2  41  GLU41      -0.2457
     57  OE2       17.2270   16.2500   19.4600 O.co2  41  GLU41      -0.2457
     58  N         19.0270   20.0080   11.6000 N.3    43  TYR43      -0.1241
     59  CA        18.7440   19.7870   10.1900 C.3    43  TYR43       0.1605
     60  C         19.9310   20.3320    9.4090 C.2    43  TYR43       0.2264
     61  O         20.3810   21.4560    9.6590 O.2    43  TYR43      -0.2867
     62  CB        17.4370   20.4740    9.7870 C.3    43  TYR43       0.0534
     63  CG        16.2220   19.6110   10.0490 C.ar   43  TYR43      -0.0201
     64  CD1       15.8510   19.2590   11.3540 C.ar   43  TYR43      -0.0009
     65  CD2       15.4540   19.1220    8.9890 C.ar   43  TYR43      -0.0009
     66  CE1       14.7410   18.4500   11.5930 C.ar   43  TYR43       0.0417
     67  CE2       14.3460   18.3130    9.2140 C.ar   43  TYR43       0.0417
     68  CZ        13.9950   17.9790   10.5070 C.ar   43  TYR43       0.1957
     69  OH        12.8970   17.1760   10.7120 O.3    43  TYR43      -0.2866
     70  N         16.5670    6.0650   12.1220 N.3    72  ASN72      -0.1240
     71  CA        15.3820    5.6900   12.8910 C.3    72  ASN72       0.1653
     72  C         14.1400    5.7050   11.9910 C.2    72  ASN72       0.2266
     73  O         14.2580    5.9330   10.7810 O.2    72  ASN72      -0.2867
     74  CB        15.2210    6.5710   14.1490 C.3    72  ASN72       0.1155
     75  CG        14.8230    8.0130   13.8290 C.2    72  ASN72       0.2627
     76  OD1       14.4940    8.3500   12.6900 O.2    72  ASN72      -0.2716
     77  ND2       14.8540    8.8740   14.8520 N.am   72  ASN72      -0.0877
     78  N         11.8780    7.7970   11.5520 N.3    74  TYR74      -0.1241
     79  CA        11.6030    9.0970   10.9230 C.3    74  TYR74       0.1605
     80  C         12.6170    9.4330    9.8280 C.2    74  TYR74       0.2264
     81  O         12.5740   10.5220    9.2460 O.2    74  TYR74      -0.2867
     82  CB        11.5590   10.2090   11.9800 C.3    74  TYR74       0.0534
     83  CG        10.5920    9.9350   13.1140 C.ar   74  TYR74      -0.0201
     84  CD1        9.2130   10.1110   12.9470 C.ar   74  TYR74      -0.0009
     85  CD2       11.0550    9.4860   14.3500 C.ar   74  TYR74      -0.0009
     86  CE1        8.3160    9.8520   13.9930 C.ar   74  TYR74       0.0417
     87  CE2       10.1780    9.2290   15.3990 C.ar   74  TYR74       0.0417
     88  CZ         8.8100    9.4090   15.2170 C.ar   74  TYR74       0.1957
     89  OH         7.9530    9.1440   16.2680 O.3    74  TYR74      -0.2866
     90  N         15.7190    9.8830   10.3880 N.3    76  THR76      -0.1218
     91  CA        16.7550   10.6700   11.0600 C.3    76  THR76       0.1862
     92  C         18.0240    9.8330   11.2560 C.2    76  THR76       0.2287
     93  O         17.9420    8.6890   11.6960 O.2    76  THR76      -0.2866
     94  CB        16.2670   11.1390   12.4560 C.3    76  THR76       0.1770
     95  OG1       14.9510   11.7040   12.3540 O.3    76  THR76      -0.2211
     96  CG2       17.2280   12.1650   13.0670 C.3    76  THR76       0.0375
     97  N         24.3430   11.6580   22.5890 N.3    86  ARG86      -0.1245
     98  CA        23.4540   11.3280   21.4810 C.3    86  ARG86       0.1563
     99  C         23.3310   12.5300   20.5400 C.2    86  ARG86       0.2260
    100  O         23.2340   13.6750   20.9990 O.2    86  ARG86      -0.2867
    101  CB        22.0660   10.9360   22.0050 C.3    86  ARG86       0.0307
    102  CG        21.9700    9.5250   22.5780 C.3    86  ARG86       0.0489
    103  CD        20.5600    9.2030   23.0750 C.3    86  ARG86       0.2205
    104  NE        19.5740    9.2620   21.9950 N.pl3  86  ARG86      -0.0865
    105  CZ        18.7960   10.3090   21.7180 C.cat  86  ARG86       0.5346
    106  NH1       18.8570   11.4220   22.4470 N.pl3  86  ARG86       0.1354
    107  NH2       17.9440   10.2380   20.6990 N.pl3  86  ARG86       0.1354
    108  N         21.2360   13.7820   16.7660 N.3    88  GLU88      -0.1245
    109  CA        20.2570   13.4920   15.7200 C.3    88  GLU88       0.1567
    110  C         20.3760   14.4810   14.5720 C.2    88  GLU88       0.2260
    111  O         20.3030   15.6890   14.7610 O.2    88  GLU88      -0.2867
    112  CB        18.8410   13.4770   16.2890 C.3    88  GLU88       0.0388
    113  CG        18.6030   12.3410   17.2620 C.3    88  GLU88       0.1160
    114  CD        17.2660   12.4410   17.9460 C.2    88  GLU88       0.3649
    115  OE1       17.0870   13.3310   18.7850 O.co2  88  GLU88      -0.2457
    116  OE2       16.3870   11.6250   17.6440 O.co2  88  GLU88      -0.2457
    117  N         19.2880   15.4000   10.5800 N.3    90  HIS90      -0.1241
    118  CA        18.3900   15.2180    9.4410 C.3    90  HIS90       0.1621
    119  C         19.0030   15.9030    8.2270 C.2    90  HIS90       0.2264
    120  O         19.0780   17.1360    8.1800 O.2    90  HIS90      -0.2867
    121  CB        17.0160   15.8460    9.7090 C.3    90  HIS90       0.0745
    122  CG        16.4640   15.5810   11.0760 C.ar   90  HIS90       0.0817
    123  ND1       15.2730   14.9150   11.2790 N.ar   90  HIS90      -0.2268
    124  CD2       16.9130   15.9290   12.3070 C.ar   90  HIS90       0.1154
    125  CE1       15.0240   14.8440   12.5740 C.ar   90  HIS90       0.1986
    126  NE2       16.0020   15.4570   13.2200 N.ar   90  HIS90      -0.2212
    127  N          7.2050   23.5450   11.0630 N.3   103  PHE103     -0.1241
    128  CA         7.6780   23.2640   12.4170 C.3   103  PHE103      0.1605
    129  C          6.8970   24.0240   13.4900 C.2   103  PHE103      0.2264
    130  O          6.8790   23.6220   14.6470 O.2   103  PHE103     -0.2867
    131  CB         9.1840   23.5300   12.5480 C.3   103  PHE103      0.0534
    132  CG        10.0430   22.6110   11.7110 C.ar  103  PHE103     -0.0203
    133  CD1        9.5330   21.4260   11.2000 C.ar  103  PHE103     -0.0042
    134  CD2       11.3820   22.9180   11.4780 C.ar  103  PHE103     -0.0042
    135  CE1       10.3350   20.5770   10.4320 C.ar  103  PHE103     -0.0003
    136  CE2       12.1890   22.0730   10.7220 C.ar  103  PHE103     -0.0003
    137  CZ        11.6640   20.9050   10.2020 C.ar  103  PHE103     -0.0000
    138  N          4.4930   22.0700   15.7090 N.3   106  SER106     -0.1217
    139  CA         5.0510   21.1670   16.7220 C.3   106  SER106      0.1889
    140  C          4.9550   21.6940   18.1470 C.2   106  SER106      0.2288
    141  O          4.9710   20.9130   19.1030 O.2   106  SER106     -0.2866
    142  CB         6.5140   20.8160   16.3950 C.3   106  SER106      0.2089
    143  OG         7.3680   21.9380   16.5510 O.3   106  SER106     -0.2183
    144  N          8.0010   28.1610   19.7290 N.3   109  ILE109     -0.1245
    145  CA         9.3440   28.4230   19.2050 C.3   109  ILE109      0.1561
    146  C          9.8870   29.7090   19.8520 C.2   109  ILE109      0.2260
    147  O          9.7090   30.7980   19.2990 O.2   109  ILE109     -0.2867
    148  CB         9.3200   28.6120   17.6580 C.3   109  ILE109      0.0252
    149  CG1        8.3380   27.6420   16.9680 C.3   109  ILE109      0.0019
    150  CG2       10.7380   28.5440   17.0710 C.3   109  ILE109      0.0019
    151  CD1        8.7410   26.1770   16.9770 C.3   109  ILE109      0.0001
    152  N         18.6450   28.7650   16.9960 N.3   115  MET115     -0.1245
    153  CA        18.3990   27.7530   15.9630 C.3   115  MET115      0.1570
    154  C         19.2730   27.9360   14.7150 C.2   115  MET115      0.2261
    155  O         19.4890   26.9850   13.9610 O.2   115  MET115     -0.2867
    156  CB        16.9170   27.7360   15.5610 C.3   115  MET115      0.0387
    157  CG        15.9630   27.2920   16.6770 C.3   115  MET115      0.0595
    158  SD        14.2330   27.3220   16.1580 S.3   115  MET115     -0.1393
    159  CE        14.1960   26.0210   14.9260 C.3   115  MET115      0.0692
    160  N          2.9380   17.5770   22.0050 N.3   196  LEU196     -0.1245
    161  CA         3.4380   16.3590   21.3840 C.3   196  LEU196      0.1561
    162  C          4.4840   15.7120   22.2790 C.2   196  LEU196      0.2260
    163  O          4.5490   14.4840   22.3800 O.2   196  LEU196     -0.2867
    164  CB         3.9970   16.6410   19.9830 C.3   196  LEU196      0.0270
    165  CG         3.0460   17.3520   19.0120 C.3   196  LEU196      0.0019
    166  CD1        3.7630   17.6840   17.6910 C.3   196  LEU196      0.0001
    167  CD2        1.7490   16.5540   18.7640 C.3   196  LEU196      0.0001
@<TRIPOS>BOND
     1   120   119    2
     2   119   118    1
     3    65    67   ar
     4    65    63   ar
     5    67    68   ar
     6    81    80    2
     7    60    61    2
     8    60    59    1
     9   118   121    1
    10   118   117    1
    11   121   122    1
    12    62    63    1
    13    62    59    1
    14    80    79    1
    15    63    64   ar
    16    59    58    1
    17   137   135   ar
    18   137   136   ar
    19    90    91    1
    20   135   133   ar
    21    68    69    1
    22    68    66   ar
    23   136   134   ar
    24     1     2    1
    25    73    72    2
    26    79    78    1
    27    79    82    1
    28    91    92    1
    29    91    94    1
    30   127   128    1
    31   122   123   ar
    32   122   124   ar
    33     5     2    1
    34     5     6    1
    35   133   132   ar
    36    92    93    2
    37   123   125   ar
    38    64    66   ar
    39   134   132   ar
    40     7     6    1
    41     7     8    1
    42   132   131    1
    43     2     3    1
    44    82    83    1
    45    72    71    1
    46    70    71    1
    47   124   126   ar
    48    95    94    1
    49   128   131    1
    50   128   129    1
    51    94    96    1
    52   125   126   ar
    53    76    75    2
    54     4     3    2
    55    71    74    1
    56    84    83   ar
    57    84    86   ar
    58    83    85   ar
    59   129   130    2
    60    75    74    1
    61    75    77   am
    62   155   154    2
    63    86    88   ar
    64    85    87   ar
    65   110   111    2
    66   110   109    1
    67   154   153    1
    68   159   158    1
    69    18    16   ar
    70    18    19   ar
    71    88    87   ar
    72    88    89    1
    73    16    14   ar
    74    20    19    1
    75   156   153    1
    76   156   157    1
    77   138   139    1
    78   109   112    1
    79   109   108    1
    80    19    17   ar
    81   153   152    1
    82    51    52    2
    83    51    50    1
    84   158   157    1
    85    14    13    1
    86    14    15   ar
    87   112   113    1
    88   142   143    1
    89   142   139    1
    90    13    10    1
    91    17    15   ar
    92     9    10    1
    93   139   140    1
    94   149   151    1
    95   149   148    1
    96    50    53    1
    97    50    49    1
    98   150   148    1
    99   113   114    1
   100    53    54    1
   101    10    11    1
   102   116   114   ar
   103   148   145    1
   104   166   165    1
   105   114   115   ar
   106   140   141    2
   107    54    55    1
   108    11    12    2
   109    11    21   am
   110   167   165    1
   111   165   164    1
   112    31    29    1
   113   145   144    1
   114   145   146    1
   115   147   146    2
   116    57    55   ar
   117    21    22    1
   118    55    56   ar
   119    30    29    1
   120    29    26    1
   121   164   161    1
   122    99   100    2
   123    99    98    1
   124   107   105    1
   125    22    23    1
   126    48    46   ar
   127   161   160    1
   128   161   162    1
   129    26    25    1
   130    26    27    1
   131    98   101    1
   132    98    97    1
   133   105   104    2
   134   105   106    1
   135    24    23    2
   136    28    27    2
   137    46    47   ar
   138    46    45    1
   139   104   103    1
   140   101   102    1
   141    27    32   am
   142   162   163    2
   143    43    44    2
   144    43    42    1
   145    45    42    1
   146    38    37    1
   147    38    39    1
   148   102   103    1
   149    37    36    1
   150    39    40    1
   151    42    41    1
   152    32    33    1
   153    36    33    1
   154    33    34    1
   155    34    35    2
