@<TRIPOS>MOLECULE
tmp/3jz0A00.pdb
 123 115 0 0 0
SMALL
GASTEIGER

@<TRIPOS>ATOM
      1  N         17.8120   22.5130   16.6990 N.3    26  TYR26      -0.1227
      2  CA        16.5440   22.5930   17.4280 C.3    26  TYR26       0.1736
      3  C         16.6870   21.8470   18.7570 C.2    26  TYR26       0.2596
      4  O         17.8010   21.4550   19.1300 O.2    26  TYR26      -0.2718
      5  CB        15.3700   22.0860   16.5610 C.3    26  TYR26       0.0548
      6  CG        15.3870   20.5960   16.2710 C.ar   26  TYR26      -0.0200
      7  CD1       14.4940   19.7410   16.9140 C.ar   26  TYR26      -0.0009
      8  CD2       16.2920   20.0470   15.3620 C.ar   26  TYR26      -0.0009
      9  CE1       14.4980   18.3770   16.6700 C.ar   26  TYR26       0.0417
     10  CE2       16.3090   18.6690   15.1030 C.ar   26  TYR26       0.0417
     11  CZ        15.4090   17.8470   15.7680 C.ar   26  TYR26       0.1957
     12  OH        15.4080   16.4940   15.5430 O.3    26  TYR26      -0.2866
     13  N         15.5810   21.6750   19.4810 N.am   27  GLY27      -0.1942
     14  CA        15.6050   20.9900   20.7650 C.3    27  GLY27       0.2014
     15  C         15.9950   21.9050   21.9040 C.2    27  GLY27       0.2639
     16  O         16.0520   23.1270   21.7370 O.2    27  GLY27      -0.2714
     17  N         16.2970   21.2970   23.0480 N.am   28  SER28      -0.1949
     18  CA        16.4960   22.0060   24.3180 C.3    28  SER28       0.1924
     19  C         17.5970   23.0720   24.3460 C.2    28  SER28       0.2314
     20  O         17.4660   24.0730   25.0730 O.2    28  SER28      -0.2863
     21  CB        16.6950   21.0040   25.4620 C.3    28  SER28       0.2116
     22  OG        17.8220   20.1780   25.2350 O.3    28  SER28      -0.2180
     23  N         16.0150   26.2230   23.4220 N.3    31  LYS31      -0.1245
     24  CA        14.8130   26.5070   24.2220 C.3    31  LYS31       0.1561
     25  C         15.1240   26.8020   25.6940 C.2    31  LYS31       0.2260
     26  O         14.2210   26.7950   26.5430 O.2    31  LYS31      -0.2867
     27  CB        13.8090   25.3450   24.1060 C.3    31  LYS31       0.0271
     28  CG        13.2270   25.1350   22.7050 C.3    31  LYS31       0.0035
     29  CD        12.6470   23.7250   22.5210 C.3    31  LYS31       0.0206
     30  CE        11.2010   23.6350   22.9670 C.3    31  LYS31       0.1093
     31  NZ        10.6400   22.2350   22.9930 N.3    31  LYS31      -0.1314
     32  N         16.6630   24.9680   27.7970 N.3    33  GLU33      -0.1245
     33  CA        16.4800   23.7630   28.6150 C.3    33  GLU33       0.1567
     34  C         17.6370   22.7580   28.5210 C.2    33  GLU33       0.2260
     35  O         17.5870   21.7020   29.1510 O.2    33  GLU33      -0.2867
     36  CB        15.1420   23.0790   28.2830 C.3    33  GLU33       0.0388
     37  CG        13.9220   23.8960   28.6880 C.3    33  GLU33       0.1160
     38  CD        12.5870   23.1800   28.4500 C.2    33  GLU33       0.3649
     39  OE1       12.5660   22.0270   27.9700 O.co2  33  GLU33      -0.2457
     40  OE2       11.5430   23.7950   28.7460 O.co2  33  GLU33      -0.2457
     41  N         20.9700   20.7050   29.1660 N.3    35  ASP35      -0.1239
     42  CA        21.8020   20.3350   30.3230 C.3    35  ASP35       0.1674
     43  C         22.7280   19.1550   30.0070 C.2    35  ASP35       0.2266
     44  O         22.8190   18.7270   28.8530 O.2    35  ASP35      -0.2867
     45  CB        20.9600   20.1030   31.5930 C.3    35  ASP35       0.1410
     46  CG        20.0300   18.8800   31.5010 C.2    35  ASP35       0.3668
     47  OD1       19.0970   18.8090   32.3300 O.co2  35  ASP35      -0.2456
     48  OD2       20.2160   17.9930   30.6350 O.co2  35  ASP35      -0.2456
     49  N         22.3350   16.1610   30.5360 N.3    37  TYR37      -0.1227
     50  CA        21.5810   14.9790   30.1050 C.3    37  TYR37       0.1736
     51  C         21.0070   15.1090   28.6930 C.2    37  TYR37       0.2596
     52  O         20.3670   14.1810   28.1980 O.2    37  TYR37      -0.2718
     53  CB        20.4940   14.6160   31.1280 C.3    37  TYR37       0.0548
     54  CG        21.0430   14.5270   32.5390 C.ar   37  TYR37      -0.0200
     55  CD1       21.9540   13.5250   32.8980 C.ar   37  TYR37      -0.0009
     56  CD2       20.6850   15.4700   33.5010 C.ar   37  TYR37      -0.0009
     57  CE1       22.4720   13.4550   34.1960 C.ar   37  TYR37       0.0417
     58  CE2       21.2010   15.4070   34.7990 C.ar   37  TYR37       0.0417
     59  CZ        22.0890   14.4000   35.1320 C.ar   37  TYR37       0.1957
     60  OH        22.5980   14.3440   36.4060 O.3    37  TYR37      -0.2866
     61  N         21.2530   16.2460   28.0440 N.am   38  SER38      -0.1938
     62  CA        20.6820   16.5090   26.7120 C.3    38  SER38       0.2055
     63  C         21.4190   15.8040   25.5800 C.2    38  SER38       0.2643
     64  O         22.5930   15.4220   25.7200 O.2    38  SER38      -0.2714
     65  CB        20.6470   18.0110   26.4100 C.3    38  SER38       0.2130
     66  OG        19.8990   18.7190   27.3750 O.3    38  SER38      -0.2179
     67  N         20.7110   15.6470   24.4660 N.am   39  ASP39      -0.1971
     68  CA        21.3040   15.2970   23.1840 C.3    39  ASP39       0.1709
     69  C         21.4590   16.5720   22.3670 C.2    39  ASP39       0.2293
     70  O         21.0710   17.6640   22.8050 O.2    39  ASP39      -0.2864
     71  CB        20.4290   14.2810   22.4160 C.3    39  ASP39       0.1436
     72  CG        19.0770   14.8580   21.9710 C.2    39  ASP39       0.3671
     73  OD1       18.7680   16.0270   22.2860 O.co2  39  ASP39      -0.2456
     74  OD2       18.2980   14.1370   21.2980 O.co2  39  ASP39      -0.2456
     75  N         20.8870   18.1210   18.2310 N.3    41  GLU41      -0.1245
     76  CA        20.1060   17.8010   17.0220 C.3    41  GLU41       0.1567
     77  C         20.0120   18.9430   16.0190 C.2    41  GLU41       0.2260
     78  O         19.8860   20.1140   16.3990 O.2    41  GLU41      -0.2867
     79  CB        18.7060   17.3130   17.3900 C.3    41  GLU41       0.0388
     80  CG        17.9680   18.2220   18.3670 C.3    41  GLU41       0.1160
     81  CD        17.4550   17.4700   19.5790 C.2    41  GLU41       0.3649
     82  OE1       17.3060   18.0860   20.6610 O.co2  41  GLU41      -0.2457
     83  OE2       17.2270   16.2500   19.4600 O.co2  41  GLU41      -0.2457
     84  N         21.2360   13.7820   16.7660 N.3    88  GLU88      -0.1245
     85  CA        20.2570   13.4920   15.7200 C.3    88  GLU88       0.1567
     86  C         20.3760   14.4810   14.5720 C.2    88  GLU88       0.2260
     87  O         20.3030   15.6890   14.7610 O.2    88  GLU88      -0.2867
     88  CB        18.8410   13.4770   16.2890 C.3    88  GLU88       0.0388
     89  CG        18.6030   12.3410   17.2620 C.3    88  GLU88       0.1160
     90  CD        17.2660   12.4410   17.9460 C.2    88  GLU88       0.3649
     91  OE1       17.0870   13.3310   18.7850 O.co2  88  GLU88      -0.2457
     92  OE2       16.3870   11.6250   17.6440 O.co2  88  GLU88      -0.2457
     93  N          4.4930   22.0700   15.7090 N.3   106  SER106     -0.1217
     94  CA         5.0510   21.1670   16.7220 C.3   106  SER106      0.1889
     95  C          4.9550   21.6940   18.1470 C.2   106  SER106      0.2288
     96  O          4.9710   20.9130   19.1030 O.2   106  SER106     -0.2866
     97  CB         6.5140   20.8160   16.3950 C.3   106  SER106      0.2089
     98  OG         7.3680   21.9380   16.5510 O.3   106  SER106     -0.2183
     99  N          2.9380   17.5770   22.0050 N.3   196  LEU196     -0.1231
    100  CA         3.4380   16.3590   21.3840 C.3   196  LEU196      0.1693
    101  C          4.4840   15.7120   22.2790 C.2   196  LEU196      0.2592
    102  O          4.5490   14.4840   22.3800 O.2   196  LEU196     -0.2718
    103  CB         3.9970   16.6410   19.9830 C.3   196  LEU196      0.0284
    104  CG         3.0460   17.3520   19.0120 C.3   196  LEU196      0.0019
    105  CD1        3.7630   17.6840   17.6910 C.3   196  LEU196      0.0001
    106  CD2        1.7490   16.5540   18.7640 C.3   196  LEU196      0.0001
    107  N          5.2930   16.5540   22.9230 N.am  197  ASN197     -0.1974
    108  CA         6.2500   16.1270   23.9550 C.3   197  ASN197      0.1688
    109  C          5.6190   16.2670   25.3450 C.2   197  ASN197      0.2292
    110  O          6.1220   17.0060   26.2020 O.2   197  ASN197     -0.2864
    111  CB         7.5650   16.9320   23.8430 C.3   197  ASN197      0.1181
    112  CG         7.3590   18.4580   23.9630 C.2   197  ASN197      0.2629
    113  OD1        8.2890   19.1990   24.3060 O.2   197  ASN197     -0.2716
    114  ND2        6.1550   18.9230   23.6820 N.am  197  ASN197     -0.0877
    115  N          7.5380   15.9910   28.7350 N.3   200  LYS200     -0.1245
    116  CA         8.6560   16.9120   28.9670 C.3   200  LYS200      0.1561
    117  C          8.3400   17.8310   30.1520 C.2   200  LYS200      0.2260
    118  O          7.2350   18.3770   30.2460 O.2   200  LYS200     -0.2867
    119  CB         8.9560   17.7510   27.7150 C.3   200  LYS200      0.0271
    120  CG        10.2560   18.5760   27.7790 C.3   200  LYS200      0.0035
    121  CD        11.4940   17.6700   27.6800 C.3   200  LYS200      0.0206
    122  CE        12.8030   18.4620   27.8230 C.3   200  LYS200      0.1093
    123  NZ        13.0140   19.0300   29.1950 N.3   200  LYS200     -0.1314
@<TRIPOS>BOND
     1    86    87    2
     2    86    85    1
     3    10     8   ar
     4    10    11   ar
     5     8     6   ar
     6    12    11    1
     7    93    94    1
     8    85    88    1
     9    85    84    1
    10    11     9   ar
    11    77    78    2
    12    77    76    1
    13     6     5    1
    14     6     7   ar
    15    88    89    1
    16    97    98    1
    17    97    94    1
    18     5     2    1
    19     9     7   ar
    20     1     2    1
    21    94    95    1
    22    76    79    1
    23    76    75    1
    24    89    90    1
    25    79    80    1
    26     2     3    1
    27    92    90   ar
    28   105   104    1
    29    90    91   ar
    30    95    96    2
    31    80    81    1
    32     3     4    2
    33     3    13   am
    34   106   104    1
    35   104   103    1
    36    83    81   ar
    37    13    14    1
    38    81    82   ar
    39   103   100    1
    40    14    15    1
    41    74    72   ar
    42   100    99    1
    43   100   101    1
    44    16    15    2
    45    15    17   am
    46    72    73   ar
    47    72    71    1
    48   101   102    2
    49   101   107   am
    50    69    70    2
    51    69    68    1
    52    71    68    1
    53    29    28    1
    54    29    30    1
    55    28    27    1
    56   107   108    1
    57    30    31    1
    58    17    18    1
    59    68    67    1
    60    23    24    1
    61   114   112   am
    62   111   108    1
    63   111   112    1
    64   108   109    1
    65   112   113    2
    66    27    24    1
    67    24    25    1
    68    18    19    1
    69    18    21    1
    70    19    20    2
    71    67    63   am
    72    22    21    1
    73   109   110    2
    74    63    64    2
    75    63    62    1
    76    25    26    2
    77    65    62    1
    78    65    66    1
    79    62    61    1
    80   121   120    1
    81   121   122    1
    82   119   120    1
    83   119   116    1
    84    32    33    1
    85   122   123    1
    86    39    38   ar
    87    61    51   am
    88    52    51    2
    89    36    33    1
    90    36    37    1
    91    38    37    1
    92    38    40   ar
    93    34    33    1
    94    34    35    2
    95    51    50    1
    96   115   116    1
    97    44    43    2
    98   116   117    1
    99    41    42    1
   100    43    42    1
   101    50    49    1
   102    50    53    1
   103   117   118    2
   104    42    45    1
   105    48    46   ar
   106    53    54    1
   107    46    45    1
   108    46    47   ar
   109    54    55   ar
   110    54    56   ar
   111    55    57   ar
   112    56    58   ar
   113    57    59   ar
   114    58    59   ar
   115    59    60    1
