@<TRIPOS>MOLECULE
tmp/3jz6A00.pdb
 140 131 0 0 0
SMALL
GASTEIGER

@<TRIPOS>ATOM
      1  N         13.1300  -12.7370    6.2780 N.3    74  GLY74      -0.1225
      2  CA        13.6450  -14.0730    6.1110 C.3    74  GLY74       0.1811
      3  C         13.7080  -14.4080    4.6320 C.2    74  GLY74       0.2280
      4  O         12.7040  -14.3020    3.9290 O.2    74  GLY74      -0.2866
      5  N          9.6690   -5.2040    1.8270 N.3    96  ARG96      -0.1245
      6  CA         8.7760   -5.5890    2.9170 C.3    96  ARG96       0.1563
      7  C          9.3290   -5.1710    4.2820 C.2    96  ARG96       0.2260
      8  O          8.5630   -4.9060    5.2070 O.2    96  ARG96      -0.2867
      9  CB         8.5220   -7.0990    2.8990 C.3    96  ARG96       0.0307
     10  CG         7.4250   -7.5340    3.8530 C.3    96  ARG96       0.0489
     11  CD         7.0060   -8.9700    3.5980 C.3    96  ARG96       0.2205
     12  NE         8.0540   -9.9400    3.8970 N.pl3  96  ARG96      -0.0865
     13  CZ         7.9600  -11.2330    3.6090 C.cat  96  ARG96       0.5346
     14  NH1        6.8700  -11.6960    3.0140 N.pl3  96  ARG96       0.1354
     15  NH2        8.9470  -12.0640    3.9220 N.pl3  96  ARG96       0.1354
     16  N         -4.9170  -14.3250   14.6320 N.3   189  ARG189     -0.1245
     17  CA        -3.5510  -13.9240   14.3190 C.3   189  ARG189      0.1563
     18  C         -3.4200  -12.4040   14.3330 C.2   189  ARG189      0.2260
     19  O         -2.3850  -11.8660   14.7080 O.2   189  ARG189     -0.2867
     20  CB        -3.1590  -14.4410   12.9380 C.3   189  ARG189      0.0307
     21  CG        -1.6680  -14.4190   12.6480 C.3   189  ARG189      0.0489
     22  CD        -1.3910  -14.7840   11.1950 C.3   189  ARG189      0.2205
     23  NE        -1.7120  -13.6900   10.2940 N.pl3 189  ARG189     -0.0865
     24  CZ        -0.9700  -12.5980   10.1380 C.cat 189  ARG189      0.5346
     25  NH1        0.1610  -12.4430   10.8170 N.pl3 189  ARG189      0.1354
     26  NH2       -1.3860  -11.6400    9.3240 N.pl3 189  ARG189      0.1354
     27  N          2.5760   -6.9430    8.8440 N.3   198  ALA198     -0.1231
     28  CA         3.9900   -6.6790    9.0710 C.3   198  ALA198      0.1694
     29  C          4.6830   -7.8860    9.6890 C.2   198  ALA198      0.2591
     30  O          4.0770   -8.6170   10.4570 O.2   198  ALA198     -0.2718
     31  CB         4.1510   -5.4960    9.9750 C.3   198  ALA198      0.0304
     32  N          5.9560   -8.0720    9.3520 N.am  199  LYS199     -0.1980
     33  CA         6.7400   -9.1600    9.9130 C.3   199  LYS199      0.1596
     34  C          7.2670   -8.5700   11.2160 C.2   199  LYS199      0.2287
     35  O          8.4030   -8.0860   11.2890 O.2   199  LYS199     -0.2864
     36  CB         7.8860   -9.5210    8.9820 C.3   199  LYS199      0.0298
     37  CG         8.2200  -10.9860    9.0120 C.3   199  LYS199      0.0038
     38  CD         8.8470  -11.4660    7.7140 C.3   199  LYS199      0.0206
     39  CE         8.7570  -12.9870    7.6150 C.3   199  LYS199      0.1093
     40  NZ         7.3960  -13.3310    7.5760 N.3   199  LYS199     -0.1314
     41  N          4.1820  -13.0980   16.5860 N.3   204  TYR204     -0.1241
     42  CA         4.4940  -14.4850   16.9060 C.3   204  TYR204      0.1605
     43  C          4.3660  -14.8550   18.3670 C.2   204  TYR204      0.2264
     44  O          3.8630  -15.9330   18.6930 O.2   204  TYR204     -0.2867
     45  CB         5.8910  -14.8340   16.4040 C.3   204  TYR204      0.0534
     46  CG         5.9700  -14.9680   14.9010 C.ar  204  TYR204     -0.0201
     47  CD1        6.0390  -13.8430   14.0780 C.ar  204  TYR204     -0.0009
     48  CD2        5.9380  -16.2250   14.3010 C.ar  204  TYR204     -0.0009
     49  CE1        6.0700  -13.9710   12.6780 C.ar  204  TYR204      0.0417
     50  CE2        5.9670  -16.3670   12.9100 C.ar  204  TYR204      0.0417
     51  CZ         6.0280  -15.2420   12.1060 C.ar  204  TYR204      0.1957
     52  OH         6.0070  -15.3970   10.7330 O.3   204  TYR204     -0.2866
     53  N         -4.3230  -18.0280    7.2690 N.3   235  GLU235     -0.1245
     54  CA        -3.0130  -18.6430    7.1140 C.3   235  GLU235      0.1567
     55  C         -2.8080  -19.7970    8.0810 C.2   235  GLU235      0.2260
     56  O         -3.6260  -20.0160    8.9680 O.2   235  GLU235     -0.2867
     57  CB        -1.9380  -17.5880    7.3750 C.3   235  GLU235      0.0388
     58  CG        -2.0790  -16.3530    6.5190 C.3   235  GLU235      0.1160
     59  CD        -0.9890  -15.3570    6.8120 C.2   235  GLU235      0.3649
     60  OE1        0.1880  -15.7730    6.8220 O.co2 235  GLU235     -0.2457
     61  OE2       -1.2980  -14.1710    7.0360 O.co2 235  GLU235     -0.2457
     62  N         -0.1450  -20.9460   10.7360 N.3   237  GLY237     -0.1210
     63  CA         1.0320  -20.4800   11.4600 C.3   237  GLY237      0.1956
     64  C          1.5880  -19.2690   10.7330 C.2   237  GLY237      0.2612
     65  O          0.8610  -18.3120   10.4730 O.2   237  GLY237     -0.2717
     66  N          2.8760  -19.3000   10.4030 N.am  238  GLY238     -0.1942
     67  CA         3.4790  -18.1900    9.6740 C.3   238  GLY238      0.2014
     68  C          3.6410  -18.4920    8.1840 C.2   238  GLY238      0.2639
     69  O          4.6570  -18.1510    7.5830 O.2   238  GLY238     -0.2714
     70  N          2.6330  -19.1270    7.5900 N.am  239  MET239     -0.1963
     71  CA         2.6760  -19.4850    6.1740 C.3   239  MET239      0.1736
     72  C          1.3410  -19.2000    5.4930 C.2   239  MET239      0.2616
     73  O          0.2830  -19.2770    6.1170 O.2   239  MET239     -0.2715
     74  CB         3.0120  -20.9790    6.0130 C.3   239  MET239      0.0427
     75  CG         4.4360  -21.3930    6.4150 C.3   239  MET239      0.0599
     76  SD         4.6780  -23.1820    6.5050 S.3   239  MET239     -0.1393
     77  CE         4.9560  -23.5440    4.7550 C.3   239  MET239      0.0692
     78  N          1.3810  -18.8620    4.2120 N.am  240  ASN240     -0.1972
     79  CA         0.1460  -18.6050    3.4880 C.3   240  ASN240      0.1688
     80  C         -0.4700  -19.9410    3.0390 C.2   240  ASN240      0.2292
     81  O          0.2050  -20.9740    3.0280 O.2   240  ASN240     -0.2864
     82  CB         0.4190  -17.6890    2.2900 C.3   240  ASN240      0.1181
     83  CG         0.8530  -16.2890    2.7150 C.2   240  ASN240      0.2629
     84  OD1        2.0090  -15.8980    2.5350 O.2   240  ASN240     -0.2716
     85  ND2       -0.0760  -15.5330    3.2910 N.am  240  ASN240     -0.0877
     86  N         -0.4500  -11.3610    5.8710 N.3   263  LEU263     -0.1245
     87  CA         0.9370  -11.0440    5.5590 C.3   263  LEU263      0.1561
     88  C          1.2480  -11.4030    4.1000 C.2   263  LEU263      0.2260
     89  O          1.1800  -12.5720    3.7190 O.2   263  LEU263     -0.2867
     90  CB         1.8640  -11.8080    6.5060 C.3   263  LEU263      0.0270
     91  CG         3.3200  -11.3370    6.6190 C.3   263  LEU263      0.0019
     92  CD1        4.1170  -11.6800    5.3550 C.3   263  LEU263      0.0001
     93  CD2        3.3190   -9.8380    6.8920 C.3   263  LEU263      0.0001
     94  N          3.0080  -12.7330    1.6630 N.3   265  GLY265     -0.1210
     95  CA         4.1680  -13.5930    1.4930 C.3   265  GLY265      0.1956
     96  C          4.7670  -13.5170    0.0980 C.2   265  GLY265      0.2612
     97  O          4.0390  -13.3990   -0.8790 O.2   265  GLY265     -0.2717
     98  N          6.0910  -13.5760    0.0140 N.am  266  ILE266     -0.1965
     99  CA         6.7690  -13.5340   -1.2720 C.3   266  ILE266      0.1727
    100  C          6.6190  -14.8980   -1.9760 C.2   266  ILE266      0.2617
    101  O          6.4890  -14.9640   -3.1990 O.2   266  ILE266     -0.2715
    102  CB         8.2620  -13.1850   -1.0780 C.3   266  ILE266      0.0290
    103  CG1        8.3790  -11.7690   -0.4960 C.3   266  ILE266      0.0022
    104  CG2        9.0130  -13.2850   -2.3870 C.3   266  ILE266      0.0023
    105  CD1        9.7550  -11.4570    0.0670 C.3   266  ILE266      0.0001
    106  N          6.6240  -15.9820   -1.1970 N.am  267  THR267     -0.1937
    107  CA         6.4560  -17.3120   -1.7830 C.3   267  THR267      0.2028
    108  C          5.0530  -17.3540   -2.4110 C.2   267  THR267      0.2642
    109  O          4.8650  -17.8480   -3.5240 O.2   267  THR267     -0.2714
    110  CB         6.6140  -18.4350   -0.7250 C.3   267  THR267      0.1808
    111  OG1        7.8370  -18.2440    0.0080 O.3   267  THR267     -0.2208
    112  CG2        6.6560  -19.8020   -1.4060 C.3   267  THR267      0.0379
    113  N          4.0790  -16.8170   -1.6880 N.am  268  ARG268     -0.1977
    114  CA         2.6990  -16.7530   -2.1570 C.3   268  ARG268      0.1597
    115  C          2.6000  -15.9880   -3.4870 C.2   268  ARG268      0.2287
    116  O          1.9850  -16.4470   -4.4520 O.2   268  ARG268     -0.2864
    117  CB         1.8500  -16.0460   -1.0960 C.3   268  ARG268      0.0334
    118  CG         0.4790  -15.5990   -1.5520 C.3   268  ARG268      0.0492
    119  CD        -0.2140  -14.7630   -0.4780 C.3   268  ARG268      0.2205
    120  NE        -1.5740  -14.3900   -0.8580 N.pl3 268  ARG268     -0.0865
    121  CZ        -1.8950  -13.4540   -1.7490 C.cat 268  ARG268      0.5346
    122  NH1       -0.9550  -12.7520   -2.3740 N.pl3 268  ARG268      0.1354
    123  NH2       -3.1690  -13.2450   -2.0420 N.pl3 268  ARG268      0.1354
    124  N          2.6010  -22.2570    2.2360 N.3   307  CYS307     -0.1221
    125  CA         3.8570  -21.8250    1.6280 C.3   307  CYS307      0.1808
    126  C          4.5620  -20.7180    2.4260 C.2   307  CYS307      0.2602
    127  O          3.9270  -19.9160    3.1090 O.2   307  CYS307     -0.2717
    128  CB         3.6480  -21.3850    0.1560 C.3   307  CYS307      0.0970
    129  SG         2.6890  -19.8510   -0.1400 S.3   307  CYS307     -0.0800
    130  N          5.8880  -20.7260    2.3420 N.am  308  GLY308     -0.1942
    131  CA         6.7100  -19.7730    3.0540 C.3   308  GLY308      0.2014
    132  C          8.1650  -20.0180    2.6960 C.2   308  GLY308      0.2639
    133  O          8.4990  -21.0540    2.1260 O.2   308  GLY308     -0.2714
    134  N          9.0360  -19.0740    3.0380 N.am  309  THR309     -0.1950
    135  CA        10.4450  -19.2080    2.7110 C.3   309  THR309      0.1897
    136  C         11.1120  -20.4570    3.2600 C.2   309  THR309      0.2313
    137  O         11.7300  -21.1980    2.4990 O.2   309  THR309     -0.2863
    138  CB        11.2390  -17.9860    3.1910 C.3   309  THR309      0.1794
    139  OG1       10.8250  -16.8350    2.4470 O.3   309  THR309     -0.2208
    140  CG2       12.7380  -18.2120    2.9940 C.3   309  THR309      0.0378
@<TRIPOS>BOND
     1   116   115    2
     2   109   108    2
     3   115   114    1
     4   101   100    2
     5   108   107    1
     6   108   113   am
     7   104   102    1
     8   122   121    1
     9   114   113    1
    10   114   117    1
    11   123   121    1
    12   100    99    1
    13   100   106   am
    14   107   106    1
    15   107   110    1
    16   121   120    2
    17   118   117    1
    18   118   119    1
    19   112   110    1
    20    99   102    1
    21    99    98    1
    22   102   103    1
    23    97    96    2
    24   120   119    1
    25   110   111    1
    26   103   105    1
    27   129   128    1
    28    98    96   am
    29    96    95    1
    30   128   125    1
    31    95    94    1
    32   125   124    1
    33   125   126    1
    34     5     6    1
    35   133   132    2
    36    82    83    1
    37    82    79    1
    38   130   126   am
    39   130   131    1
    40   126   127    2
    41   139   138    1
    42   137   136    2
    43    84    83    2
    44   132   134   am
    45   132   131    1
    46   135   134    1
    47   135   138    1
    48   135   136    1
    49    83    85   am
    50     9     6    1
    51     9    10    1
    52     6     7    1
    53   140   138    1
    54    14    13    1
    55    81    80    2
    56    80    79    1
    57    79    78    1
    58    11    10    1
    59    11    12    1
    60    13    12    2
    61    13    15    1
    62    89    88    2
    63     4     3    2
    64    88    87    1
    65    78    72   am
    66     7     8    2
    67     3     2    1
    68    77    76    1
    69    92    91    1
    70    72    73    2
    71    72    71    1
    72    87    86    1
    73    87    90    1
    74    74    71    1
    75    74    75    1
    76     2     1    1
    77    71    70    1
    78    75    76    1
    79    90    91    1
    80    58    59    1
    81    58    57    1
    82    91    93    1
    83    59    60   ar
    84    59    61   ar
    85    54    53    1
    86    54    57    1
    87    54    55    1
    88    40    39    1
    89    69    68    2
    90    70    68   am
    91    39    38    1
    92    38    37    1
    93    55    56    2
    94    68    67    1
    95    27    28    1
    96    36    37    1
    97    36    33    1
    98    28    29    1
    99    28    31    1
   100    26    24    1
   101    32    29   am
   102    32    33    1
   103    67    66    1
   104    29    30    2
   105    33    34    1
   106    24    23    2
   107    24    25    1
   108    23    22    1
   109    66    64   am
   110    65    64    2
   111    64    63    1
   112    52    51    1
   113    62    63    1
   114    22    21    1
   115    34    35    2
   116    51    49   ar
   117    51    50   ar
   118    21    20    1
   119    49    47   ar
   120    50    48   ar
   121    20    17    1
   122    47    46   ar
   123    48    46   ar
   124    17    18    1
   125    17    16    1
   126    18    19    2
   127    46    45    1
   128    45    42    1
   129    41    42    1
   130    42    43    1
   131    43    44    2
