@<TRIPOS>MOLECULE
tmp/3jzdD02.pdb
 106 105 0 0 0
SMALL
GASTEIGER

@<TRIPOS>ATOM
      1  N         -1.4580  136.0850   31.5390 N.3   125  VAL125     -0.1245
      2  CA        -2.7000  136.7010   32.0190 C.3   125  VAL125      0.1561
      3  C         -3.6710  135.6600   32.5410 C.2   125  VAL125      0.2260
      4  O         -3.8300  134.5880   31.9330 O.2   125  VAL125     -0.2867
      5  CB        -3.3830  137.4360   30.8880 C.3   125  VAL125      0.0252
      6  CG1       -4.8190  137.7840   31.2200 C.3   125  VAL125      0.0019
      7  CG2       -2.5990  138.6680   30.5650 C.3   125  VAL125      0.0019
      8  N         -9.1590  140.3070   35.7590 N.3   136  THR136     -0.1203
      9  CA        -7.9700  139.7200   35.1150 C.3   136  THR136      0.1994
     10  C         -6.6700  140.2740   35.7250 C.2   136  THR136      0.2618
     11  O         -6.6900  141.2530   36.4430 O.2   136  THR136     -0.2717
     12  CB        -7.9590  139.9620   33.5900 C.3   136  THR136      0.1784
     13  OG1       -7.9220  141.3670   33.3310 O.3   136  THR136     -0.2211
     14  CG2       -9.1910  139.3510   32.9270 C.3   136  THR136      0.0376
     15  N         -5.5400  139.6380   35.4520 N.am  137  GLY137     -0.1942
     16  CA        -4.2620  140.0990   35.9820 C.3   137  GLY137      0.2014
     17  C         -3.1020  139.4270   35.2720 C.2   137  GLY137      0.2638
     18  O         -3.2920  138.3970   34.6310 O.2   137  GLY137     -0.2714
     19  N         -1.9190  140.0290   35.3420 N.am  138  ARG138     -0.1977
     20  CA        -0.7120  139.4410   34.7710 C.3   138  ARG138      0.1597
     21  C          0.1000  138.9410   35.9320 C.2   138  ARG138      0.2287
     22  O          0.0490  139.5130   37.0000 O.2   138  ARG138     -0.2864
     23  CB         0.1560  140.4350   33.9720 C.3   138  ARG138      0.0334
     24  CG        -0.0840  140.5600   32.4680 C.3   138  ARG138      0.0492
     25  CD         1.0550  141.4060   31.7920 C.3   138  ARG138      0.2205
     26  NE         2.4050  140.8870   32.0930 N.pl3 138  ARG138     -0.0865
     27  CZ         3.2860  140.3440   31.2340 C.cat 138  ARG138      0.5346
     28  NH1        3.0380  140.2560   29.9200 N.pl3 138  ARG138      0.1354
     29  NH2        4.4660  139.9060   31.7070 N.pl3 138  ARG138      0.1354
     30  N          0.2760  144.7170   23.5610 N.3   230  GLY230     -0.1225
     31  CA        -1.0030  145.1290   24.0510 C.3   230  GLY230      0.1811
     32  C         -2.0860  145.0510   23.0110 C.2   230  GLY230      0.2280
     33  O         -1.8690  145.4230   21.8620 O.2   230  GLY230     -0.2866
     34  N         -6.3110  145.9590   21.8970 N.3   231  ALA231     -0.1245
     35  CA        -7.0150  147.2410   21.9200 C.3   231  ALA231      0.1562
     36  C         -8.5580  147.1050   21.7880 C.2   231  ALA231      0.2260
     37  O         -9.1800  146.2910   22.4700 O.2   231  ALA231     -0.2867
     38  CB        -6.4120  148.1780   20.8650 C.3   231  ALA231      0.0290
     39  N        -10.4660  143.5920   21.5700 N.3   234  HIS234     -0.1226
     40  CA       -10.4640  142.7970   22.7880 C.3   234  HIS234      0.1752
     41  C        -11.2460  143.4360   23.9230 C.2   234  HIS234      0.2595
     42  O        -11.8280  142.7280   24.7320 O.2   234  HIS234     -0.2718
     43  CB        -9.0510  142.4360   23.2050 C.3   234  HIS234      0.0759
     44  CG        -8.4080  141.4810   22.2770 C.ar  234  HIS234      0.0818
     45  ND1       -7.9910  141.8420   21.0150 N.ar  234  HIS234     -0.2268
     46  CD2       -8.1130  140.1660   22.4130 C.ar  234  HIS234      0.1154
     47  CE1       -7.4550  140.7910   20.4160 C.ar  234  HIS234      0.1986
     48  NE2       -7.5430  139.7520   21.2300 N.ar  234  HIS234     -0.2212
     49  N        -11.2680  144.7600   23.9910 N.am  235  LYS235     -0.1980
     50  CA       -12.0940  145.4140   24.9950 C.3   235  LYS235      0.1596
     51  C        -13.5800  145.1660   24.6720 C.2   235  LYS235      0.2287
     52  O        -14.3470  144.7930   25.5630 O.2   235  LYS235     -0.2864
     53  CB       -11.7730  146.9150   25.1410 C.3   235  LYS235      0.0298
     54  CG       -12.6390  147.6950   26.1590 C.3   235  LYS235      0.0038
     55  CD       -12.2030  147.4170   27.5930 C.3   235  LYS235      0.0206
     56  CE       -12.9810  148.1560   28.6590 C.3   235  LYS235      0.1093
     57  NZ       -14.3450  147.6630   28.8000 N.3   235  LYS235     -0.1314
     58  N        -14.5440  141.6700   25.6390 N.3   238  HIS238     -0.1241
     59  CA       -14.6110  141.4910   27.0870 C.3   238  HIS238      0.1621
     60  C        -15.9190  142.0660   27.6190 C.2   238  HIS238      0.2264
     61  O        -16.5430  141.4640   28.4810 O.2   238  HIS238     -0.2867
     62  CB       -13.4070  142.1500   27.7710 C.3   238  HIS238      0.0745
     63  CG       -13.3980  141.9910   29.2580 C.ar  238  HIS238      0.0817
     64  ND1      -13.9520  142.9260   30.1110 N.ar  238  HIS238     -0.2268
     65  CD2      -12.8840  141.0210   30.0470 C.ar  238  HIS238      0.1154
     66  CE1      -13.7930  142.5270   31.3610 C.ar  238  HIS238      0.1986
     67  NE2      -13.1530  141.3720   31.3480 N.ar  238  HIS238     -0.2212
     68  N        -13.7120  152.8470   30.5300 N.3   320  SER320     -0.1203
     69  CA       -12.3400  152.7900   30.9440 C.3   320  SER320      0.2005
     70  C        -11.4020  153.0720   29.7670 C.2   320  SER320      0.2461
     71  O        -11.6320  152.5610   28.6740 O.2   320  SER320     -0.2732
     72  CB       -12.1000  151.3830   31.4650 C.3   320  SER320      0.2103
     73  OG       -10.7940  151.2660   31.9630 O.3   320  SER320     -0.2182
     74  N        -10.3290  153.8580   30.0010 N.am  321  PRO321     -0.2717
     75  CA        -9.4610  154.2600   28.9130 C.3   321  PRO321      0.1535
     76  C         -8.3100  153.2760   28.6640 C.2   321  PRO321      0.2599
     77  O         -7.8360  152.6030   29.5960 O.2   321  PRO321     -0.2715
     78  CB        -8.9000  155.5930   29.3950 C.3   321  PRO321      0.0310
     79  CG        -8.8810  155.5130   30.9370 C.3   321  PRO321      0.0237
     80  CD        -9.9430  154.4870   31.2910 C.3   321  PRO321      0.0939
     81  N         -7.8850  153.2070   27.4090 N.am  322  TYR322     -0.1960
     82  CA        -6.7420  152.4240   26.9910 C.3   322  TYR322      0.1771
     83  C         -6.3730  152.9320   25.5900 C.2   322  TYR322      0.2619
     84  O         -7.1990  153.5340   24.8980 O.2   322  TYR322     -0.2715
     85  CB        -7.0960  150.9460   26.9430 C.3   322  TYR322      0.0574
     86  CG        -8.2360  150.6700   26.0120 C.ar  322  TYR322     -0.0198
     87  CD1       -8.0040  150.3760   24.6870 C.ar  322  TYR322     -0.0009
     88  CD2       -9.5380  150.7420   26.4520 C.ar  322  TYR322     -0.0009
     89  CE1       -9.0520  150.1290   23.8350 C.ar  322  TYR322      0.0417
     90  CE2      -10.6000  150.5190   25.6130 C.ar  322  TYR322      0.0417
     91  CZ       -10.3530  150.2120   24.3070 C.ar  322  TYR322      0.1957
     92  OH       -11.3820  149.9920   23.4600 O.3   322  TYR322     -0.2866
     93  N         -5.1420  152.7070   25.1830 N.am  323  TRP323     -0.1974
     94  CA        -4.7080  153.1400   23.8760 C.3   323  TRP323      0.1640
     95  C         -5.3240  152.3470   22.7430 C.2   323  TRP323      0.2290
     96  O         -5.3970  151.0940   22.7530 O.2   323  TRP323     -0.2864
     97  CB        -3.1910  153.1040   23.7890 C.3   323  TRP323      0.0576
     98  CG        -2.7260  153.7660   22.5840 C.ar  323  TRP323      0.0006
     99  CD1       -2.4350  155.0890   22.4340 C.ar  323  TRP323      0.0946
    100  CD2       -2.5290  153.1620   21.3350 C.ar  323  TRP323      0.0152
    101  NE1       -2.0620  155.3390   21.1600 N.ar  323  TRP323     -0.2442
    102  CE2       -2.0910  154.1620   20.4610 C.ar  323  TRP323      0.0810
    103  CE3       -2.6430  151.8480   20.8710 C.ar  323  TRP323      0.0012
    104  CZ2       -1.7750  153.9070   19.1390 C.ar  323  TRP323      0.0191
    105  CZ3       -2.3480  151.5920   19.5660 C.ar  323  TRP323      0.0001
    106  CH2       -1.8970  152.6160   18.7040 C.ar  323  TRP323      0.0015
@<TRIPOS>BOND
     1   106   104   ar
     2   106   105   ar
     3   104   102   ar
     4   105   103   ar
     5    47    45   ar
     6    47    48   ar
     7   102   101   ar
     8   102   100   ar
     9    38    35    1
    10   103   100   ar
    11    45    44   ar
    12   101    99   ar
    13    48    46   ar
    14   100    98   ar
    15    39    40    1
    16    36    35    1
    17    36    37    2
    18    33    32    2
    19    34    35    1
    20    44    46   ar
    21    44    43    1
    22    99    98   ar
    23    98    97    1
    24    95    96    2
    25    95    94    1
    26    40    43    1
    27    40    41    1
    28    32    31    1
    29    92    91    1
    30    30    31    1
    31    97    94    1
    32    89    91   ar
    33    89    87   ar
    34    94    93    1
    35    41    49   am
    36    41    42    2
    37    49    50    1
    38    91    90   ar
    39    51    50    1
    40    51    52    2
    41    87    86   ar
    42    84    83    2
    43    50    53    1
    44    53    54    1
    45    93    83   am
    46    83    82    1
    47    90    88   ar
    48    58    59    1
    49    86    88   ar
    50    86    85    1
    51    54    55    1
    52    85    82    1
    53    82    81    1
    54    59    60    1
    55    59    62    1
    56    81    76   am
    57    55    56    1
    58    60    61    2
    59    62    63    1
    60    56    57    1
    61    76    75    1
    62    76    77    2
    63    71    70    2
    64    75    78    1
    65    75    74    1
    66    63    65   ar
    67    63    64   ar
    68    78    79    1
    69    70    74   am
    70    70    69    1
    71    28    27    1
    72    74    80    1
    73    65    67   ar
    74    64    66   ar
    75    68    69    1
    76     7     5    1
    77     5     6    1
    78     5     2    1
    79    79    80    1
    80    69    72    1
    81    27    29    1
    82    27    26    2
    83    67    66   ar
    84    72    73    1
    85     1     2    1
    86    25    26    1
    87    25    24    1
    88     4     3    2
    89     2     3    1
    90    24    23    1
    91    14    12    1
    92    13    12    1
    93    12     9    1
    94    23    20    1
    95    18    17    2
    96    20    19    1
    97    20    21    1
    98     9    10    1
    99     9     8    1
   100    17    19   am
   101    17    16    1
   102    15    10   am
   103    15    16    1
   104    10    11    2
   105    21    22    2
