@<TRIPOS>MOLECULE
tmp/3jzeD00.pdb
 88 87 0 0 0
SMALL
GASTEIGER

@<TRIPOS>ATOM
      1  N         17.4510  -16.3500   56.0350 N.3    89  PHE89      -0.1241
      2  CA        17.8400  -15.5370   54.9040 C.3    89  PHE89       0.1605
      3  C         18.4900  -16.3720   53.7870 C.2    89  PHE89       0.2264
      4  O         18.1380  -16.2130   52.6220 O.2    89  PHE89      -0.2867
      5  CB        18.7710  -14.4130   55.3530 C.3    89  PHE89       0.0534
      6  CG        19.1660  -13.4900   54.2470 C.ar   89  PHE89      -0.0203
      7  CD1       18.2540  -12.5870   53.7390 C.ar   89  PHE89      -0.0042
      8  CD2       20.4360  -13.5230   53.7170 C.ar   89  PHE89      -0.0042
      9  CE1       18.6030  -11.7330   52.7060 C.ar   89  PHE89      -0.0003
     10  CE2       20.7960  -12.6580   52.6960 C.ar   89  PHE89      -0.0003
     11  CZ        19.8790  -11.7730   52.1860 C.ar   89  PHE89      -0.0000
     12  N         25.6630   -9.9210   55.6860 N.3   127  LEU127     -0.1231
     13  CA        24.9500  -10.7560   54.7150 C.3   127  LEU127      0.1693
     14  C         24.1560  -10.0040   53.6680 C.2   127  LEU127      0.2592
     15  O         23.7220  -10.5850   52.6600 O.2   127  LEU127     -0.2718
     16  CB        24.0170  -11.6840   55.4740 C.3   127  LEU127      0.0284
     17  CG        24.6930  -12.6550   56.4460 C.3   127  LEU127      0.0019
     18  CD1       23.6370  -13.3370   57.3020 C.3   127  LEU127      0.0001
     19  CD2       25.5730  -13.6520   55.6990 C.3   127  LEU127      0.0001
     20  N         23.9360   -8.7300   53.9090 N.am  128  GLY128     -0.1957
     21  CA        23.1500   -7.9110   53.0040 C.3   128  GLY128      0.1869
     22  C         21.6450   -7.9970   53.2900 C.2   128  GLY128      0.2309
     23  O         20.8260   -7.8060   52.3770 O.2   128  GLY128     -0.2863
     24  N         21.7170   -1.8640   54.7900 N.3   167  LYS167     -0.1245
     25  CA        20.6140   -1.2940   54.0470 C.3   167  LYS167      0.1561
     26  C         19.5080   -1.0630   55.0510 C.2   167  LYS167      0.2260
     27  O         19.1780   -1.9470   55.8330 O.2   167  LYS167     -0.2867
     28  CB        20.1000   -2.2290   52.9450 C.3   167  LYS167      0.0271
     29  CG        20.9810   -2.4360   51.7270 C.3   167  LYS167      0.0035
     30  CD        20.1670   -3.3460   50.7650 C.3   167  LYS167      0.0206
     31  CE        20.8320   -3.6330   49.4820 C.3   167  LYS167      0.1093
     32  NZ        19.9150   -4.4260   48.5820 N.3   167  LYS167     -0.1314
     33  N         22.9980    5.9030   49.5030 N.3   187  ASP187     -0.1225
     34  CA        22.2930    4.8360   48.7810 C.3   187  ASP187      0.1805
     35  C         21.8530    3.6420   49.6350 C.2   187  ASP187      0.2597
     36  O         21.0970    2.7730   49.1430 O.2   187  ASP187     -0.2718
     37  CB        23.1410    4.3720   47.6030 C.3   187  ASP187      0.1424
     38  CG        23.2460    5.4230   46.4990 C.2   187  ASP187      0.3668
     39  OD1       22.4350    6.3770   46.4880 O.co2 187  ASP187     -0.2456
     40  OD2       24.1270    5.2710   45.6300 O.co2 187  ASP187     -0.2456
     41  N         22.2920    3.6030   50.8970 N.am  188  TYR188     -0.1976
     42  CA        21.9170    2.5260   51.8120 C.3   188  TYR188      0.1639
     43  C         20.6580    2.8580   52.6190 C.2   188  TYR188      0.2290
     44  O         20.2840    2.0850   53.5020 O.2   188  TYR188     -0.2864
     45  CB        23.0300    2.2090   52.7960 C.3   188  TYR188      0.0560
     46  CG        24.2330    1.5640   52.1950 C.ar  188  TYR188     -0.0198
     47  CD1       24.3360    0.1700   52.1290 C.ar  188  TYR188     -0.0009
     48  CD2       25.2740    2.3280   51.6870 C.ar  188  TYR188     -0.0009
     49  CE1       25.4380   -0.4380   51.5680 C.ar  188  TYR188      0.0417
     50  CE2       26.3940    1.7230   51.1280 C.ar  188  TYR188      0.0417
     51  CZ        26.4680    0.3450   51.0790 C.ar  188  TYR188      0.1957
     52  OH        27.5610   -0.2600   50.5240 O.3   188  TYR188     -0.2866
     53  N         14.4780   -2.1310   43.1440 N.3   296  GLN296     -0.1231
     54  CA        15.8690   -1.6790   42.9950 C.3   296  GLN296      0.1698
     55  C         16.6080   -1.6500   44.3210 C.2   296  GLN296      0.2592
     56  O         17.7430   -2.1080   44.4110 O.2   296  GLN296     -0.2718
     57  CB        15.8970   -0.3060   42.3520 C.3   296  GLN296      0.0381
     58  CG        17.2470    0.3350   42.2420 C.3   296  GLN296      0.0905
     59  CD        17.1690    1.6300   41.4530 C.2   296  GLN296      0.2608
     60  OE1       16.7580    1.6300   40.2900 O.2   296  GLN296     -0.2717
     61  NE2       17.5800    2.7350   42.0700 N.am  296  GLN296     -0.0878
     62  N         15.9760   -1.0960   45.3430 N.am  297  PHE297     -0.1962
     63  CA        16.6150   -1.0040   46.6450 C.3   297  PHE297      0.1771
     64  C         16.8410   -2.4030   47.2420 C.2   297  PHE297      0.2620
     65  O         17.8900   -2.6760   47.7990 O.2   297  PHE297     -0.2715
     66  CB        15.8070   -0.1460   47.6020 C.3   297  PHE297      0.0574
     67  CG        16.5080    0.1140   48.8870 C.ar  297  PHE297     -0.0200
     68  CD1       17.4760    1.1020   48.9630 C.ar  297  PHE297     -0.0042
     69  CD2       16.2350   -0.6660   50.0200 C.ar  297  PHE297     -0.0042
     70  CE1       18.1590    1.3360   50.1620 C.ar  297  PHE297     -0.0003
     71  CE2       16.8990   -0.4400   51.1990 C.ar  297  PHE297     -0.0003
     72  CZ        17.8570    0.5570   51.2840 C.ar  297  PHE297     -0.0000
     73  N         15.8710   -3.2880   47.0820 N.am  298  TYR298     -0.1960
     74  CA        15.9720   -4.6550   47.6180 C.3   298  TYR298      0.1771
     75  C         16.7830   -5.5820   46.7520 C.2   298  TYR298      0.2620
     76  O         17.0730   -6.7000   47.1550 O.2   298  TYR298     -0.2715
     77  CB        14.5800   -5.2710   47.8330 C.3   298  TYR298      0.0574
     78  CG        13.8560   -4.9030   49.1280 C.ar  298  TYR298     -0.0198
     79  CD1       13.8600   -5.7800   50.2010 C.ar  298  TYR298     -0.0009
     80  CD2       13.1120   -3.7230   49.2530 C.ar  298  TYR298     -0.0009
     81  CE1       13.1750   -5.4880   51.3860 C.ar  298  TYR298      0.0417
     82  CE2       12.4350   -3.4130   50.4300 C.ar  298  TYR298      0.0417
     83  CZ        12.4660   -4.2980   51.4940 C.ar  298  TYR298      0.1957
     84  OH        11.7800   -4.0370   52.6640 O.3   298  TYR298     -0.2866
     85  N         17.1300   -5.1420   45.5460 N.am  299  GLY299     -0.1954
     86  CA        17.9180   -5.9600   44.6450 C.3   299  GLY299      0.1869
     87  C         17.0990   -7.0610   44.0090 C.2   299  GLY299      0.2309
     88  O         17.6360   -8.1000   43.6740 O.2   299  GLY299     -0.2863
@<TRIPOS>BOND
     1    60    59    2
     2    59    61   am
     3    59    58    1
     4    58    57    1
     5    57    54    1
     6    54    53    1
     7    54    55    1
     8    88    87    2
     9    87    86    1
    10    55    56    2
    11    55    62   am
    12    86    85    1
    13    62    63    1
    14    85    75   am
    15    40    38   ar
    16    39    38   ar
    17    38    37    1
    18    63    64    1
    19    63    66    1
    20    75    76    2
    21    75    74    1
    22    73    64   am
    23    73    74    1
    24    64    65    2
    25    66    67    1
    26    37    34    1
    27    74    77    1
    28    77    78    1
    29    32    31    1
    30    34    33    1
    31    34    35    1
    32    67    68   ar
    33    67    69   ar
    34    68    70   ar
    35    78    80   ar
    36    78    79   ar
    37    36    35    2
    38    80    82   ar
    39    31    30    1
    40    35    41   am
    41    69    71   ar
    42    70    72   ar
    43    79    81   ar
    44    82    83   ar
    45    52    51    1
    46    30    29    1
    47    41    42    1
    48    51    50   ar
    49    51    49   ar
    50    50    48   ar
    51    71    72   ar
    52    81    83   ar
    53    83    84    1
    54    49    47   ar
    55    48    46   ar
    56    29    28    1
    57    42    43    1
    58    42    45    1
    59    47    46   ar
    60    11    10   ar
    61    11     9   ar
    62    46    45    1
    63    23    22    2
    64    43    44    2
    65     4     3    2
    66    15    14    2
    67    10     8   ar
    68     9     7   ar
    69    28    25    1
    70    21    22    1
    71    21    20    1
    72    14    20   am
    73    14    13    1
    74     8     6   ar
    75     7     6   ar
    76     3     2    1
    77    25    24    1
    78    25    26    1
    79     6     5    1
    80    13    16    1
    81    13    12    1
    82     2     5    1
    83     2     1    1
    84    26    27    2
    85    16    17    1
    86    19    17    1
    87    17    18    1
