@<TRIPOS>MOLECULE
tmp/3jzfB00.pdb
 214 203 0 0 0
SMALL
GASTEIGER

@<TRIPOS>ATOM
      1  N         30.0760  -32.4940   44.8240 N.3   118  LYS118     -0.1245
      2  CA        30.9480  -32.4550   43.6480 C.3   118  LYS118      0.1561
      3  C         31.7040  -33.7300   43.3100 C.2   118  LYS118      0.2260
      4  O         31.8170  -34.0500   42.1260 O.2   118  LYS118     -0.2867
      5  CB        31.8450  -31.1930   43.6300 C.3   118  LYS118      0.0271
      6  CG        31.0970  -29.8690   43.9060 C.3   118  LYS118      0.0035
      7  CD        29.9750  -29.5580   42.9020 C.3   118  LYS118      0.0206
      8  CE        28.8610  -28.7490   43.5380 C.3   118  LYS118      0.1093
      9  NZ        27.7260  -28.5190   42.6060 N.3   118  LYS118     -0.1314
     10  N         37.1330  -33.4810   33.9800 N.3   133  VAL133     -0.1245
     11  CA        38.5140  -33.0050   34.1000 C.3   133  VAL133      0.1561
     12  C         39.3310  -34.1700   34.7210 C.2   133  VAL133      0.2260
     13  O         38.8870  -34.7200   35.7350 O.2   133  VAL133     -0.2867
     14  CB        38.6460  -31.7400   34.9950 C.3   133  VAL133      0.0252
     15  CG1       40.0460  -31.1340   34.9020 C.3   133  VAL133      0.0019
     16  CG2       37.5730  -30.6910   34.6960 C.3   133  VAL133      0.0019
     17  N         44.4400  -28.2690   40.8860 N.3   159  ILE159     -0.1245
     18  CA        43.5770  -27.4570   41.7330 C.3   159  ILE159      0.1561
     19  C         42.9420  -28.3460   42.8100 C.2   159  ILE159      0.2260
     20  O         42.4810  -29.4520   42.5100 O.2   159  ILE159     -0.2867
     21  CB        42.5500  -26.6320   40.8860 C.3   159  ILE159      0.0252
     22  CG1       41.7950  -25.5880   41.7410 C.3   159  ILE159      0.0019
     23  CG2       41.6000  -27.5110   40.0710 C.3   159  ILE159      0.0019
     24  CD1       41.1220  -24.4350   40.9220 C.3   159  ILE159      0.0001
     25  N         39.8990  -28.7700   45.3600 N.3   161  LYS161     -0.1231
     26  CA        38.5190  -28.2750   45.3700 C.3   161  LYS161      0.1693
     27  C         37.6760  -28.9440   46.4320 C.2   161  LYS161      0.2591
     28  O         37.8090  -30.1400   46.6590 O.2   161  LYS161     -0.2718
     29  CB        37.8750  -28.4990   43.9960 C.3   161  LYS161      0.0285
     30  CG        38.5970  -27.8140   42.8220 C.3   161  LYS161      0.0035
     31  CD        38.0430  -28.2550   41.4760 C.3   161  LYS161      0.0206
     32  CE        36.7280  -27.5840   41.1310 C.3   161  LYS161      0.1093
     33  NZ        36.2160  -27.9950   39.7920 N.3   161  LYS161     -0.1314
     34  N         36.7990  -28.1640   47.0750 N.am  162  ALA162     -0.1980
     35  CA        35.8910  -28.6380   48.1150 C.3   162  ALA162      0.1597
     36  C         34.6960  -29.3530   47.4850 C.2   162  ALA162      0.2287
     37  O         34.0530  -28.8120   46.5800 O.2   162  ALA162     -0.2864
     38  CB        35.4190  -27.4670   48.9710 C.3   162  ALA162      0.0319
     39  N         31.7640  -27.4210   47.9460 N.3   165  GLY165     -0.1210
     40  CA        31.9390  -26.1290   47.2860 C.3   165  GLY165      0.1956
     41  C         31.1650  -26.0160   45.9890 C.2   165  GLY165      0.2612
     42  O         30.1890  -26.7410   45.7770 O.2   165  GLY165     -0.2717
     43  N         31.5970  -25.1020   45.1300 N.am  166  GLY166     -0.1942
     44  CA        30.9530  -24.8580   43.8430 C.3   166  GLY166      0.2014
     45  C         31.0230  -23.4090   43.4120 C.2   166  GLY166      0.2639
     46  O         31.2540  -22.5260   44.2460 O.2   166  GLY166     -0.2714
     47  N         30.8370  -23.1820   42.1090 N.am  167  GLY167     -0.1939
     48  CA        30.8850  -21.8660   41.4710 C.3   167  GLY167      0.2014
     49  C         32.1080  -21.0230   41.7920 C.2   167  GLY167      0.2639
     50  O         31.9810  -19.8310   42.0800 O.2   167  GLY167     -0.2714
     51  N         33.2850  -21.6400   41.7650 N.am  168  GLY168     -0.1939
     52  CA        34.5350  -20.9510   42.0760 C.3   168  GLY168      0.2014
     53  C         34.8000  -20.7100   43.5560 C.2   168  GLY168      0.2639
     54  O         35.8240  -20.1220   43.9020 O.2   168  GLY168     -0.2714
     55  N         33.8890  -21.1530   44.4440 N.am  169  ARG169     -0.1963
     56  CA        34.0610  -21.0350   45.8940 C.3   169  ARG169      0.1729
     57  C         34.5700  -22.3750   46.4540 C.2   169  ARG169      0.2617
     58  O         33.9720  -23.4200   46.1970 O.2   169  ARG169     -0.2715
     59  CB        32.7520  -20.6140   46.5810 C.3   169  ARG169      0.0348
     60  CG        32.1750  -19.2730   46.1770 C.3   169  ARG169      0.0492
     61  CD        33.1400  -18.1640   46.6580 C.3   169  ARG169      0.2205
     62  NE        32.5920  -16.8410   46.3440 N.pl3 169  ARG169     -0.0865
     63  CZ        32.6840  -16.2900   45.1330 C.cat 169  ARG169      0.5346
     64  NH1       33.2990  -16.9270   44.1170 N.pl3 169  ARG169      0.1354
     65  NH2       32.1280  -15.0910   44.9280 N.pl3 169  ARG169      0.1354
     66  N         35.6800  -22.3250   47.1850 N.am  170  GLY170     -0.1940
     67  CA        36.2960  -23.4940   47.8070 C.3   170  GLY170      0.2014
     68  C         37.3040  -24.1960   46.9220 C.2   170  GLY170      0.2638
     69  O         37.1870  -25.4040   46.6870 O.2   170  GLY170     -0.2714
     70  N         38.2990  -23.4360   46.4130 N.am  171  MET171     -0.1976
     71  CA        39.3380  -23.9870   45.5310 C.3   171  MET171      0.1605
     72  C         40.6870  -23.2770   45.6280 C.2   171  MET171      0.2287
     73  O         40.7380  -22.1190   46.0430 O.2   171  MET171     -0.2864
     74  CB        38.8530  -24.1320   44.0760 C.3   171  MET171      0.0413
     75  CG        38.5370  -22.8320   43.4060 C.3   171  MET171      0.0598
     76  SD        37.6850  -23.1700   41.8640 S.3   171  MET171     -0.1393
     77  CE        38.1460  -21.6950   40.9520 C.3   171  MET171      0.0692
     78  N         38.9210  -32.7810   46.7220 N.3   201  TYR201     -0.1241
     79  CA        39.3690  -33.6040   45.6000 C.3   201  TYR201      0.1605
     80  C         40.3850  -32.8190   44.7940 C.2   201  TYR201      0.2264
     81  O         40.5530  -31.6200   45.0110 O.2   201  TYR201     -0.2867
     82  CB        38.2090  -34.1070   44.7200 C.3   201  TYR201      0.0534
     83  CG        37.3700  -33.0370   44.0530 C.ar  201  TYR201     -0.0201
     84  CD1       37.4820  -32.7840   42.6870 C.ar  201  TYR201     -0.0009
     85  CD2       36.3750  -32.3650   44.7580 C.ar  201  TYR201     -0.0009
     86  CE1       36.6600  -31.8440   42.0530 C.ar  201  TYR201      0.0417
     87  CE2       35.5520  -31.4280   44.1380 C.ar  201  TYR201      0.0417
     88  CZ        35.6850  -31.1840   42.7820 C.ar  201  TYR201      0.1957
     89  OH        34.8660  -30.2530   42.1900 O.3   201  TYR201     -0.2866
     90  N         41.9750  -31.8690   40.8850 N.3   203  GLU203     -0.1231
     91  CA        41.6330  -31.7630   39.4770 C.3   203  GLU203      0.1699
     92  C         42.7880  -31.1480   38.7260 C.2   203  GLU203      0.2592
     93  O         43.5190  -30.3380   39.2960 O.2   203  GLU203     -0.2718
     94  CB        40.3980  -30.8570   39.3150 C.3   203  GLU203      0.0402
     95  CG        39.3050  -31.5080   38.5170 C.3   203  GLU203      0.1161
     96  CD        37.9800  -30.7810   38.4740 C.2   203  GLU203      0.3649
     97  OE1       36.9410  -31.4680   38.5740 O.co2 203  GLU203     -0.2457
     98  OE2       37.9720  -29.5380   38.3380 O.co2 203  GLU203     -0.2457
     99  N         42.9210  -31.4820   37.4380 N.am  204  LYS204     -0.1966
    100  CA        43.9190  -30.8720   36.5690 C.3   204  LYS204      0.1728
    101  C         43.5180  -29.4040   36.4160 C.2   204  LYS204      0.2616
    102  O         42.3300  -29.1170   36.2470 O.2   204  LYS204     -0.2715
    103  CB        43.9260  -31.5690   35.1900 C.3   204  LYS204      0.0311
    104  CG        45.0030  -31.0420   34.2440 C.3   204  LYS204      0.0038
    105  CD        45.6640  -32.1550   33.4560 C.3   204  LYS204      0.0206
    106  CE        46.8180  -31.6550   32.6240 C.3   204  LYS204      0.1093
    107  NZ        48.0760  -31.5490   33.4130 N.3   204  LYS204     -0.1314
    108  N         44.4810  -28.4770   36.5310 N.am  205  TYR205     -0.1960
    109  CA        44.1660  -27.0590   36.3690 C.3   205  TYR205      0.1771
    110  C         44.3700  -26.6430   34.9080 C.2   205  TYR205      0.2619
    111  O         45.4670  -26.7930   34.3660 O.2   205  TYR205     -0.2715
    112  CB        44.9730  -26.1790   37.3380 C.3   205  TYR205      0.0574
    113  CG        44.6420  -24.7010   37.2410 C.ar  205  TYR205     -0.0198
    114  CD1       45.5710  -23.7890   36.7480 C.ar  205  TYR205     -0.0009
    115  CD2       43.3810  -24.2220   37.5980 C.ar  205  TYR205     -0.0009
    116  CE1       45.2600  -22.4330   36.6240 C.ar  205  TYR205      0.0417
    117  CE2       43.0570  -22.8720   37.4730 C.ar  205  TYR205      0.0417
    118  CZ        44.0100  -21.9760   37.0120 C.ar  205  TYR205      0.1957
    119  OH        43.7000  -20.6430   36.9170 O.3   205  TYR205     -0.2866
    120  N         43.3000  -26.1610   34.2670 N.am  206  LEU206     -0.1977
    121  CA        43.3270  -25.6980   32.8790 C.3   206  LEU206      0.1596
    122  C         43.6530  -24.2120   32.8850 C.2   206  LEU206      0.2287
    123  O         42.9680  -23.4210   33.5340 O.2   206  LEU206     -0.2864
    124  CB        41.9790  -25.9800   32.1880 C.3   206  LEU206      0.0297
    125  CG        41.5410  -27.4490   32.1090 C.3   206  LEU206      0.0022
    126  CD1       40.2030  -27.5690   31.4290 C.3   206  LEU206      0.0001
    127  CD2       42.5730  -28.3130   31.3790 C.3   206  LEU206      0.0001
    128  N         40.8520  -21.7250   29.8210 N.3   209  PRO209     -0.2116
    129  CA        39.5890  -22.2640   29.2970 C.3   209  PRO209      0.1372
    130  C         38.5150  -21.2060   29.0640 C.2   209  PRO209      0.2244
    131  O         38.6140  -20.0880   29.5620 O.2   209  PRO209     -0.2868
    132  CB        39.1380  -23.2070   30.4170 C.3   209  PRO209      0.0268
    133  CG        39.5990  -22.5310   31.6670 C.3   209  PRO209      0.0207
    134  CD        40.9000  -21.8210   31.3010 C.3   209  PRO209      0.0892
    135  N         34.2140  -20.8670   29.5880 N.3   211  HIS211     -0.1241
    136  CA        33.1500  -21.4580   30.3880 C.3   211  HIS211      0.1621
    137  C         31.9620  -21.6380   29.4400 C.2   211  HIS211      0.2264
    138  O         31.3290  -20.6580   29.0370 O.2   211  HIS211     -0.2867
    139  CB        32.8360  -20.5530   31.5940 C.3   211  HIS211      0.0745
    140  CG        31.8920  -21.1090   32.6260 C.ar  211  HIS211      0.0817
    141  ND1       31.5310  -20.3590   33.7360 N.ar  211  HIS211     -0.2268
    142  CD2       31.2530  -22.3010   32.6880 C.ar  211  HIS211      0.1154
    143  CE1       30.6850  -21.1090   34.4240 C.ar  211  HIS211      0.1986
    144  NE2       30.4860  -22.2850   33.8350 N.ar  211  HIS211     -0.2212
    145  N         33.5710  -12.8810   32.6810 N.3   235  GLN235     -0.1245
    146  CA        33.3130  -12.8700   34.1110 C.3   235  GLN235      0.1566
    147  C         34.4170  -12.1690   34.8970 C.2   235  GLN235      0.2260
    148  O         35.5370  -12.0490   34.4090 O.2   235  GLN235     -0.2867
    149  CB        33.0900  -14.3190   34.6260 C.3   235  GLN235      0.0367
    150  CG        34.3080  -15.2490   34.5390 C.3   235  GLN235      0.0905
    151  CD        35.2180  -15.1950   35.7480 C.2   235  GLN235      0.2608
    152  OE1       34.7820  -14.9750   36.8750 O.2   235  GLN235     -0.2717
    153  NE2       36.5120  -15.4110   35.5440 N.am  235  GLN235     -0.0878
    154  N         34.5970  -14.7400   39.6080 N.3   238  HIS238     -0.1241
    155  CA        33.5300  -15.7510   39.5980 C.3   238  HIS238      0.1621
    156  C         32.1080  -15.2420   39.3840 C.2   238  HIS238      0.2264
    157  O         31.1730  -16.0450   39.4250 O.2   238  HIS238     -0.2867
    158  CB        33.6670  -16.7910   40.7290 C.3   238  HIS238      0.0745
    159  CG        35.0480  -17.3600   40.8140 C.ar  238  HIS238      0.0817
    160  ND1       35.8300  -17.1880   41.9410 N.ar  238  HIS238     -0.2268
    161  CD2       35.7710  -18.0120   39.8740 C.ar  238  HIS238      0.1154
    162  CE1       36.9860  -17.7660   41.6620 C.ar  238  HIS238      0.1986
    163  NE2       36.9970  -18.2710   40.4270 N.ar  238  HIS238     -0.2212
    164  N         29.5770  -13.7330   36.6030 N.3   240  LYS240     -0.1245
    165  CA        29.2770  -13.5800   35.1670 C.3   240  LYS240      0.1561
    166  C         28.7930  -12.1490   34.9010 C.2   240  LYS240      0.2260
    167  O         28.0890  -11.5770   35.7310 O.2   240  LYS240     -0.2867
    168  CB        28.2330  -14.6020   34.7140 C.3   240  LYS240      0.0271
    169  CG        28.7730  -16.0230   34.7090 C.3   240  LYS240      0.0035
    170  CD        27.6730  -17.0560   34.6050 C.3   240  LYS240      0.0206
    171  CE        28.2040  -18.4210   34.9790 C.3   240  LYS240      0.1093
    172  NZ        27.2170  -19.4950   34.7080 N.3   240  LYS240     -0.1314
    173  N         27.6970  -27.5490   33.4140 N.3   278  GLU278     -0.1245
    174  CA        28.7710  -26.5670   33.2460 C.3   278  GLU278      0.1567
    175  C         30.0850  -27.2500   32.8860 C.2   278  GLU278      0.2260
    176  O         30.4990  -28.2060   33.5530 O.2   278  GLU278     -0.2867
    177  CB        28.9500  -25.7130   34.5130 C.3   278  GLU278      0.0388
    178  CG        27.7730  -24.8060   34.8400 C.3   278  GLU278      0.1160
    179  CD        28.0370  -23.8660   36.0020 C.2   278  GLU278      0.3649
    180  OE1       29.1650  -23.3300   36.0900 O.co2 278  GLU278     -0.2457
    181  OE2       27.1280  -23.6890   36.8430 O.co2 278  GLU278     -0.2457
    182  N         34.3100  -26.6170   31.2180 N.3   280  LEU280     -0.1245
    183  CA        35.4260  -25.7800   30.8480 C.3   280  LEU280      0.1561
    184  C         35.7360  -26.2790   29.4470 C.2   280  LEU280      0.2260
    185  O         35.6880  -27.4860   29.1890 O.2   280  LEU280     -0.2867
    186  CB        36.6290  -25.9360   31.7850 C.3   280  LEU280      0.0270
    187  CG        36.4760  -25.3980   33.2140 C.3   280  LEU280      0.0019
    188  CD1       37.7070  -25.7170   34.0210 C.3   280  LEU280      0.0001
    189  CD2       36.2370  -23.8880   33.2350 C.3   280  LEU280      0.0001
    190  N         32.5850  -29.7180   35.0750 N.3   289  ILE289     -0.1231
    191  CA        32.9980  -29.2300   36.3850 C.3   289  ILE289      0.1692
    192  C         31.8770  -29.4030   37.4050 C.2   289  ILE289      0.2591
    193  O         32.1390  -29.8730   38.5110 O.2   289  ILE289     -0.2718
    194  CB        33.6540  -27.8180   36.3970 C.3   289  ILE289      0.0266
    195  CG1       32.7680  -26.7470   35.7280 C.3   289  ILE289      0.0019
    196  CG2       35.0760  -27.8740   35.8030 C.3   289  ILE289      0.0020
    197  CD1       33.2220  -25.2800   35.9340 C.3   289  ILE289      0.0001
    198  N         30.6310  -29.0470   37.0250 N.am  290  GLU290     -0.1979
    199  CA        29.4500  -29.1450   37.8840 C.3   290  GLU290      0.1602
    200  C         28.1190  -28.9840   37.1720 C.2   290  GLU290      0.2287
    201  O         28.0370  -28.4620   36.0600 O.2   290  GLU290     -0.2864
    202  CB        29.5210  -28.2240   39.1140 C.3   290  GLU290      0.0415
    203  CG        29.4100  -26.7380   38.8250 C.3   290  GLU290      0.1163
    204  CD        29.3460  -25.8840   40.0760 C.2   290  GLU290      0.3649
    205  OE1       28.8020  -26.3470   41.1050 O.co2 290  GLU290     -0.2457
    206  OE2       29.8100  -24.7260   40.0130 O.co2 290  GLU290     -0.2457
    207  N         38.0910  -17.2300   30.1590 N.3   439  ILE439     -0.1245
    208  CA        37.5790  -16.8100   31.4790 C.3   439  ILE439      0.1561
    209  C         38.3730  -15.7120   32.1850 C.2   439  ILE439      0.2260
    210  O         37.8050  -14.9960   33.0220 O.2   439  ILE439     -0.2867
    211  CB        37.2700  -18.0070   32.4280 C.3   439  ILE439      0.0252
    212  CG1       38.5720  -18.7280   32.8850 C.3   439  ILE439      0.0019
    213  CG2       36.2540  -18.9790   31.7890 C.3   439  ILE439      0.0019
    214  CD1       38.4510  -19.5260   34.2300 C.3   439  ILE439      0.0001
@<TRIPOS>BOND
     1   138   137    2
     2   130   129    1
     3   130   131    2
     4   185   184    2
     5   129   128    1
     6   129   132    1
     7   137   136    1
     8   184   183    1
     9   135   136    1
    10   128   134    1
    11   207   208    1
    12   136   139    1
    13   132   133    1
    14   183   182    1
    15   183   186    1
    16   134   133    1
    17   127   125    1
    18   126   125    1
    19   208   209    1
    20   208   211    1
    21   139   140    1
    22   186   187    1
    23   213   211    1
    24   125   124    1
    25   209   210    2
    26   124   121    1
    27   211   212    1
    28   106   107    1
    29   106   105    1
    30   140   142   ar
    31   140   141   ar
    32   145   146    1
    33   142   144   ar
    34   121   122    1
    35   121   120    1
    36   212   214    1
    37   122   123    2
    38   175   174    1
    39   175   176    2
    40   187   189    1
    41   187   188    1
    42   174   173    1
    43   174   177    1
    44   105   104    1
    45   141   143   ar
    46   144   143   ar
    47    10    11    1
    48    11    12    1
    49    11    14    1
    50   146   149    1
    51   146   147    1
    52   104   103    1
    53   120   110   am
    54   111   110    2
    55   148   147    2
    56   177   178    1
    57   150   149    1
    58   150   151    1
    59   170   169    1
    60   170   171    1
    61    16    14    1
    62   172   171    1
    63   169   168    1
    64   168   165    1
    65    12    13    2
    66   178   179    1
    67   166   165    1
    68   166   167    2
    69    15    14    1
    70   110   109    1
    71   190   191    1
    72   165   164    1
    73   103   100    1
    74   153   151   am
    75   195   197    1
    76   195   194    1
    77   151   152    2
    78   196   194    1
    79   179   180   ar
    80   179   181   ar
    81   201   200    2
    82   102   101    2
    83   109   108    1
    84   109   112    1
    85   191   194    1
    86   191   192    1
    87   101   108   am
    88   101   100    1
    89   100    99    1
    90   116   114   ar
    91   116   118   ar
    92   114   113   ar
    93   119   118    1
    94   118   117   ar
    95   198   192   am
    96   198   199    1
    97   200   199    1
    98   113   112    1
    99   113   115   ar
   100   192   193    2
   101    99    92   am
   102   117   115   ar
   103   199   202    1
   104    98    96   ar
   105    96    95    1
   106    96    97   ar
   107    95    94    1
   108    92    93    2
   109    92    91    1
   110   203   202    1
   111   203   204    1
   112    94    91    1
   113   156   157    2
   114   156   155    1
   115    91    90    1
   116   155   154    1
   117   155   158    1
   118    33    32    1
   119   161   163   ar
   120   161   159   ar
   121   206   204   ar
   122    23    21    1
   123   204   205   ar
   124   163   162   ar
   125   158   159    1
   126   159   160   ar
   127    21    18    1
   128    21    22    1
   129    17    18    1
   130    24    22    1
   131    77    76    1
   132    32    31    1
   133    48    49    1
   134    48    47    1
   135    31    30    1
   136   162   160   ar
   137    18    19    1
   138    51    49   am
   139    51    52    1
   140    49    50    2
   141    76    75    1
   142    86    84   ar
   143    86    88   ar
   144    52    53    1
   145    47    45   am
   146     4     3    2
   147    89    88    1
   148    20    19    2
   149     9     8    1
   150    84    83   ar
   151    88    87   ar
   152    30    29    1
   153     7     8    1
   154     7     6    1
   155     3     2    1
   156    75    74    1
   157    45    44    1
   158    45    46    2
   159    53    54    2
   160    53    55   am
   161     5     2    1
   162     5     6    1
   163     2     1    1
   164    44    43    1
   165    29    26    1
   166    83    82    1
   167    83    85   ar
   168    74    71    1
   169    64    63    1
   170    87    85   ar
   171    55    56    1
   172    82    79    1
   173    80    81    2
   174    80    79    1
   175    65    63    1
   176    43    41   am
   177    63    62    2
   178    25    26    1
   179    26    27    1
   180    71    72    1
   181    71    70    1
   182    79    78    1
   183    72    73    2
   184    42    41    2
   185    56    57    1
   186    56    59    1
   187    41    40    1
   188    60    59    1
   189    60    61    1
   190    58    57    2
   191    62    61    1
   192    70    68   am
   193    27    28    2
   194    27    34   am
   195    57    66   am
   196    37    36    2
   197    69    68    2
   198    68    67    1
   199    34    35    1
   200    66    67    1
   201    40    39    1
   202    36    35    1
   203    35    38    1
