@<TRIPOS>MOLECULE
tmp/3jzgA00.pdb
 135 131 0 0 0
SMALL
GASTEIGER

@<TRIPOS>ATOM
      1  N         -9.4110   20.6020  -26.0920 N.3    17  PHE17      -0.1241
      2  CA        -9.7030   21.6720  -25.1620 C.3    17  PHE17       0.1605
      3  C         -8.6280   21.7950  -24.0820 C.2    17  PHE17       0.2264
      4  O         -8.5480   22.7920  -23.3510 O.2    17  PHE17      -0.2867
      5  CB       -11.0520   21.4100  -24.4710 C.3    17  PHE17       0.0534
      6  CG       -12.2510   21.6480  -25.3600 C.ar   17  PHE17      -0.0203
      7  CD1      -12.4170   22.8820  -26.0030 C.ar   17  PHE17      -0.0042
      8  CD2      -13.1850   20.6390  -25.5670 C.ar   17  PHE17      -0.0042
      9  CE1      -13.5020   23.1120  -26.8350 C.ar   17  PHE17      -0.0003
     10  CE2      -14.2910   20.8450  -26.4190 C.ar   17  PHE17      -0.0003
     11  CZ       -14.4400   22.0980  -27.0510 C.ar   17  PHE17      -0.0000
     12  N        -17.7770   14.4920  -23.6090 N.3    66  ASN66      -0.1240
     13  CA       -16.7840   15.3570  -24.1950 C.3    66  ASN66       0.1653
     14  C        -15.7760   15.8470  -23.1450 C.2    66  ASN66       0.2266
     15  O        -16.0970   16.6050  -22.2150 O.2    66  ASN66      -0.2867
     16  CB       -17.4570   16.4860  -25.0030 C.3    66  ASN66       0.1155
     17  CG       -16.4430   17.3010  -25.8670 C.2    66  ASN66       0.2627
     18  OD1      -15.1980   17.0220  -25.9250 O.2    66  ASN66      -0.2716
     19  ND2      -16.9740   18.3630  -26.5100 N.am   66  ASN66      -0.0877
     20  N        -13.0870   17.9640  -21.3660 N.3    68  TYR68      -0.1241
     21  CA       -12.6750   19.3910  -21.4420 C.3    68  TYR68       0.1605
     22  C        -11.3440   19.6270  -20.7930 C.2    68  TYR68       0.2264
     23  O        -10.5870   20.5490  -21.1880 O.2    68  TYR68      -0.2867
     24  CB       -13.7040   20.2820  -20.6730 C.3    68  TYR68       0.0534
     25  CG       -15.0740   20.3030  -21.2950 C.ar   68  TYR68      -0.0201
     26  CD1      -15.2950   19.8530  -22.6030 C.ar   68  TYR68      -0.0009
     27  CD2      -16.1690   20.8510  -20.5940 C.ar   68  TYR68      -0.0009
     28  CE1      -16.5890   19.9540  -23.1830 C.ar   68  TYR68       0.0417
     29  CE2      -17.4150   20.9470  -21.1680 C.ar   68  TYR68       0.0417
     30  CZ       -17.6300   20.4880  -22.4170 C.ar   68  TYR68       0.1957
     31  OH       -18.9060   20.6450  -22.8900 O.3    68  TYR68      -0.2866
     32  N        -15.7880   22.2090  -16.0240 N.3   114  ASN114     -0.1240
     33  CA       -14.9790   23.0990  -16.8700 C.3   114  ASN114      0.1653
     34  C        -13.4960   23.0830  -16.5140 C.2   114  ASN114      0.2266
     35  O        -12.6660   23.3270  -17.3840 O.2   114  ASN114     -0.2867
     36  CB       -15.5120   24.5310  -16.7860 C.3   114  ASN114      0.1155
     37  CG       -16.8860   24.6740  -17.4050 C.2   114  ASN114      0.2627
     38  OD1      -17.8110   25.3360  -16.8430 O.2   114  ASN114     -0.2716
     39  ND2      -17.0440   24.0720  -18.5660 N.am  114  ASN114     -0.0877
     40  N        -21.9290   29.5720  -14.7760 N.3   158  GLU158     -0.1245
     41  CA       -20.8920   28.5170  -14.8200 C.3   158  GLU158      0.1567
     42  C        -19.5930   28.9710  -14.2370 C.2   158  GLU158      0.2260
     43  O        -19.1290   30.0910  -14.5340 O.2   158  GLU158     -0.2867
     44  CB       -20.5890   28.1200  -16.2270 C.3   158  GLU158      0.0388
     45  CG       -21.7980   27.6690  -17.0830 C.3   158  GLU158      0.1160
     46  CD       -21.3630   26.8250  -18.2910 C.2   158  GLU158      0.3649
     47  OE1      -20.2520   26.1960  -18.2720 O.co2 158  GLU158     -0.2457
     48  OE2      -22.1260   26.7840  -19.2610 O.co2 158  GLU158     -0.2457
     49  N        -16.8790   40.6490  -19.1380 N.3   227  ASN227     -0.1225
     50  CA       -17.4270   39.4750  -19.8640 C.3   227  ASN227      0.1785
     51  C        -16.9860   38.2060  -19.1080 C.2   227  ASN227      0.2597
     52  O        -16.4040   38.2900  -17.9860 O.2   227  ASN227     -0.2718
     53  CB       -16.9720   39.4800  -21.3380 C.3   227  ASN227      0.1169
     54  CG       -18.0000   38.8380  -22.2930 C.2   227  ASN227      0.2627
     55  OD1      -18.7450   37.8940  -21.9420 O.2   227  ASN227     -0.2716
     56  ND2      -18.0350   39.3540  -23.5130 N.am  227  ASN227     -0.0877
     57  N        -17.2640   37.0460  -19.6940 N.am  228  TYR228     -0.1976
     58  CA       -16.9470   35.7630  -19.0740 C.3   228  TYR228      0.1639
     59  C        -15.4890   35.6450  -18.6400 C.2   228  TYR228      0.2290
     60  O        -14.5990   35.7680  -19.4600 O.2   228  TYR228     -0.2864
     61  CB       -17.1960   34.6240  -20.0510 C.3   228  TYR228      0.0560
     62  CG       -18.6200   34.4350  -20.5090 C.ar  228  TYR228     -0.0198
     63  CD1      -19.6870   35.0650  -19.8570 C.ar  228  TYR228     -0.0009
     64  CD2      -18.8940   33.5600  -21.5360 C.ar  228  TYR228     -0.0009
     65  CE1      -21.0040   34.8920  -20.2650 C.ar  228  TYR228      0.0417
     66  CE2      -20.2190   33.3330  -21.9370 C.ar  228  TYR228      0.0417
     67  CZ       -21.2620   34.0090  -21.2980 C.ar  228  TYR228      0.1957
     68  OH       -22.5390   33.7400  -21.6870 O.3   228  TYR228     -0.2866
     69  N        -12.7240   37.2410  -22.4180 N.3   244  CYS244     -0.1235
     70  CA       -12.6340   37.1920  -23.8760 C.3   244  CYS244      0.1677
     71  C        -12.5460   38.6240  -24.4790 C.2   244  CYS244      0.2270
     72  O        -13.1270   38.9340  -25.5450 O.2   244  CYS244     -0.2867
     73  CB       -13.8350   36.3880  -24.4170 C.3   244  CYS244      0.0956
     74  SG       -15.4590   37.0340  -23.8270 S.3   244  CYS244     -0.0801
     75  N        -11.6190   36.5930  -28.8320 N.3   282  ASP282     -0.1225
     76  CA       -12.9250   37.1230  -28.4180 C.3   282  ASP282      0.1805
     77  C        -13.8170   35.9420  -28.1000 C.2   282  ASP282      0.2598
     78  O        -14.9540   36.1350  -27.6680 O.2   282  ASP282     -0.2718
     79  CB       -13.6810   37.8180  -29.5830 C.3   282  ASP282      0.1424
     80  CG       -12.7730   38.5020  -30.5500 C.2   282  ASP282      0.3668
     81  OD1      -11.9830   39.3770  -30.1470 O.co2 282  ASP282     -0.2456
     82  OD2      -12.8340   38.1760  -31.7290 O.co2 282  ASP282     -0.2456
     83  N        -13.3490   34.7380  -28.4130 N.am  283  ILE283     -0.1966
     84  CA       -14.1260   33.5520  -28.0610 C.3   283  ILE283      0.1727
     85  C        -13.7950   33.1660  -26.6200 C.2   283  ILE283      0.2616
     86  O        -12.6810   33.4410  -26.1400 O.2   283  ILE283     -0.2715
     87  CB       -13.9380   32.3680  -29.0600 C.3   283  ILE283      0.0290
     88  CG1      -12.4760   31.8570  -29.0750 C.3   283  ILE283      0.0022
     89  CG2      -14.5170   32.7400  -30.4750 C.3   283  ILE283      0.0023
     90  CD1      -12.2280   30.7920  -30.2310 C.3   283  ILE283      0.0001
     91  N        -14.7450   32.5660  -25.9170 N.am  284  TRP284     -0.1960
     92  CA       -14.4280   32.1290  -24.5370 C.3   284  TRP284      0.1771
     93  C        -13.9430   30.6840  -24.4550 C.2   284  TRP284      0.2619
     94  O        -14.1780   29.8830  -25.3780 O.2   284  TRP284     -0.2715
     95  CB       -15.5690   32.4050  -23.5650 C.3   284  TRP284      0.0590
     96  CG       -16.8590   31.6140  -23.8010 C.ar  284  TRP284      0.0006
     97  CD1      -17.8960   31.9870  -24.6030 C.ar  284  TRP284      0.0946
     98  CD2      -17.2470   30.3570  -23.1900 C.ar  284  TRP284      0.0152
     99  NE1      -18.8850   31.0340  -24.5690 N.ar  284  TRP284     -0.2442
    100  CE2      -18.5180   30.0230  -23.7060 C.ar  284  TRP284      0.0810
    101  CE3      -16.6420   29.4820  -22.2560 C.ar  284  TRP284      0.0012
    102  CZ2      -19.2170   28.8500  -23.3070 C.ar  284  TRP284      0.0191
    103  CZ3      -17.3490   28.3180  -21.8450 C.ar  284  TRP284      0.0001
    104  CH2      -18.6090   28.0130  -22.3840 C.ar  284  TRP284      0.0015
    105  N        -13.2510   30.3770  -23.3670 N.am  285  TYR285     -0.1974
    106  CA       -12.6820   29.0490  -23.0350 C.3   285  TYR285      0.1639
    107  C        -11.3470   28.9070  -23.7620 C.2   285  TYR285      0.2290
    108  O        -11.1770   28.0300  -24.6160 O.2   285  TYR285     -0.2864
    109  CB       -13.6410   27.8600  -23.3160 C.3   285  TYR285      0.0560
    110  CG       -13.3010   26.6590  -22.4650 C.ar  285  TYR285     -0.0198
    111  CD1      -13.8000   26.5420  -21.1550 C.ar  285  TYR285     -0.0009
    112  CD2      -12.4800   25.6240  -22.9730 C.ar  285  TYR285     -0.0009
    113  CE1      -13.4780   25.4360  -20.3550 C.ar  285  TYR285      0.0417
    114  CE2      -12.1520   24.5190  -22.1740 C.ar  285  TYR285      0.0417
    115  CZ       -12.6550   24.4270  -20.8580 C.ar  285  TYR285      0.1957
    116  OH       -12.3130   23.3260  -20.0420 O.3   285  TYR285     -0.2866
    117  N         -6.6080   26.3280  -27.7550 N.3   334  ARG334     -0.1245
    118  CA        -7.4420   26.3500  -26.5370 C.3   334  ARG334      0.1563
    119  C         -6.6050   26.4160  -25.2580 C.2   334  ARG334      0.2260
    120  O         -7.0410   27.0010  -24.2540 O.2   334  ARG334     -0.2867
    121  CB        -8.3190   25.1140  -26.4450 C.3   334  ARG334      0.0307
    122  CG        -9.4120   25.1340  -27.4710 C.3   334  ARG334      0.0489
    123  CD       -10.5080   26.1290  -27.0580 C.3   334  ARG334      0.2205
    124  NE       -11.4680   26.2100  -28.1650 N.pl3 334  ARG334     -0.0865
    125  CZ       -12.5310   27.0160  -28.1630 C.cat 334  ARG334      0.5346
    126  NH1      -12.7960   27.7560  -27.0930 N.pl3 334  ARG334      0.1354
    127  NH2      -13.3710   27.0370  -29.2190 N.pl3 334  ARG334      0.1354
    128  N         -8.4590   23.7890  -32.0450 N.3   350  ASP350     -0.1239
    129  CA        -9.8040   23.4420  -32.3720 C.3   350  ASP350      0.1674
    130  C         -9.9490   22.4490  -33.5220 C.2   350  ASP350      0.2266
    131  O        -11.0210   21.8740  -33.6440 O.2   350  ASP350     -0.2867
    132  CB       -10.6620   24.6720  -32.6750 C.3   350  ASP350      0.1410
    133  CG       -11.3980   25.1460  -31.4580 C.2   350  ASP350      0.3668
    134  OD1      -10.9890   24.7670  -30.3580 O.co2 350  ASP350     -0.2456
    135  OD2      -12.4070   25.8530  -31.5550 O.co2 350  ASP350     -0.2456
@<TRIPOS>BOND
     1   131   130    2
     2   130   129    1
     3   132   129    1
     4   132   133    1
     5   129   128    1
     6    82    80   ar
     7   135   133   ar
     8   133   134   ar
     9    80    81   ar
    10    80    79    1
    11    89    87    1
    12    90    88    1
    13    79    76    1
    14   127   125    1
    15    88    87    1
    16    87    84    1
    17    75    76    1
    18    76    77    1
    19    83    77   am
    20    83    84    1
    21   124   125    2
    22   124   123    1
    23   125   126    1
    24    77    78    2
    25    84    85    1
    26   117   118    1
    27   122   123    1
    28   122   121    1
    29    11     9   ar
    30    11    10   ar
    31     9     7   ar
    32    85    86    2
    33    85    91   am
    34   118   121    1
    35   118   119    1
    36    19    17   am
    37    10     8   ar
    38     1     2    1
    39     7     6   ar
    40    18    17    2
    41    91    92    1
    42    17    16    1
    43     8     6   ar
    44    72    71    2
    45    94    93    2
    46     6     5    1
    47   119   120    2
    48     2     5    1
    49     2     3    1
    50    16    13    1
    51   108   107    2
    52    97    99   ar
    53    97    96   ar
    54    99   100   ar
    55    92    93    1
    56    92    95    1
    57    71    70    1
    58    93   105   am
    59    73    70    1
    60    73    74    1
    61    13    12    1
    62    13    14    1
    63     3     4    2
    64    70    69    1
    65    96    95    1
    66    96    98   ar
    67   107   106    1
    68   100   102   ar
    69   100    98   ar
    70    56    54   am
    71   105   106    1
    72   109   106    1
    73   109   110    1
    74   102   104   ar
    75    98   101   ar
    76    28    26   ar
    77    28    30   ar
    78    14    15    2
    79   112   110   ar
    80   112   114   ar
    81    31    30    1
    82    26    25   ar
    83   110   111   ar
    84    30    29   ar
    85   104   103   ar
    86    54    55    2
    87    54    53    1
    88   101   103   ar
    89   114   115   ar
    90    66    64   ar
    91    66    67   ar
    92    68    67    1
    93    64    62   ar
    94    21    20    1
    95    21    22    1
    96    21    24    1
    97    53    50    1
    98    67    65   ar
    99    25    24    1
   100    25    27   ar
   101    23    22    2
   102    29    27   ar
   103   111   113   ar
   104   115   113   ar
   105   115   116    1
   106    62    61    1
   107    62    63   ar
   108    65    63   ar
   109    61    58    1
   110    50    49    1
   111    50    51    1
   112    57    51   am
   113    57    58    1
   114    60    59    2
   115    48    46   ar
   116    51    52    2
   117    58    59    1
   118    39    37   am
   119    46    47   ar
   120    46    45    1
   121    37    38    2
   122    37    36    1
   123    35    34    2
   124    45    44    1
   125    33    36    1
   126    33    34    1
   127    33    32    1
   128    44    41    1
   129    41    40    1
   130    41    42    1
   131    43    42    2
