@<TRIPOS>MOLECULE
tmp/3jzhA00.pdb
 156 150 0 0 0
SMALL
GASTEIGER

@<TRIPOS>ATOM
      1  N          9.3740   22.0730  -26.1390 N.3    17  PHE17      -0.1241
      2  CA         9.7120   20.9910  -25.2050 C.3    17  PHE17       0.1605
      3  C          8.6460   20.8980  -24.1130 C.2    17  PHE17       0.2264
      4  O          8.5360   19.8790  -23.4180 O.2    17  PHE17      -0.2867
      5  CB        11.0680   21.2210  -24.5410 C.3    17  PHE17       0.0534
      6  CG        12.2710   20.9500  -25.4680 C.ar   17  PHE17      -0.0203
      7  CD1       12.4320   19.7140  -26.0900 C.ar   17  PHE17      -0.0042
      8  CD2       13.2390   21.9450  -25.6860 C.ar   17  PHE17      -0.0042
      9  CE1       13.5870   19.4230  -26.9450 C.ar   17  PHE17      -0.0003
     10  CE2       14.3400   21.7330  -26.5660 C.ar   17  PHE17      -0.0003
     11  CZ        14.5250   20.4530  -27.1980 C.ar   17  PHE17      -0.0000
     12  N         17.7180   28.1870  -23.6450 N.3    66  ASN66      -0.1240
     13  CA        16.7680   27.3270  -24.3040 C.3    66  ASN66       0.1653
     14  C         15.7990   26.8220  -23.2100 C.2    66  ASN66       0.2266
     15  O         16.2050   26.0840  -22.2930 O.2    66  ASN66      -0.2867
     16  CB        17.5020   26.1750  -25.0570 C.3    66  ASN66       0.1155
     17  CG        16.5350   25.3000  -25.8890 C.2    66  ASN66       0.2627
     18  OD1       15.2670   25.5620  -25.9850 O.2    66  ASN66      -0.2716
     19  ND2       17.0850   24.2190  -26.4470 N.am   66  ASN66      -0.0877
     20  N         13.1100   24.7500  -21.3030 N.3    68  TYR68      -0.1241
     21  CA        12.7030   23.3180  -21.4160 C.3    68  TYR68       0.1605
     22  C         11.3350   23.0240  -20.8070 C.2    68  TYR68       0.2264
     23  O         10.6340   22.0900  -21.2330 O.2    68  TYR68      -0.2867
     24  CB        13.7310   22.4640  -20.6330 C.3    68  TYR68       0.0534
     25  CG        15.1060   22.3740  -21.2700 C.ar   68  TYR68      -0.0201
     26  CD1       15.3220   22.7680  -22.5790 C.ar   68  TYR68      -0.0009
     27  CD2       16.1760   21.8050  -20.5590 C.ar   68  TYR68      -0.0009
     28  CE1       16.6040   22.6320  -23.1840 C.ar   68  TYR68       0.0417
     29  CE2       17.4180   21.6810  -21.1260 C.ar   68  TYR68       0.0417
     30  CZ        17.6300   22.0990  -22.4300 C.ar   68  TYR68       0.1957
     31  OH        18.8900   21.9360  -22.9620 O.3    68  TYR68      -0.2866
     32  N         15.7840   20.4980  -16.0690 N.3   114  ASN114     -0.1240
     33  CA        15.0050   19.6080  -16.9540 C.3   114  ASN114      0.1653
     34  C         13.5050   19.5670  -16.6260 C.2   114  ASN114      0.2266
     35  O         12.7010   19.2610  -17.5240 O.2   114  ASN114     -0.2867
     36  CB        15.5700   18.1960  -16.8330 C.3   114  ASN114      0.1155
     37  CG        16.9470   18.0590  -17.4810 C.2   114  ASN114      0.2627
     38  OD1       17.8850   17.4080  -16.9200 O.2   114  ASN114     -0.2716
     39  ND2       17.0790   18.6330  -18.6620 N.am  114  ASN114     -0.0877
     40  N         21.9730   13.1250  -14.8520 N.3   158  GLU158     -0.1245
     41  CA        20.9780   14.1860  -14.9020 C.3   158  GLU158      0.1567
     42  C         19.6760   13.6950  -14.3140 C.2   158  GLU158      0.2260
     43  O         19.2250   12.5840  -14.6440 O.2   158  GLU158     -0.2867
     44  CB        20.6550   14.6010  -16.3320 C.3   158  GLU158      0.0388
     45  CG        21.8500   14.9190  -17.2280 C.3   158  GLU158      0.1160
     46  CD        21.4660   15.8400  -18.3940 C.2   158  GLU158      0.3649
     47  OE1       20.3880   16.4950  -18.3380 O.co2 158  GLU158     -0.2457
     48  OE2       22.2450   15.9240  -19.3480 O.co2 158  GLU158     -0.2457
     49  N         16.8970    2.0210  -19.2070 N.3   227  ASN227     -0.1225
     50  CA        17.4650    3.1550  -19.8880 C.3   227  ASN227      0.1785
     51  C         16.9750    4.4340  -19.1380 C.2   227  ASN227      0.2597
     52  O         16.3010    4.3460  -18.0770 O.2   227  ASN227     -0.2718
     53  CB        17.0520    3.1260  -21.3730 C.3   227  ASN227      0.1169
     54  CG        18.0730    3.7920  -22.2890 C.2   227  ASN227      0.2627
     55  OD1       18.7820    4.7470  -21.9010 O.2   227  ASN227     -0.2716
     56  ND2       18.1300    3.3130  -23.5280 N.am  227  ASN227     -0.0877
     57  N         17.3210    5.5960  -19.6660 N.am  228  TYR228     -0.1976
     58  CA        17.0110    6.8650  -19.0240 C.3   228  TYR228      0.1639
     59  C         15.5390    6.9370  -18.6660 C.2   228  TYR228      0.2290
     60  O         14.7090    6.7760  -19.5260 O.2   228  TYR228     -0.2864
     61  CB        17.2230    8.0080  -20.0090 C.3   228  TYR228      0.0560
     62  CG        18.6150    8.2260  -20.4850 C.ar  228  TYR228     -0.0198
     63  CD1       19.7160    7.5550  -19.8990 C.ar  228  TYR228     -0.0009
     64  CD2       18.8340    9.1190  -21.5140 C.ar  228  TYR228     -0.0009
     65  CE1       20.9990    7.7920  -20.3150 C.ar  228  TYR228      0.0417
     66  CE2       20.1040    9.3810  -21.9420 C.ar  228  TYR228      0.0417
     67  CZ        21.1870    8.7130  -21.3550 C.ar  228  TYR228      0.1957
     68  OH        22.4090    9.0340  -21.8580 O.3   228  TYR228     -0.2866
     69  N         12.7470    5.4040  -22.4890 N.3   244  CYS244     -0.1235
     70  CA        12.6780    5.4260  -23.9290 C.3   244  CYS244      0.1677
     71  C         12.5600    3.9970  -24.5270 C.2   244  CYS244      0.2270
     72  O         13.0570    3.7350  -25.6210 O.2   244  CYS244     -0.2867
     73  CB        13.8920    6.1940  -24.4650 C.3   244  CYS244      0.0956
     74  SG        15.4520    5.5920  -23.7950 S.3   244  CYS244     -0.0801
     75  N         11.4090    5.9400  -28.9570 N.3   282  ASP282     -0.1225
     76  CA        12.7450    5.5250  -28.4760 C.3   282  ASP282      0.1805
     77  C         13.6800    6.6940  -28.2260 C.2   282  ASP282      0.2598
     78  O         14.8480    6.4650  -27.8720 O.2   282  ASP282     -0.2718
     79  CB        13.5760    4.6830  -29.4660 C.3   282  ASP282      0.1424
     80  CG        12.8150    4.1810  -30.5930 C.2   282  ASP282      0.3668
     81  OD1       11.9770    3.2810  -30.4170 O.co2 282  ASP282     -0.2456
     82  OD2       13.0560    4.6940  -31.6800 O.co2 282  ASP282     -0.2456
     83  N         13.2160    7.9180  -28.4420 N.am  283  ILE283     -0.1966
     84  CA        14.0540    9.0660  -28.1360 C.3   283  ILE283      0.1727
     85  C         13.7650    9.4540  -26.6840 C.2   283  ILE283      0.2616
     86  O         12.6890    9.0950  -26.1640 O.2   283  ILE283     -0.2715
     87  CB        13.9290   10.2270  -29.1500 C.3   283  ILE283      0.0290
     88  CG1       12.4710   10.6590  -29.3290 C.3   283  ILE283      0.0022
     89  CG2       14.5630    9.8290  -30.5780 C.3   283  ILE283      0.0023
     90  CD1       12.4100   12.0390  -30.0230 C.3   283  ILE283      0.0001
     91  N         14.7150   10.0860  -25.9950 N.am  284  TRP284     -0.1960
     92  CA        14.4250   10.4890  -24.6080 C.3   284  TRP284      0.1771
     93  C         13.9630   11.9310  -24.5250 C.2   284  TRP284      0.2619
     94  O         14.1690   12.7000  -25.4740 O.2   284  TRP284     -0.2715
     95  CB        15.6150   10.2030  -23.6370 C.3   284  TRP284      0.0590
     96  CG        16.9030   10.9670  -23.8840 C.ar  284  TRP284      0.0006
     97  CD1       17.9510   10.5800  -24.7010 C.ar  284  TRP284      0.0946
     98  CD2       17.3110   12.2130  -23.2710 C.ar  284  TRP284      0.0152
     99  NE1       18.9420   11.5370  -24.6750 N.ar  284  TRP284     -0.2442
    100  CE2       18.5960   12.5260  -23.7800 C.ar  284  TRP284      0.0810
    101  CE3       16.7130   13.0920  -22.3440 C.ar  284  TRP284      0.0012
    102  CZ2       19.3020   13.6870  -23.3810 C.ar  284  TRP284      0.0191
    103  CZ3       17.4210   14.2290  -21.9410 C.ar  284  TRP284      0.0001
    104  CH2       18.6920   14.5340  -22.4800 C.ar  284  TRP284      0.0015
    105  N         13.3430   12.2670  -23.3930 N.am  285  TYR285     -0.1974
    106  CA        12.6710   13.5550  -23.1410 C.3   285  TYR285      0.1639
    107  C         11.3290   13.6650  -23.8610 C.2   285  TYR285      0.2290
    108  O         11.1250   14.5330  -24.7480 O.2   285  TYR285     -0.2864
    109  CB        13.6000   14.7770  -23.4260 C.3   285  TYR285      0.0560
    110  CG        13.2490   15.9790  -22.5480 C.ar  285  TYR285     -0.0198
    111  CD1       13.7520   16.0650  -21.2490 C.ar  285  TYR285     -0.0009
    112  CD2       12.4110   17.0330  -23.0370 C.ar  285  TYR285     -0.0009
    113  CE1       13.4500   17.1620  -20.4140 C.ar  285  TYR285      0.0417
    114  CE2       12.1160   18.1520  -22.2230 C.ar  285  TYR285      0.0417
    115  CZ        12.6440   18.2060  -20.9100 C.ar  285  TYR285      0.1957
    116  OH        12.3590   19.2590  -20.0750 O.3   285  TYR285     -0.2866
    117  N          7.3890    9.7990  -31.3110 N.3   302  GLN302     -0.1231
    118  CA         8.3220   10.5370  -32.1190 C.3   302  GLN302      0.1698
    119  C          7.8940   10.7490  -33.5960 C.2   302  GLN302      0.2592
    120  O          8.5730   11.4810  -34.3350 O.2   302  GLN302     -0.2718
    121  CB         9.7280    9.9070  -32.0430 C.3   302  GLN302      0.0381
    122  CG         9.9110    8.6560  -32.8680 C.3   302  GLN302      0.0905
    123  CD        10.8380    7.6240  -32.1720 C.2   302  GLN302      0.2608
    124  OE1       11.1920    7.7390  -31.0080 O.2   302  GLN302     -0.2717
    125  NE2       11.1620    6.5870  -32.8870 N.am  302  GLN302     -0.0878
    126  N          6.7620   10.1660  -33.9950 N.am  303  VAL303     -0.1980
    127  CA         6.1890   10.3930  -35.3070 C.3   303  VAL303      0.1595
    128  C          4.7800   11.0380  -35.2410 C.2   303  VAL303      0.2287
    129  O          4.0380   11.0220  -36.2110 O.2   303  VAL303     -0.2864
    130  CB         6.2170    9.1160  -36.2330 C.3   303  VAL303      0.0276
    131  CG1        7.6610    8.5610  -36.3510 C.3   303  VAL303      0.0022
    132  CG2        5.3700    8.0230  -35.6470 C.3   303  VAL303      0.0022
    133  N          7.9140   14.8170  -33.7570 N.3   332  ALA332     -0.1245
    134  CA         7.8590   14.2710  -32.3910 C.3   332  ALA332      0.1562
    135  C          7.0570   15.1530  -31.4260 C.2   332  ALA332      0.2260
    136  O          7.2410   16.3950  -31.3870 O.2   332  ALA332     -0.2867
    137  CB         9.2900   14.0690  -31.8540 C.3   332  ALA332      0.0290
    138  N          6.5580   16.3100  -27.7520 N.3   334  ARG334     -0.1245
    139  CA         7.3960   16.3320  -26.5420 C.3   334  ARG334      0.1563
    140  C          6.5910   16.2680  -25.2760 C.2   334  ARG334      0.2260
    141  O          7.0690   15.6790  -24.2610 O.2   334  ARG334     -0.2867
    142  CB         8.3390   17.5350  -26.4750 C.3   334  ARG334      0.0307
    143  CG         9.4020   17.4980  -27.5360 C.3   334  ARG334      0.0489
    144  CD        10.5600   16.5720  -27.1210 C.3   334  ARG334      0.2205
    145  NE        11.4870   16.3890  -28.2250 N.pl3 334  ARG334     -0.0865
    146  CZ        12.5300   15.5650  -28.2110 C.cat 334  ARG334      0.5346
    147  NH1       12.7970   14.8310  -27.1380 N.pl3 334  ARG334      0.1354
    148  NH2       13.3140   15.4770  -29.2910 N.pl3 334  ARG334      0.1354
    149  N          8.3970   18.8710  -32.0390 N.3   350  ASP350     -0.1239
    150  CA         9.7660   19.2400  -32.3540 C.3   350  ASP350      0.1674
    151  C          9.9270   20.2320  -33.5270 C.2   350  ASP350      0.2266
    152  O         10.9670   20.8410  -33.6640 O.2   350  ASP350     -0.2867
    153  CB        10.5590   17.9980  -32.6890 C.3   350  ASP350      0.1410
    154  CG        11.2960   17.4710  -31.5220 C.2   350  ASP350      0.3668
    155  OD1       10.9370   17.7750  -30.3600 O.co2 350  ASP350     -0.2456
    156  OD2       12.2670   16.7670  -31.7330 O.co2 350  ASP350     -0.2456
@<TRIPOS>BOND
     1   131   130    1
     2   130   132    1
     3   130   127    1
     4   129   128    2
     5   127   128    1
     6   127   126    1
     7   120   119    2
     8   126   119   am
     9   133   134    1
    10   152   151    2
    11   119   118    1
    12   151   150    1
    13   125   123   am
    14   122   123    1
    15   122   121    1
    16   153   150    1
    17   153   154    1
    18   134   137    1
    19   134   135    1
    20   150   149    1
    21   123   124    2
    22   118   121    1
    23   118   117    1
    24   156   154   ar
    25    82    80   ar
    26   154   155   ar
    27   135   136    2
    28    80    81   ar
    29    80    79    1
    30    89    87    1
    31    90    88    1
    32    79    76    1
    33    88    87    1
    34   148   146    1
    35    87    84    1
    36    75    76    1
    37    76    77    1
    38    83    77   am
    39    83    84    1
    40    77    78    2
    41   145   146    2
    42   145   144    1
    43   146   147    1
    44    84    85    1
    45   138   139    1
    46   143   144    1
    47   143   142    1
    48    11     9   ar
    49    11    10   ar
    50     9     7   ar
    51    85    86    2
    52    85    91   am
    53    10     8   ar
    54   139   142    1
    55   139   140    1
    56    19    17   am
    57     1     2    1
    58     7     6   ar
    59    91    92    1
    60    18    17    2
    61    17    16    1
    62     8     6   ar
    63    72    71    2
    64    94    93    2
    65     6     5    1
    66   140   141    2
    67     2     5    1
    68     2     3    1
    69    16    13    1
    70   108   107    2
    71    97    99   ar
    72    97    96   ar
    73    99   100   ar
    74    92    93    1
    75    92    95    1
    76    71    70    1
    77    93   105   am
    78    73    70    1
    79    73    74    1
    80    13    12    1
    81    13    14    1
    82     3     4    2
    83    70    69    1
    84    96    95    1
    85    96    98   ar
    86   107   106    1
    87   100   102   ar
    88   100    98   ar
    89    56    54   am
    90   109   106    1
    91   109   110    1
    92   105   106    1
    93   102   104   ar
    94    98   101   ar
    95    14    15    2
    96    28    26   ar
    97    28    30   ar
    98   112   110   ar
    99   112   114   ar
   100    31    30    1
   101    26    25   ar
   102   110   111   ar
   103   104   103   ar
   104    30    29   ar
   105   101   103   ar
   106    54    55    2
   107    54    53    1
   108   114   115   ar
   109    66    64   ar
   110    66    67   ar
   111    68    67    1
   112    64    62   ar
   113    21    20    1
   114    21    22    1
   115    21    24    1
   116    53    50    1
   117    67    65   ar
   118    25    24    1
   119    25    27   ar
   120   111   113   ar
   121    23    22    2
   122    29    27   ar
   123   115   113   ar
   124   115   116    1
   125    62    61    1
   126    62    63   ar
   127    65    63   ar
   128    61    58    1
   129    50    49    1
   130    50    51    1
   131    57    51   am
   132    57    58    1
   133    60    59    2
   134    48    46   ar
   135    51    52    2
   136    58    59    1
   137    39    37   am
   138    46    47   ar
   139    46    45    1
   140    35    34    2
   141    37    38    2
   142    37    36    1
   143    45    44    1
   144    33    36    1
   145    33    34    1
   146    33    32    1
   147    44    41    1
   148    41    40    1
   149    41    42    1
   150    43    42    2
