@<TRIPOS>MOLECULE
tmp/3jziA00.pdb
 220 209 0 0 0
SMALL
GASTEIGER

@<TRIPOS>ATOM
      1  N         -5.8460    6.2070   -7.5890 N.3   116  LYS116     -0.1245
      2  CA        -6.5590    4.9430   -7.3970 C.3   116  LYS116      0.1561
      3  C         -7.1220    4.2780   -8.6470 C.2   116  LYS116      0.2260
      4  O         -7.1010    3.0490   -8.7200 O.2   116  LYS116     -0.2867
      5  CB        -7.5720    5.0160   -6.2300 C.3   116  LYS116      0.0271
      6  CG        -6.9900    5.5640   -4.9160 C.3   116  LYS116      0.0035
      7  CD        -5.7730    4.7760   -4.3950 C.3   116  LYS116      0.0206
      8  CE        -4.9870    5.5320   -3.3520 C.3   116  LYS116      0.1093
      9  NZ        -3.6690    4.9010   -3.0920 N.3   116  LYS116     -0.1314
     10  N        -11.4550   -5.4910   -6.7590 N.3   131  VAL131     -0.1245
     11  CA       -12.8780   -5.4800   -6.4030 C.3   131  VAL131      0.1561
     12  C        -13.6280   -5.0930   -7.6820 C.2   131  VAL131      0.2260
     13  O        -13.2820   -4.0580   -8.2700 O.2   131  VAL131     -0.2867
     14  CB       -13.2320   -4.4680   -5.2720 C.3   131  VAL131      0.0252
     15  CG1      -14.6620   -4.6680   -4.7740 C.3   131  VAL131      0.0019
     16  CG2      -12.2490   -4.5280   -4.1140 C.3   131  VAL131      0.0019
     17  N        -20.0810    1.6130   -3.9390 N.3   157  ILE157     -0.1245
     18  CA       -19.3690    2.7060   -3.2780 C.3   157  ILE157      0.1561
     19  C        -18.7370    3.6840   -4.2830 C.2   157  ILE157      0.2260
     20  O        -18.1780    3.2630   -5.2970 O.2   157  ILE157     -0.2867
     21  CB       -18.3990    2.1780   -2.1610 C.3   157  ILE157      0.0252
     22  CG1      -17.8260    3.3110   -1.2790 C.3   157  ILE157      0.0019
     23  CG2      -17.3050    1.2350   -2.6980 C.3   157  ILE157      0.0019
     24  CD1      -17.3620    2.8740    0.1190 C.3   157  ILE157      0.0001
     25  N        -15.9030    6.2860   -4.8390 N.3   159  LYS159     -0.1231
     26  CA       -14.5640    6.5430   -4.3140 C.3   159  LYS159      0.1693
     27  C        -13.7860    7.5920   -5.0970 C.2   159  LYS159      0.2591
     28  O        -13.7760    7.5710   -6.3300 O.2   159  LYS159     -0.2718
     29  CB       -13.7640    5.2300   -4.2440 C.3   159  LYS159      0.0285
     30  CG       -14.3980    4.1620   -3.3550 C.3   159  LYS159      0.0035
     31  CD       -13.6950    2.8290   -3.4850 C.3   159  LYS159      0.0206
     32  CE       -12.5660    2.7000   -2.4990 C.3   159  LYS159      0.1093
     33  NZ       -11.7860    1.4610   -2.7290 N.3   159  LYS159     -0.1314
     34  N        -13.1120    8.4940   -4.3640 N.am  160  ALA160     -0.1980
     35  CA       -12.2800    9.5590   -4.9230 C.3   160  ALA160      0.1597
     36  C        -10.9770    8.9550   -5.4540 C.2   160  ALA160      0.2287
     37  O        -10.2960    8.2370   -4.7140 O.2   160  ALA160     -0.2864
     38  CB       -11.9830   10.6040   -3.8520 C.3   160  ALA160      0.0319
     39  N         -8.3490   10.0750   -3.4960 N.3   163  GLY163     -0.1210
     40  CA        -8.6160    9.6970   -2.1140 C.3   163  GLY163      0.1956
     41  C         -7.8250    8.4710   -1.7120 C.2   163  GLY163      0.2612
     42  O         -7.0770    7.9160   -2.5210 O.2   163  GLY163     -0.2717
     43  N         -7.9970    8.0480   -0.4660 N.am  164  GLY164     -0.1942
     44  CA        -7.3060    6.8880    0.0850 C.3   164  GLY164      0.2014
     45  C         -7.5640    6.6840    1.5610 C.2   164  GLY164      0.2639
     46  O         -8.0200    7.6040    2.2530 O.2   164  GLY164     -0.2714
     47  N         -7.2640    5.4700    2.0300 N.am  165  GLY165     -0.1954
     48  CA        -7.4730    5.0620    3.4120 C.3   165  GLY165      0.1869
     49  C         -8.9410    5.1280    3.7660 C.2   165  GLY165      0.2309
     50  O         -9.7570    4.4250    3.1680 O.2   165  GLY165     -0.2863
     51  N        -10.7550    8.1340    3.5780 N.3   167  ARG167     -0.1231
     52  CA       -11.2430    9.4290    3.0980 C.3   167  ARG167      0.1694
     53  C        -11.5920    9.4100    1.6090 C.2   167  ARG167      0.2593
     54  O        -10.8270    8.8660    0.8090 O.2   167  ARG167     -0.2718
     55  CB       -10.2280   10.5360    3.4180 C.3   167  ARG167      0.0321
     56  CG       -10.8750   11.8970    3.5250 C.3   167  ARG167      0.0489
     57  CD        -9.8790   12.9730    3.8620 C.3   167  ARG167      0.2205
     58  NE       -10.4690   14.2930    3.6590 N.pl3 167  ARG167     -0.0865
     59  CZ        -9.8840   15.4360    3.9970 C.cat 167  ARG167      0.5346
     60  NH1       -8.6870   15.4320    4.5750 N.pl3 167  ARG167      0.1354
     61  NH2      -10.4940   16.5900    3.7760 N.pl3 167  ARG167      0.1354
     62  N        -12.7450    9.9900    1.2670 N.am  168  GLY168     -0.1942
     63  CA       -13.2570   10.0780   -0.1010 C.3   168  GLY168      0.2014
     64  C        -14.1820    8.9470   -0.5230 C.2   168  GLY168      0.2638
     65  O        -14.1740    8.5490   -1.6900 O.2   168  GLY168     -0.2714
     66  N        -15.0000    8.4320    0.4210 N.am  169  MET169     -0.1976
     67  CA       -15.9340    7.3240    0.1770 C.3   169  MET169      0.1605
     68  C        -17.3810    7.6660    0.5120 C.2   169  MET169      0.2287
     69  O        -17.6400    8.4180    1.4560 O.2   169  MET169     -0.2864
     70  CB       -15.5390    6.0870    0.9970 C.3   169  MET169      0.0413
     71  CG       -14.2860    5.3950    0.5290 C.3   169  MET169      0.0598
     72  SD       -13.8650    3.9920    1.5890 S.3   169  MET169     -0.1393
     73  CE       -13.5720    4.8280    3.1430 C.3   169  MET169      0.0692
     74  N        -14.7810    7.1150   -9.0260 N.3   199  TYR199     -0.1241
     75  CA       -15.0110    5.7900   -9.5870 C.3   199  TYR199      0.1605
     76  C        -15.9840    4.9920   -8.7110 C.2   199  TYR199      0.2264
     77  O        -16.2500    5.3810   -7.5660 O.2   199  TYR199     -0.2867
     78  CB       -13.6900    5.0440   -9.8830 C.3   199  TYR199      0.0534
     79  CG       -12.9090    4.5650   -8.6760 C.ar  199  TYR199     -0.0201
     80  CD1      -12.9720    3.2370   -8.2630 C.ar  199  TYR199     -0.0009
     81  CD2      -12.0290    5.4130   -8.0090 C.ar  199  TYR199     -0.0009
     82  CE1      -12.2310    2.7800   -7.1730 C.ar  199  TYR199      0.0417
     83  CE2      -11.2780    4.9680   -6.9220 C.ar  199  TYR199      0.0417
     84  CZ       -11.3840    3.6500   -6.5060 C.ar  199  TYR199      0.1957
     85  OH       -10.6380    3.2050   -5.4430 O.3   199  TYR199     -0.2866
     86  N        -17.2400    1.1470   -7.1190 N.3   201  GLU201     -0.1231
     87  CA       -16.7210   -0.1410   -6.6630 C.3   201  GLU201      0.1699
     88  C        -17.7910   -0.9030   -5.8670 C.2   201  GLU201      0.2592
     89  O        -18.6370   -0.2740   -5.2290 O.2   201  GLU201     -0.2718
     90  CB       -15.4780    0.1110   -5.7830 C.3   201  GLU201      0.0402
     91  CG       -14.5500   -1.0760   -5.6410 C.3   201  GLU201      0.1161
     92  CD       -13.2380   -0.7890   -4.9370 C.2   201  GLU201      0.3649
     93  OE1      -12.1960   -0.6950   -5.6260 O.co2 201  GLU201     -0.2457
     94  OE2      -13.2490   -0.6740   -3.6910 O.co2 201  GLU201     -0.2457
     95  N        -17.7450   -2.2530   -5.8960 N.am  202  LYS202     -0.1966
     96  CA       -18.6620   -3.1120   -5.1380 C.3   202  LYS202      0.1728
     97  C        -18.3810   -2.9760   -3.6300 C.2   202  LYS202      0.2616
     98  O        -17.2340   -3.1350   -3.2030 O.2   202  LYS202     -0.2715
     99  CB       -18.4810   -4.5820   -5.5560 C.3   202  LYS202      0.0311
    100  CG       -19.5960   -5.5100   -5.1040 C.3   202  LYS202      0.0038
    101  CD       -19.3330   -6.9180   -5.5890 C.3   202  LYS202      0.0206
    102  CE       -20.3800   -7.8940   -5.1220 C.3   202  LYS202      0.1093
    103  NZ       -20.0450   -9.2830   -5.5340 N.3   202  LYS202     -0.1314
    104  N        -19.4200   -2.6810   -2.8300 N.am  203  TYR203     -0.1960
    105  CA       -19.2760   -2.5930   -1.3790 C.3   203  TYR203      0.1771
    106  C        -19.3890   -4.0240   -0.8550 C.2   203  TYR203      0.2619
    107  O        -20.4610   -4.6240   -0.9550 O.2   203  TYR203     -0.2715
    108  CB       -20.3410   -1.6580   -0.7550 C.3   203  TYR203      0.0574
    109  CG       -20.3900   -1.6850    0.7610 C.ar  203  TYR203     -0.0198
    110  CD1      -21.2920   -2.5040    1.4360 C.ar  203  TYR203     -0.0009
    111  CD2      -19.5470   -0.8770    1.5210 C.ar  203  TYR203     -0.0009
    112  CE1      -21.3360   -2.5380    2.8300 C.ar  203  TYR203      0.0417
    113  CE2      -19.5950   -0.8900    2.9160 C.ar  203  TYR203      0.0417
    114  CZ       -20.4870   -1.7290    3.5660 C.ar  203  TYR203      0.1957
    115  OH       -20.5440   -1.7530    4.9400 O.3   203  TYR203     -0.2866
    116  N        -18.2720   -4.5850   -0.3540 N.am  204  LEU204     -0.1977
    117  CA       -18.2470   -5.9440    0.1770 C.3   204  LEU204      0.1596
    118  C        -18.8320   -5.9560    1.5790 C.2   204  LEU204      0.2287
    119  O        -18.4540   -5.1360    2.4210 O.2   204  LEU204     -0.2864
    120  CB       -16.8440   -6.5730    0.1080 C.3   204  LEU204      0.0297
    121  CG       -16.1890   -6.6420   -1.2900 C.3   204  LEU204      0.0022
    122  CD1      -14.7850   -7.1900   -1.2080 C.3   204  LEU204      0.0001
    123  CD2      -16.9960   -7.5000   -2.2550 C.3   204  LEU204      0.0001
    124  N        -16.1750   -8.4900    4.6480 N.3   207  PRO207     -0.2116
    125  CA       -14.7630   -8.7690    4.3610 C.3   207  PRO207      0.1372
    126  C        -13.8000   -8.6050    5.5450 C.2   207  PRO207      0.2244
    127  O        -14.0780   -7.8830    6.5050 O.2   207  PRO207     -0.2868
    128  CB       -14.4480   -7.7590    3.2570 C.3   207  PRO207      0.0268
    129  CG       -15.2600   -6.5670    3.6240 C.3   207  PRO207      0.0207
    130  CD       -16.4800   -7.0640    4.3800 C.3   207  PRO207      0.0892
    131  N         -9.6720   -7.5050    6.4680 N.3   209  HIS209     -0.1241
    132  CA        -8.6010   -6.6820    5.8980 C.3   209  HIS209      0.1621
    133  C         -7.3220   -7.4990    5.9640 C.2   209  HIS209      0.2264
    134  O         -6.8090   -7.7440    7.0580 O.2   209  HIS209     -0.2867
    135  CB        -8.4280   -5.3600    6.6570 C.3   209  HIS209      0.0745
    136  CG        -7.4710   -4.4100    6.0080 C.ar  209  HIS209      0.0817
    137  ND1       -6.1050   -4.6350    6.0160 N.ar  209  HIS209     -0.2268
    138  CD2       -7.7150   -3.2350    5.3870 C.ar  209  HIS209      0.1154
    139  CE1       -5.5720   -3.6130    5.3660 C.ar  209  HIS209      0.1986
    140  NE2       -6.5030   -2.7430    4.9750 N.ar  209  HIS209     -0.2212
    141  N        -10.8690   -2.3180   13.3180 N.3   233  GLN233     -0.1245
    142  CA       -10.8580   -0.9180   12.9040 C.3   233  GLN233      0.1566
    143  C        -12.0290   -0.1570   13.4940 C.2   233  GLN233      0.2260
    144  O        -13.0750   -0.7420   13.7680 O.2   233  GLN233     -0.2867
    145  CB       -10.9470   -0.8240   11.3670 C.3   233  GLN233      0.0367
    146  CG        -9.7340   -1.3470   10.6100 C.3   233  GLN233      0.0905
    147  CD       -10.0780   -1.8610    9.2260 C.2   233  GLN233      0.2608
    148  OE1      -11.2490   -1.9710    8.8390 O.2   233  GLN233     -0.2717
    149  NE2       -9.0600   -2.2210    8.4550 N.am  233  GLN233     -0.0878
    150  N        -12.5490    3.8510   10.1120 N.3   236  HIS236     -0.1241
    151  CA       -11.5760    3.5340    9.0630 C.3   236  HIS236      0.1621
    152  C        -10.1130    3.7530    9.4910 C.2   236  HIS236      0.2264
    153  O         -9.2580    4.0930    8.6730 O.2   236  HIS236     -0.2867
    154  CB       -11.9250    4.2510    7.7400 C.3   236  HIS236      0.0745
    155  CG       -13.2810    3.9220    7.1970 C.ar  236  HIS236      0.0817
    156  ND1      -14.2350    4.9060    7.0020 N.ar  236  HIS236     -0.2268
    157  CD2      -13.8060    2.7260    6.8380 C.ar  236  HIS236      0.1154
    158  CE1      -15.3020    4.2840    6.5250 C.ar  236  HIS236      0.1986
    159  NE2      -15.0910    2.9700    6.4060 N.ar  236  HIS236     -0.2212
    160  N         -7.0730    1.6990   11.7880 N.3   238  LYS238     -0.1245
    161  CA        -6.6110    0.4410   12.3720 C.3   238  LYS238      0.1561
    162  C         -6.3630    0.5760   13.8810 C.2   238  LYS238      0.2260
    163  O         -5.8630    1.6080   14.3410 O.2   238  LYS238     -0.2867
    164  CB        -5.3450   -0.0380   11.6540 C.3   238  LYS238      0.0271
    165  CG        -5.6020   -0.5520   10.2360 C.3   238  LYS238      0.0035
    166  CD        -4.3940   -0.3600    9.3360 C.3   238  LYS238      0.0206
    167  CE        -4.5960   -0.9420    7.9570 C.3   238  LYS238      0.1093
    168  NZ        -3.3670   -0.8460    7.1300 N.3   238  LYS238     -0.1314
    169  N         -2.8800   -3.8260   -0.0880 N.3   276  GLU276     -0.1245
    170  CA        -4.0500   -4.0070    0.7800 C.3   276  GLU276      0.1567
    171  C         -5.2090   -4.6300   -0.0040 C.2   276  GLU276      0.2260
    172  O         -5.5260   -4.1960   -1.1250 O.2   276  GLU276     -0.2867
    173  CB        -4.4950   -2.6860    1.4370 C.3   276  GLU276      0.0388
    174  CG        -3.4550   -2.0550    2.3460 C.3   276  GLU276      0.1160
    175  CD        -3.9160   -0.8370    3.1200 C.2   276  GLU276      0.3649
    176  OE1       -4.7220   -0.0470    2.5810 O.co2 276  GLU276     -0.2457
    177  OE2       -3.4170   -0.6360    4.2490 O.co2 276  GLU276     -0.2457
    178  N         -9.2720   -6.8420    0.4610 N.3   278  LEU278     -0.1245
    179  CA       -10.4520   -7.2190    1.2120 C.3   278  LEU278      0.1561
    180  C        -10.5750   -8.7120    0.9030 C.2   278  LEU278      0.2260
    181  O        -10.5270   -9.1200   -0.2730 O.2   278  LEU278     -0.2867
    182  CB       -11.7010   -6.4290    0.7980 C.3   278  LEU278      0.0270
    183  CG       -11.7190   -4.9350    1.1730 C.3   278  LEU278      0.0019
    184  CD1      -12.9080   -4.2540    0.5580 C.3   278  LEU278      0.0001
    185  CD2      -11.7180   -4.7110    2.7090 C.3   278  LEU278      0.0001
    186  N         -7.5750   -3.2760   -3.1010 N.3   287  ILE287     -0.1231
    187  CA        -8.1980   -1.9740   -2.8760 C.3   287  ILE287      0.1693
    188  C         -7.2050   -0.8350   -3.1040 C.2   287  ILE287      0.2594
    189  O         -7.5270    0.1080   -3.8300 O.2   287  ILE287     -0.2718
    190  CB        -9.0040   -1.8580   -1.5540 C.3   287  ILE287      0.0266
    191  CG1       -8.1600   -2.2260   -0.2960 C.3   287  ILE287      0.0019
    192  CG2      -10.2820   -2.6950   -1.6500 C.3   287  ILE287      0.0020
    193  CD1       -8.7740   -1.8680    1.0460 C.3   287  ILE287      0.0001
    194  N         -5.9900   -0.9370   -2.5060 N.am  288  GLU288     -0.1934
    195  CA        -4.9050    0.0450   -2.6330 C.3   288  GLU288      0.1818
    196  C         -3.5110   -0.4720   -2.2300 C.2   288  GLU288      0.2332
    197  O         -3.3820   -1.4960   -1.5460 O.2   288  GLU288     -0.2860
    198  CB        -5.2310    1.3910   -1.9520 C.2   288  GLU288      0.0097
    199  CG        -5.3520    1.3470   -0.4380 C.2   288  GLU288      0.0837
    200  CD        -5.4880    2.6970    0.2460 C.2   288  GLU288      0.3877
    201  OE1       -5.1700    3.7330   -0.3830 O.co2 288  GLU288     -0.2406
    202  OE2       -5.8760    2.7130    1.4360 O.co2 288  GLU288     -0.2406
    203  N        -14.1040   -6.5610    9.1970 N.3   437  ILE437     -0.1231
    204  CA       -13.8110   -5.1280    9.3240 C.3   437  ILE437      0.1692
    205  C        -14.8680   -4.2950   10.0570 C.2   437  ILE437      0.2592
    206  O        -14.5680   -3.1750   10.4700 O.2   437  ILE437     -0.2718
    207  CB       -13.3860   -4.4930    7.9680 C.3   437  ILE437      0.0266
    208  CG1      -14.5370   -4.5150    6.9210 C.3   437  ILE437      0.0019
    209  CG2      -12.1030   -5.1400    7.4310 C.3   437  ILE437      0.0020
    210  CD1      -14.4050   -3.4500    5.7870 C.3   437  ILE437      0.0001
    211  N        -16.0990   -4.8260   10.2050 N.am  438  HIS438     -0.1976
    212  CA       -17.2080   -4.1210   10.8580 C.3   438  HIS438      0.1656
    213  C        -17.4030   -4.5600   12.3050 C.2   438  HIS438      0.2291
    214  O        -18.2220   -3.9660   13.0110 O.2   438  HIS438     -0.2864
    215  CB       -18.5260   -4.3090   10.0750 C.3   438  HIS438      0.0771
    216  CG       -18.4140   -4.0960    8.5980 C.ar  438  HIS438      0.0820
    217  ND1      -18.2220   -2.8330    8.0590 N.ar  438  HIS438     -0.2267
    218  CD2      -18.4840   -4.9980    7.5900 C.ar  438  HIS438      0.1154
    219  CE1      -18.1780   -3.0080    6.7460 C.ar  438  HIS438      0.1986
    220  NE2      -18.3320   -4.2940    6.4170 N.ar  438  HIS438     -0.2212
@<TRIPOS>BOND
     1    78    75    1
     2    78    79    1
     3    75    74    1
     4    75    76    1
     5     4     3    2
     6    76    77    2
     7    79    80   ar
     8    79    81   ar
     9     3     2    1
    10    13    12    2
    11    80    82   ar
    12    81    83   ar
    13    12    11    1
    14     1     2    1
    15     2     5    1
    16    82    84   ar
    17    86    87    1
    18    83    84   ar
    19    10    11    1
    20    87    88    1
    21    87    90    1
    22    84    85    1
    23    11    14    1
    24    28    27    2
    25     5     6    1
    26    95    88   am
    27    95    96    1
    28    88    89    2
    29    90    91    1
    30    91    92    1
    31    93    92   ar
    32   101   102    1
    33   101   100    1
    34    99    96    1
    35    99   100    1
    36   103   102    1
    37    36    35    1
    38    36    37    2
    39    20    19    2
    40    14    15    1
    41    14    16    1
    42    96    97    1
    43    27    34   am
    44    27    26    1
    45    92    94   ar
    46    35    34    1
    47    35    38    1
    48     6     7    1
    49    25    26    1
    50     7     8    1
    51    26    29    1
    52    19    18    1
    53    29    30    1
    54    17    18    1
    55   189   188    2
    56    97    98    2
    57    97   104   am
    58    39    40    1
    59    31    30    1
    60    31    32    1
    61     8     9    1
    62    18    21    1
    63   188   187    1
    64   188   194   am
    65   186   187    1
    66   187   190    1
    67   104   105    1
    68    33    32    1
    69    23    21    1
    70   195   194    1
    71   195   196    1
    72   195   198    1
    73    42    41    2
    74   123   121    1
    75   196   197    2
    76    21    22    1
    77    40    41    1
    78   198   199    2
    79    41    43   am
    80    65    64    2
    81   192   190    1
    82   190   191    1
    83   105   106    1
    84   105   108    1
    85   121   122    1
    86   121   120    1
    87    22    24    1
    88   172   171    2
    89   107   106    2
    90   106   116   am
    91   108   109    1
    92    64    63    1
    93    64    66   am
    94    43    44    1
    95   199   200    1
    96   201   200   ar
    97   116   117    1
    98   191   193    1
    99   181   180    2
   100    63    62    1
   101   169   170    1
   102   171   170    1
   103    44    45    1
   104   120   117    1
   105    67    66    1
   106    67    68    1
   107    67    70    1
   108   117   118    1
   109   200   202   ar
   110   178   179    1
   111    68    69    2
   112    71    70    1
   113    71    72    1
   114   184   183    1
   115   109   110   ar
   116   109   111   ar
   117   170   173    1
   118   182   183    1
   119   182   179    1
   120    54    53    2
   121   180   179    1
   122   183   185    1
   123    62    53   am
   124   110   112   ar
   125   173   174    1
   126   111   113   ar
   127    45    47   am
   128    45    46    2
   129   118   119    2
   130    72    73    1
   131    53    52    1
   132    47    48    1
   133   174   175    1
   134   176   175   ar
   135   112   114   ar
   136   113   114   ar
   137    52    55    1
   138    52    51    1
   139   175   177   ar
   140    50    49    2
   141   128   129    1
   142   128   125    1
   143    48    49    1
   144    55    56    1
   145    56    57    1
   146   114   115    1
   147   129   130    1
   148    58    57    1
   149    58    59    2
   150    61    59    1
   151    59    60    1
   152   125   124    1
   153   125   126    1
   154   130   124    1
   155   140   139   ar
   156   140   138   ar
   157   139   137   ar
   158   138   136   ar
   159   126   127    2
   160   210   208    1
   161   132   133    1
   162   132   131    1
   163   132   135    1
   164   133   134    2
   165   136   137   ar
   166   136   135    1
   167   159   158   ar
   168   159   157   ar
   169   220   219   ar
   170   220   218   ar
   171   158   156   ar
   172   219   217   ar
   173   157   155   ar
   174   208   207    1
   175   156   155   ar
   176   168   167    1
   177   155   154    1
   178   209   207    1
   179   218   216   ar
   180   154   151    1
   181   167   166    1
   182   207   204    1
   183   217   216   ar
   184   149   147   am
   185   216   215    1
   186   153   152    2
   187   148   147    2
   188   151   152    1
   189   151   150    1
   190   203   204    1
   191   147   146    1
   192   204   205    1
   193   166   165    1
   194   205   211   am
   195   205   206    2
   196   215   212    1
   197   211   212    1
   198   165   164    1
   199   146   145    1
   200   212   213    1
   201   145   142    1
   202   164   161    1
   203   160   161    1
   204   213   214    2
   205   161   162    1
   206   142   141    1
   207   142   143    1
   208   143   144    2
   209   162   163    2
