@<TRIPOS>MOLECULE
tmp/3jzjA00.pdb
 253 248 0 0 0
SMALL
GASTEIGER

@<TRIPOS>ATOM
      1  N         -0.2370   -5.8110   11.0340 N.3    11  THR11      -0.1218
      2  CA        -1.6030   -5.8430   11.5500 C.3    11  THR11       0.1862
      3  C         -2.1770   -4.4520   11.8230 C.2    11  THR11       0.2287
      4  O         -3.2880   -4.3450   12.3530 O.2    11  THR11      -0.2866
      5  CB        -1.6070   -6.5760   12.9150 C.3    11  THR11       0.1770
      6  OG1       -0.7680   -5.8400   13.8280 O.3    11  THR11      -0.2211
      7  CG2       -1.1290   -8.0210   12.7470 C.3    11  THR11       0.0375
      8  N         -3.9770   -0.7720   11.8170 N.3    13  ASN13      -0.1240
      9  CA        -5.3550   -0.5250   11.4260 C.3    13  ASN13       0.1653
     10  C         -5.4620    0.4270   10.2140 C.2    13  ASN13       0.2266
     11  O         -4.4640    0.8160    9.6250 O.2    13  ASN13      -0.2867
     12  CB        -6.2010   -0.0770   12.6380 C.3    13  ASN13       0.1155
     13  CG        -5.8590    1.2940   13.1310 C.2    13  ASN13       0.2627
     14  OD1       -5.3220    2.1420   12.4160 O.2    13  ASN13      -0.2716
     15  ND2       -6.0900    1.4800   14.4550 N.am   13  ASN13      -0.0877
     16  N         -3.5050    3.5730   10.3260 N.3    16  GLU16      -0.1245
     17  CA        -2.0630    3.4150   10.5200 C.3    16  GLU16       0.1567
     18  C         -1.3510    2.8450    9.2850 C.2    16  GLU16       0.2260
     19  O         -0.1230    3.0670    9.1120 O.2    16  GLU16      -0.2867
     20  CB        -1.7510    2.5090   11.7220 C.3    16  GLU16       0.0388
     21  CG        -2.2890    2.9890   13.0750 C.3    16  GLU16       0.1160
     22  CD        -2.1660    1.8930   14.0890 C.2    16  GLU16       0.3649
     23  OE1       -2.5520    0.7460   13.8160 O.co2  16  GLU16      -0.2457
     24  OE2       -1.6400    2.1300   15.2030 O.co2  16  GLU16      -0.2457
     25  N         -6.0910   -7.6250   12.5060 N.3    43  PHE43      -0.1227
     26  CA        -5.6350   -8.0340   13.8420 C.3    43  PHE43       0.1736
     27  C         -6.2800   -9.3420   14.3040 C.2    43  PHE43       0.2596
     28  O         -5.5810  -10.2100   14.7950 O.2    43  PHE43      -0.2718
     29  CB        -6.0190   -6.9150   14.8610 C.3    43  PHE43       0.0547
     30  CG        -5.7210   -7.2550   16.3050 C.ar   43  PHE43      -0.0202
     31  CD1       -4.4730   -7.7180   16.6950 C.ar   43  PHE43      -0.0042
     32  CD2       -6.7020   -7.0920   17.2700 C.ar   43  PHE43      -0.0042
     33  CE1       -4.1880   -8.0270   18.0010 C.ar   43  PHE43      -0.0003
     34  CE2       -6.4290   -7.3850   18.6060 C.ar   43  PHE43      -0.0003
     35  CZ        -5.1610   -7.8710   18.9620 C.ar   43  PHE43      -0.0000
     36  N         -7.5980   -9.4500   14.1720 N.am   44  GLY44      -0.1957
     37  CA        -8.3620  -10.6490   14.6590 C.3    44  GLY44       0.1869
     38  C         -8.0940  -11.9160   13.8630 C.2    44  GLY44       0.2309
     39  O         -8.4530  -13.0010   14.3370 O.2    44  GLY44      -0.2863
     40  N         -3.1330  -13.8740   14.1320 N.3    47  ASN47      -0.1240
     41  CA        -2.5430  -14.9560   14.9190 C.3    47  ASN47       0.1653
     42  C         -2.7870  -16.3170   14.2380 C.2    47  ASN47       0.2266
     43  O         -1.8490  -17.0860   13.9790 O.2    47  ASN47      -0.2867
     44  CB        -3.0740  -14.9570   16.3580 C.3    47  ASN47       0.1155
     45  CG        -2.3390  -15.9610   17.2360 C.2    47  ASN47       0.2627
     46  OD1       -2.4980  -17.1780   17.0710 O.2    47  ASN47      -0.2716
     47  ND2       -1.5450  -15.4740   18.1870 N.am   47  ASN47      -0.0877
     48  N          4.5880   -8.6180   12.2610 N.3    65  ARG65      -0.1245
     49  CA         4.2940   -7.6960   13.3600 C.3    65  ARG65       0.1563
     50  C          3.6290   -8.5360   14.4270 C.2    65  ARG65       0.2260
     51  O          2.5530   -9.0750   14.1750 O.2    65  ARG65      -0.2867
     52  CB         3.3840   -6.5390   12.9290 C.3    65  ARG65       0.0307
     53  CG         3.5230   -5.3070   13.8020 C.3    65  ARG65       0.0489
     54  CD         2.2230   -4.4960   13.7970 C.3    65  ARG65       0.2205
     55  NE         2.3800   -3.2340   14.5490 N.pl3  65  ARG65      -0.0865
     56  CZ         1.3700   -2.4830   14.9640 C.cat  65  ARG65       0.5346
     57  NH1        0.1240   -2.9040   14.7800 N.pl3  65  ARG65       0.1354
     58  NH2        1.6130   -1.2980   15.5330 N.pl3  65  ARG65       0.1354
     59  N          2.1960   -9.1950   18.2360 N.3    67  GLU67      -0.1245
     60  CA         1.6470   -8.5870   19.4350 C.3    67  GLU67       0.1567
     61  C          2.4780   -9.0260   20.6520 C.2    67  GLU67       0.2260
     62  O          3.0450  -10.1340   20.6390 O.2    67  GLU67      -0.2867
     63  CB         0.1840   -8.9600   19.5790 C.3    67  GLU67       0.0388
     64  CG        -0.6190   -7.8720   20.3610 C.3    67  GLU67       0.1160
     65  CD        -0.7450   -8.1610   21.8660 C.2    67  GLU67       0.3649
     66  OE1       -0.6180   -9.3210   22.3020 O.co2  67  GLU67      -0.2457
     67  OE2       -0.9720   -7.1680   22.6100 O.co2  67  GLU67      -0.2457
     68  N          1.8100  -10.4370   23.3850 N.3    69  ALA69      -0.1231
     69  CA         1.4590  -11.7970   23.8630 C.3    69  ALA69       0.1694
     70  C          1.7810  -12.8920   22.8610 C.2    69  ALA69       0.2592
     71  O          1.8520  -14.0850   23.1980 O.2    69  ALA69      -0.2718
     72  CB        -0.0300  -11.8740   24.1890 C.3    69  ALA69       0.0304
     73  N          1.9010  -12.4910   21.5920 N.am   70  TRP70      -0.1976
     74  CA         2.1040  -13.5020   20.5410 C.3    70  TRP70       0.1640
     75  C          3.5200  -14.0240   20.5120 C.2    70  TRP70       0.2290
     76  O          3.7710  -15.0810   19.9280 O.2    70  TRP70      -0.2864
     77  CB         1.7560  -12.9510   19.1550 C.3    70  TRP70       0.0576
     78  CG         0.3420  -12.5960   18.9980 C.ar   70  TRP70       0.0006
     79  CD1       -0.6710  -12.7270   19.9330 C.ar   70  TRP70       0.0946
     80  CD2       -0.2450  -11.9580   17.8600 C.ar   70  TRP70       0.0152
     81  NE1       -1.8520  -12.2620   19.4270 N.ar   70  TRP70      -0.2442
     82  CE2       -1.6360  -11.7990   18.1490 C.ar   70  TRP70       0.0810
     83  CE3        0.2460  -11.5620   16.5960 C.ar   70  TRP70       0.0012
     84  CZ2       -2.5190  -11.1650   17.2720 C.ar   70  TRP70       0.0191
     85  CZ3       -0.6310  -10.9710   15.7110 C.ar   70  TRP70       0.0001
     86  CH2       -2.0050  -10.7920   16.0470 C.ar   70  TRP70       0.0015
     87  N          6.3320   -0.7700   19.1130 N.3   115  VAL115     -0.1245
     88  CA         5.5610    0.2890   19.8240 C.3   115  VAL115      0.1561
     89  C          5.1070   -0.2760   21.1820 C.2   115  VAL115      0.2260
     90  O          4.9490   -1.5060   21.3490 O.2   115  VAL115     -0.2867
     91  CB         4.3110    0.7980   19.0540 C.3   115  VAL115      0.0252
     92  CG1        4.7450    1.5750   17.7830 C.3   115  VAL115      0.0019
     93  CG2        3.3760   -0.3410   18.7170 C.3   115  VAL115      0.0019
     94  N          2.1090    0.5170   24.3770 N.3   117  ASP117     -0.1239
     95  CA         0.8870    1.2290   24.5670 C.3   117  ASP117      0.1674
     96  C          0.2130    0.9000   25.8980 C.2   117  ASP117      0.2266
     97  O          0.6290   -0.0240   26.5940 O.2   117  ASP117     -0.2867
     98  CB        -0.0500    1.1010   23.3230 C.3   117  ASP117      0.1410
     99  CG        -0.3450   -0.3330   22.9550 C.2   117  ASP117      0.3668
    100  OD1       -0.6320   -1.0810   23.8850 O.co2 117  ASP117     -0.2456
    101  OD2       -0.3260   -0.6050   21.7360 O.co2 117  ASP117     -0.2456
    102  N        -16.5570   -0.3150   25.7410 N.3   161  ARG161     -0.1245
    103  CA       -16.3860   -1.4210   24.7540 C.3   161  ARG161      0.1563
    104  C        -16.6860   -2.7620   25.4240 C.2   161  ARG161      0.2260
    105  O        -16.0900   -3.0850   26.4570 O.2   161  ARG161     -0.2867
    106  CB       -14.9730   -1.3400   24.2490 C.3   161  ARG161      0.0307
    107  CG       -14.5540   -2.4750   23.3440 C.3   161  ARG161      0.0489
    108  CD       -14.5480   -2.1370   22.0070 C.3   161  ARG161      0.2205
    109  NE       -14.0800   -3.2050   21.0720 N.pl3 161  ARG161     -0.0865
    110  CZ       -12.8910   -3.2210   20.4760 C.cat 161  ARG161      0.5346
    111  NH1      -11.9490   -2.3050   20.6980 N.pl3 161  ARG161      0.1354
    112  NH2      -12.6380   -4.1770   19.5970 N.pl3 161  ARG161      0.1354
    113  N        -14.4800   -6.7090   23.6670 N.3   164  ASP164     -0.1225
    114  CA       -13.0470   -6.9390   23.6500 C.3   164  ASP164      0.1790
    115  C        -12.6040   -7.0100   25.1230 C.2   164  ASP164      0.2440
    116  O        -12.7640   -6.0520   25.8870 O.2   164  ASP164     -0.2733
    117  CB       -12.3380   -5.8230   22.8590 C.3   164  ASP164      0.1423
    118  CG       -10.8720   -5.9790   22.8030 C.2   164  ASP164      0.3668
    119  OD1      -10.2250   -6.3920   23.7480 O.co2 164  ASP164     -0.2456
    120  OD2      -10.3110   -5.6220   21.7010 O.co2 164  ASP164     -0.2456
    121  N        -12.0890   -8.1730   25.5160 N.am  165  PRO165     -0.2718
    122  CA       -11.7910   -8.4200   26.9290 C.3   165  PRO165      0.1535
    123  C        -10.6970   -7.5700   27.5050 C.2   165  PRO165      0.2599
    124  O        -10.5720   -7.4480   28.7260 O.2   165  PRO165     -0.2715
    125  CB       -11.3840   -9.9200   26.9660 C.3   165  PRO165      0.0310
    126  CG       -10.8230  -10.1480   25.5440 C.3   165  PRO165      0.0237
    127  CD       -11.7450   -9.3490   24.6760 C.3   165  PRO165      0.0939
    128  N         -9.9110   -6.9390   26.6330 N.am  166  TYR166     -0.1960
    129  CA        -8.8160   -6.1300   27.1550 C.3   166  TYR166      0.1771
    130  C         -9.3450   -4.9390   27.9710 C.2   166  TYR166      0.2619
    131  O         -8.7100   -4.4740   28.9420 O.2   166  TYR166     -0.2715
    132  CB        -8.0030   -5.6200   25.9840 C.3   166  TYR166      0.0574
    133  CG        -6.6330   -5.0180   26.3000 C.ar  166  TYR166     -0.0198
    134  CD1       -5.6680   -5.7720   27.0150 C.ar  166  TYR166     -0.0009
    135  CD2       -6.2900   -3.7330   25.8290 C.ar  166  TYR166     -0.0009
    136  CE1       -4.3940   -5.2750   27.2080 C.ar  166  TYR166      0.0417
    137  CE2       -4.9930   -3.2340   26.0710 C.ar  166  TYR166      0.0417
    138  CZ        -4.1040   -4.0170   26.7520 C.ar  166  TYR166      0.1957
    139  OH        -2.8160   -3.5360   26.9720 O.3   166  TYR166     -0.2866
    140  N        -10.5460   -4.5130   27.6180 N.am  167  TRP167     -0.1974
    141  CA       -11.2000   -3.3510   28.2410 C.3   167  TRP167      0.1640
    142  C        -11.7050   -3.7080   29.6480 C.2   167  TRP167      0.2290
    143  O        -12.0920   -2.7890   30.4030 O.2   167  TRP167     -0.2864
    144  CB       -12.3570   -2.8410   27.4060 C.3   167  TRP167      0.0576
    145  CG       -11.9870   -1.7580   26.4500 C.ar  167  TRP167      0.0006
    146  CD1      -12.4130   -0.4590   26.5050 C.ar  167  TRP167      0.0946
    147  CD2      -11.1480   -1.8530   25.2440 C.ar  167  TRP167      0.0152
    148  NE1      -11.9190    0.2460   25.4350 N.ar  167  TRP167     -0.2442
    149  CE2      -11.1240   -0.5610   24.6650 C.ar  167  TRP167      0.0810
    150  CE3      -10.4510   -2.8930   24.6000 C.ar  167  TRP167      0.0012
    151  CZ2      -10.4150   -0.2800   23.4850 C.ar  167  TRP167      0.0191
    152  CZ3       -9.7340   -2.5980   23.4180 C.ar  167  TRP167      0.0001
    153  CH2       -9.7300   -1.2930   22.8970 C.ar  167  TRP167      0.0015
    154  N        -15.1980   -2.1530   17.7510 N.3   218  TRP218     -0.1241
    155  CA       -14.2240   -1.1140   17.3510 C.3   218  TRP218      0.1605
    156  C        -14.9630   -0.0540   16.5490 C.2   218  TRP218      0.2264
    157  O        -14.9410    1.1480   16.8540 O.2   218  TRP218     -0.2867
    158  CB       -13.0750   -1.7150   16.4930 C.3   218  TRP218      0.0550
    159  CG       -12.2950   -0.6130   15.8570 C.ar  218  TRP218      0.0003
    160  CD1      -12.3310   -0.2450   14.5350 C.ar  218  TRP218      0.0946
    161  CD2      -11.3130    0.2360   16.4980 C.ar  218  TRP218      0.0152
    162  NE1      -11.4580    0.8300   14.3210 N.ar  218  TRP218     -0.2442
    163  CE2      -10.8090    1.1200   15.4980 C.ar  218  TRP218      0.0810
    164  CE3      -10.8220    0.3380   17.8210 C.ar  218  TRP218      0.0012
    165  CZ2       -9.8660    2.1060   15.7890 C.ar  218  TRP218      0.0191
    166  CZ3       -9.8730    1.3360   18.0830 C.ar  218  TRP218      0.0001
    167  CH2       -9.3960    2.1600   17.0620 C.ar  218  TRP218      0.0015
    168  N         -3.3390    3.8370   19.1470 N.3   238  TRP238     -0.1241
    169  CA        -3.7540    3.4170   17.8040 C.3   238  TRP238      0.1605
    170  C         -5.0600    4.0180   17.3080 C.2   238  TRP238      0.2264
    171  O         -5.4720    3.8080   16.1380 O.2   238  TRP238     -0.2867
    172  CB        -3.8330    1.8710   17.7670 C.3   238  TRP238      0.0550
    173  CG        -4.8560    1.3620   18.7430 C.ar  238  TRP238      0.0003
    174  CD1       -6.1780    1.1970   18.4990 C.ar  238  TRP238      0.0946
    175  CD2       -4.6220    0.9560   20.1080 C.ar  238  TRP238      0.0152
    176  NE1       -6.8210    0.7650   19.6630 N.ar  238  TRP238     -0.2442
    177  CE2       -5.8770    0.5990   20.6520 C.ar  238  TRP238      0.0810
    178  CE3       -3.4720    0.8710   20.9060 C.ar  238  TRP238      0.0012
    179  CZ2       -6.0230    0.1050   21.9790 C.ar  238  TRP238      0.0191
    180  CZ3       -3.6010    0.4110   22.2540 C.ar  238  TRP238      0.0001
    181  CH2       -4.8920    0.0300   22.7650 C.ar  238  TRP238      0.0015
    182  N          0.3990   -2.9180   26.6380 N.3   272  GLY272     -0.1210
    183  CA         0.2530   -3.6720   25.4120 C.3   272  GLY272      0.1956
    184  C          1.3220   -3.2130   24.4320 C.2   272  GLY272      0.2612
    185  O          2.2770   -2.5400   24.8070 O.2   272  GLY272     -0.2717
    186  N          1.1310   -3.5830   23.1760 N.am  273  GLY273     -0.1942
    187  CA         2.0750   -3.1690   22.1700 C.3   273  GLY273      0.2014
    188  C          2.4230   -4.2400   21.1690 C.2   273  GLY273      0.2638
    189  O          1.8050   -5.3150   21.1090 O.2   273  GLY273     -0.2714
    190  N          3.4170   -3.8990   20.3610 N.am  274  TRP274     -0.1973
    191  CA         3.8010   -4.7020   19.1930 C.3   274  TRP274      0.1640
    192  C          5.2880   -4.7980   19.0820 C.2   274  TRP274      0.2290
    193  O          6.0040   -3.8010   19.3350 O.2   274  TRP274     -0.2864
    194  CB         3.2400   -4.0980   17.8860 C.3   274  TRP274      0.0576
    195  CG         1.7590   -4.2290   17.9380 C.ar  274  TRP274      0.0006
    196  CD1        0.8500   -3.3710   18.5770 C.ar  274  TRP274      0.0946
    197  CD2        0.9900   -5.3130   17.4040 C.ar  274  TRP274      0.0152
    198  NE1       -0.4310   -3.9170   18.4830 N.ar  274  TRP274     -0.2442
    199  CE2       -0.3730   -5.0970   17.7810 C.ar  274  TRP274      0.0810
    200  CE3        1.3120   -6.4800   16.6910 C.ar  274  TRP274      0.0012
    201  CZ2       -1.4040   -5.9870   17.4160 C.ar  274  TRP274      0.0191
    202  CZ3        0.3030   -7.3430   16.3470 C.ar  274  TRP274      0.0001
    203  CH2       -1.0410   -7.1120   16.7070 C.ar  274  TRP274      0.0015
    204  N          1.8600   -7.9820   32.3360 N.3   342  ARG342     -0.1245
    205  CA         1.3550   -9.3330   32.4750 C.3   342  ARG342      0.1563
    206  C          2.4500  -10.3840   32.5130 C.2   342  ARG342      0.2260
    207  O          3.6130  -10.0990   32.1880 O.2   342  ARG342     -0.2867
    208  CB         0.4340   -9.6560   31.3050 C.3   342  ARG342      0.0307
    209  CG         1.1700   -9.9100   30.0170 C.3   342  ARG342      0.0489
    210  CD         0.1880   -9.9220   28.8930 C.3   342  ARG342      0.2205
    211  NE        -0.1520   -8.5510   28.4780 N.pl3 342  ARG342     -0.0865
    212  CZ        -0.8880   -8.2840   27.4060 C.cat 342  ARG342      0.5346
    213  NH1       -1.3370   -9.2670   26.6620 N.pl3 342  ARG342      0.1354
    214  NH2       -1.1230   -7.0120   27.0430 N.pl3 342  ARG342      0.1354
    215  N         -2.1770  -14.9690   26.1100 N.3   349  ASN349     -0.1240
    216  CA        -3.3000  -14.3960   25.3680 C.3   349  ASN349      0.1653
    217  C         -4.5960  -15.1940   25.4900 C.2   349  ASN349      0.2266
    218  O         -5.6840  -14.6580   25.2780 O.2   349  ASN349     -0.2867
    219  CB        -2.9400  -14.0950   23.9180 C.3   349  ASN349      0.1155
    220  CG        -2.6300  -15.3100   23.1260 C.2   349  ASN349      0.2627
    221  OD1       -2.4770  -16.4240   23.6570 O.2   349  ASN349     -0.2716
    222  ND2       -2.5650  -15.1340   21.8150 N.am  349  ASN349     -0.0877
    223  N         -7.5720  -14.0940   27.8480 N.3   352  PHE352     -0.1227
    224  CA        -8.5550  -13.1050   27.4680 C.3   352  PHE352      0.1736
    225  C         -9.8670  -13.7150   27.0740 C.2   352  PHE352      0.2595
    226  O        -10.9150  -13.0950   27.2010 O.2   352  PHE352     -0.2718
    227  CB        -8.0150  -12.2250   26.3190 C.3   352  PHE352      0.0547
    228  CG        -7.0080  -11.2390   26.8170 C.ar  352  PHE352     -0.0202
    229  CD1       -7.3930  -10.1560   27.6260 C.ar  352  PHE352     -0.0042
    230  CD2       -5.6540  -11.4440   26.5800 C.ar  352  PHE352     -0.0042
    231  CE1       -6.4320   -9.3010   28.1580 C.ar  352  PHE352     -0.0003
    232  CE2       -4.6940  -10.5650   27.1320 C.ar  352  PHE352     -0.0003
    233  CZ        -5.0790   -9.4990   27.9040 C.ar  352  PHE352     -0.0000
    234  N         -9.8380  -14.9600   26.6230 N.am  353  GLU353     -0.1979
    235  CA       -11.0730  -15.4950   26.0840 C.3   353  GLU353      0.1602
    236  C        -12.1750  -15.7040   27.1960 C.2   353  GLU353      0.2287
    237  O        -13.3430  -15.4260   26.9210 O.2   353  GLU353     -0.2864
    238  CB       -10.7750  -16.7890   25.2690 C.3   353  GLU353      0.0415
    239  CG       -12.0110  -17.3590   24.5850 C.3   353  GLU353      0.1163
    240  CD       -12.6080  -16.5820   23.4040 C.2   353  GLU353      0.3649
    241  OE1      -12.2500  -15.4080   23.1300 O.co2 353  GLU353     -0.2457
    242  OE2      -13.5160  -17.1510   22.6980 O.co2 353  GLU353     -0.2457
    243  N        -13.7290  -12.5530   27.8190 N.3   356  ARG356     -0.1245
    244  CA       -14.5910  -12.1190   26.7530 C.3   356  ARG356      0.1563
    245  C        -15.9660  -12.6790   26.9810 C.2   356  ARG356      0.2260
    246  O        -16.9410  -11.9730   26.8520 O.2   356  ARG356     -0.2867
    247  CB       -14.0370  -12.4760   25.3650 C.3   356  ARG356      0.0307
    248  CG       -14.7950  -11.8980   24.2480 C.3   356  ARG356      0.0489
    249  CD       -14.1540  -12.3150   22.9020 C.3   356  ARG356      0.2205
    250  NE       -14.3780  -13.7140   22.6010 N.pl3 356  ARG356     -0.0865
    251  CZ       -15.5030  -14.2220   22.1010 C.cat 356  ARG356      0.5346
    252  NH1      -16.5720  -13.4610   21.9390 N.pl3 356  ARG356      0.1354
    253  NH2      -15.5600  -15.5220   21.7930 N.pl3 356  ARG356      0.1354
@<TRIPOS>BOND
     1    19    18    2
     2    18    17    1
     3    11    10    2
     4    10     9    1
     5    16    17    1
     6    17    20    1
     7     1     2    1
     8     9     8    1
     9     9    12    1
    10     2     3    1
    11     2     5    1
    12    20    21    1
    13     3     4    2
    14    48    49    1
    15    14    13    2
    16    25    26    1
    17    12    13    1
    18     7     5    1
    19     5     6    1
    20    52    49    1
    21    52    53    1
    22    21    22    1
    23    13    15   am
    24    49    50    1
    25    54    53    1
    26    54    55    1
    27    23    22   ar
    28    26    27    1
    29    26    29    1
    30    38    39    2
    31    38    37    1
    32    43    42    2
    33    22    24   ar
    34    40    41    1
    35    36    27   am
    36    36    37    1
    37    51    50    2
    38    42    41    1
    39    27    28    2
    40   162   160   ar
    41   162   163   ar
    42   160   159   ar
    43    55    56    2
    44    57    56    1
    45    29    30    1
    46    41    44    1
    47    56    58    1
    48   163   165   ar
    49   163   161   ar
    50    85    86   ar
    51    85    83   ar
    52   165   167   ar
    53   159   158    1
    54   159   161   ar
    55    86    84   ar
    56   171   170    2
    57    30    31   ar
    58    30    32   ar
    59   202   200   ar
    60   202   203   ar
    61    44    45    1
    62   158   155    1
    63   161   164   ar
    64   156   157    2
    65   156   155    1
    66    83    80   ar
    67   200   197   ar
    68    31    33   ar
    69   203   201   ar
    70   167   166   ar
    71    46    45    2
    72    45    47   am
    73    32    34   ar
    74    84    82   ar
    75   170   169    1
    76   155   154    1
    77   197   199   ar
    78   197   195   ar
    79   201   199   ar
    80   172   169    1
    81   172   173    1
    82   199   198   ar
    83    92    91    1
    84   169   168    1
    85   164   166   ar
    86    80    82   ar
    87    80    78   ar
    88   194   195    1
    89   194   191    1
    90   195   196   ar
    91    33    35   ar
    92    82    81   ar
    93    59    60    1
    94   198   196   ar
    95   174   173   ar
    96   174   176   ar
    97    34    35   ar
    98    93    91    1
    99   173   175   ar
   100    78    77    1
   101    78    79   ar
   102    91    88    1
   103   192   191    1
   104   192   193    2
   105    87    88    1
   106    77    74    1
   107   191   190    1
   108    81    79   ar
   109    60    63    1
   110    60    61    1
   111    63    64    1
   112   112   110    1
   113   176   177   ar
   114    88    89    1
   115    76    75    2
   116   175   177   ar
   117   175   178   ar
   118    64    65    1
   119   190   188   am
   120   110   111    1
   121   110   109    2
   122    75    74    1
   123    74    73    1
   124    62    61    2
   125   177   179   ar
   126   178   180   ar
   127   109   108    1
   128   189   188    2
   129   188   187    1
   130    89    90    2
   131    73    70   am
   132   120   118   ar
   133   101    99   ar
   134   253   251    1
   135   222   220   am
   136    65    66   ar
   137    65    67   ar
   138   252   251    1
   139   179   181   ar
   140   108   107    1
   141   251   250    2
   142   187   186    1
   143   180   181   ar
   144   250   249    1
   145   242   240   ar
   146   118   117    1
   147   118   119   ar
   148   117   114    1
   149    70    71    2
   150    70    69    1
   151   153   152   ar
   152   153   151   ar
   153   249   248    1
   154    99    98    1
   155    99   100   ar
   156   220   221    2
   157   220   219    1
   158   241   240   ar
   159   186   184   am
   160    98    95    1
   161   107   106    1
   162    68    69    1
   163   240   239    1
   164   152   150   ar
   165   151   149   ar
   166   114   113    1
   167   114   115    1
   168    69    72    1
   169   219   216    1
   170   248   247    1
   171   106   103    1
   172    94    95    1
   173   184   185    2
   174   184   183    1
   175    95    96    1
   176   239   238    1
   177   150   147   ar
   178   149   147   ar
   179   149   148   ar
   180   127   121    1
   181   127   126    1
   182   103   104    1
   183   103   102    1
   184   115   121   am
   185   115   116    2
   186   147   145   ar
   187   238   235    1
   188   218   217    2
   189   247   244    1
   190   216   217    1
   191   216   215    1
   192   183   182    1
   193   104   105    2
   194   148   146   ar
   195   121   122    1
   196   126   125    1
   197   135   137   ar
   198   135   133   ar
   199    96    97    2
   200   132   133    1
   201   132   129    1
   202   137   138   ar
   203   235   234    1
   204   235   236    1
   205   133   134   ar
   206   227   228    1
   207   227   224    1
   208   145   146   ar
   209   145   144    1
   210   230   228   ar
   211   230   232   ar
   212   234   225   am
   213   128   129    1
   214   128   123   am
   215   213   212    1
   216   138   139    1
   217   138   136   ar
   218   244   245    1
   219   244   243    1
   220   228   229   ar
   221   246   245    2
   222   237   236    2
   223   122   125    1
   224   122   123    1
   225   134   136   ar
   226   214   212    1
   227   225   226    2
   228   225   224    1
   229   232   233   ar
   230   129   130    1
   231   144   141    1
   232   212   211    2
   233   224   223    1
   234   123   124    2
   235   140   130   am
   236   140   141    1
   237   229   231   ar
   238   233   231   ar
   239   130   131    2
   240   141   142    1
   241   211   210    1
   242   210   209    1
   243   142   143    2
   244   209   208    1
   245   208   205    1
   246   207   206    2
   247   204   205    1
   248   205   206    1
