@<TRIPOS>MOLECULE
tmp/3jzkA00.pdb
 127 123 0 0 0
SMALL
GASTEIGER

@<TRIPOS>ATOM
      1  N          3.0160  -15.8300   30.6640 N.3    37  LEU37      -0.1231
      2  CA         3.9820  -15.5180   29.6150 C.3    37  LEU37       0.1693
      3  C          3.6280  -16.1840   28.2740 C.2    37  LEU37       0.2592
      4  O          3.7400  -15.5690   27.2230 O.2    37  LEU37      -0.2718
      5  CB         5.4010  -15.8770   30.0790 C.3    37  LEU37       0.0284
      6  CG         6.1170  -14.7770   30.8970 C.3    37  LEU37       0.0019
      7  CD1        6.3730  -13.5740   30.0100 C.3    37  LEU37       0.0001
      8  CD2        5.2860  -14.3710   32.1070 C.3    37  LEU37       0.0001
      9  N          3.1590  -17.4280   28.3260 N.am   38  PHE38      -0.1976
     10  CA         2.7430  -18.1630   27.1350 C.3    38  PHE38       0.1639
     11  C          1.6070  -17.4120   26.4320 C.2    38  PHE38       0.2290
     12  O          1.6080  -17.2640   25.2230 O.2    38  PHE38      -0.2864
     13  CB         2.2070  -19.5650   27.4800 C.3    38  PHE38       0.0560
     14  CG         1.4320  -20.1990   26.3340 C.ar   38  PHE38      -0.0200
     15  CD1        2.1030  -20.6060   25.1780 C.ar   38  PHE38      -0.0042
     16  CD2        0.0280  -20.2650   26.3470 C.ar   38  PHE38      -0.0042
     17  CE1        1.4070  -21.0560   24.0590 C.ar   38  PHE38      -0.0003
     18  CE2       -0.6840  -20.7190   25.2150 C.ar   38  PHE38      -0.0003
     19  CZ         0.0100  -21.1100   24.0760 C.ar   38  PHE38      -0.0000
     20  N          0.7650  -14.1870   26.8320 N.3    40  LEU40      -0.1231
     21  CA         1.2880  -12.8950   26.3840 C.3    40  LEU40       0.1693
     22  C          2.0920  -13.1120   25.1160 C.2    40  LEU40       0.2592
     23  O          2.1990  -12.2220   24.2780 O.2    40  LEU40      -0.2718
     24  CB         2.1910  -12.2840   27.4450 C.3    40  LEU40       0.0284
     25  CG         1.4530  -11.5620   28.5660 C.3    40  LEU40       0.0019
     26  CD1        2.4140  -11.2440   29.6880 C.3    40  LEU40       0.0001
     27  CD2        0.8220  -10.2930   28.0180 C.3    40  LEU40       0.0001
     28  N          2.6610  -14.3070   24.9880 N.am   41  GLY41      -0.1957
     29  CA         3.4390  -14.6270   23.8110 C.3    41  GLY41       0.1869
     30  C          2.5130  -14.7880   22.6230 C.2    41  GLY41       0.2309
     31  O          2.7850  -14.3010   21.5250 O.2    41  GLY41      -0.2863
     32  N          1.4710  -11.3660   21.4980 N.3    44  ILE44      -0.1231
     33  CA         2.4430  -10.6430   20.6980 C.3    44  ILE44       0.1692
     34  C          2.4610  -11.1920   19.2810 C.2    44  ILE44       0.2591
     35  O          2.5240  -10.4570   18.2970 O.2    44  ILE44      -0.2718
     36  CB         3.8420  -10.7760   21.3020 C.3    44  ILE44       0.0266
     37  CG1        3.8840  -10.0310   22.6360 C.3    44  ILE44       0.0019
     38  CG2        4.8880  -10.2750   20.3110 C.3    44  ILE44       0.0020
     39  CD1        5.1920  -10.1400   23.3740 C.3    44  ILE44       0.0001
     40  N          2.4000  -12.5080   19.2020 N.am   45  MET45      -0.1979
     41  CA         2.4150  -13.2030   17.9380 C.3    45  MET45       0.1605
     42  C          1.2210  -12.8480   17.0500 C.2    45  MET45       0.2287
     43  O          1.3910  -12.5350   15.8760 O.2    45  MET45      -0.2864
     44  CB         2.4400  -14.7100   18.1970 C.3    45  MET45       0.0413
     45  CG         3.1530  -15.4700   17.1330 C.3    45  MET45       0.0598
     46  SD         4.7610  -14.7230   16.8630 S.3    45  MET45      -0.1393
     47  CE         5.8370  -15.8030   17.6620 C.3    45  MET45       0.0692
     48  N          5.9530   -7.6150   17.1490 N.3    50  TYR50      -0.1241
     49  CA         7.4000   -7.7250   16.9990 C.3    50  TYR50       0.1605
     50  C          7.9610   -7.1300   15.7120 C.2    50  TYR50       0.2264
     51  O          7.2650   -7.0260   14.7010 O.2    50  TYR50      -0.2867
     52  CB         7.8300   -9.1940   17.0850 C.3    50  TYR50       0.0534
     53  CG         7.2900  -10.0920   15.9750 C.ar   50  TYR50      -0.0201
     54  CD1        6.0180  -10.6660   16.0590 C.ar   50  TYR50      -0.0009
     55  CD2        8.0660  -10.3720   14.8460 C.ar   50  TYR50      -0.0009
     56  CE1        5.5410  -11.5080   15.0450 C.ar   50  TYR50       0.0417
     57  CE2        7.6010  -11.1940   13.8280 C.ar   50  TYR50       0.0417
     58  CZ         6.3440  -11.7600   13.9310 C.ar   50  TYR50       0.1957
     59  OH         5.8910  -12.5720   12.9200 O.3    50  TYR50      -0.2866
     60  N         13.1960   -9.7530   15.2670 N.3    55  GLN55      -0.1245
     61  CA        12.0500  -10.3350   15.9770 C.3    55  GLN55       0.1566
     62  C         12.1430  -10.5790   17.4860 C.2    55  GLN55       0.2260
     63  O         11.2400  -11.1660   18.0830 O.2    55  GLN55      -0.2867
     64  CB        11.7060  -11.6330   15.2550 C.3    55  GLN55       0.0367
     65  CG        12.0510  -11.5720   13.7400 C.3    55  GLN55       0.0905
     66  CD        11.4960  -12.7570   12.9640 C.2    55  GLN55       0.2608
     67  OE1       11.4320  -13.8570   13.4860 O.2    55  GLN55      -0.2717
     68  NE2       11.1000  -12.5330   11.7130 N.am   55  GLN55      -0.0878
     69  N          2.8550   -2.6400   30.4480 N.3    69  PHE69      -0.1241
     70  CA         4.2800   -2.6720   30.7180 C.3    69  PHE69       0.1605
     71  C          4.9360   -1.3080   30.9260 C.2    69  PHE69       0.2264
     72  O          6.0140   -1.2250   31.4920 O.2    69  PHE69      -0.2867
     73  CB         4.9870   -3.4420   29.5990 C.3    69  PHE69       0.0534
     74  CG         4.7740   -4.9370   29.6500 C.ar   69  PHE69      -0.0203
     75  CD1        3.8080   -5.4950   30.4840 C.ar   69  PHE69      -0.0042
     76  CD2        5.5380   -5.7880   28.8480 C.ar   69  PHE69      -0.0042
     77  CE1        3.6020   -6.8760   30.5210 C.ar   69  PHE69      -0.0003
     78  CE2        5.3410   -7.1650   28.8770 C.ar   69  PHE69      -0.0003
     79  CZ         4.3780   -7.7120   29.7090 C.ar   69  PHE69      -0.0000
     80  N         10.4560   -3.4390   24.0100 N.3    74  PHE74      -0.1241
     81  CA        11.3870   -4.1590   24.8540 C.3    74  PHE74       0.1605
     82  C         11.9450   -5.3630   24.1040 C.2    74  PHE74       0.2264
     83  O         11.4320   -5.7460   23.0480 O.2    74  PHE74      -0.2867
     84  CB        10.6850   -4.5860   26.1650 C.3    74  PHE74       0.0534
     85  CG         9.4930   -5.4840   25.9620 C.ar   74  PHE74      -0.0203
     86  CD1        9.6340   -6.8700   26.0060 C.ar   74  PHE74      -0.0042
     87  CD2        8.2350   -4.9450   25.6810 C.ar   74  PHE74      -0.0042
     88  CE1        8.5450   -7.7110   25.7740 C.ar   74  PHE74      -0.0003
     89  CE2        7.1380   -5.7690   25.4430 C.ar   74  PHE74      -0.0003
     90  CZ         7.2910   -7.1590   25.4900 C.ar   74  PHE74      -0.0000
     91  N         12.8070   -9.3860   24.0820 N.3    76  VAL76      -0.1245
     92  CA        12.4040  -10.6400   24.7130 C.3    76  VAL76       0.1561
     93  C         13.6120  -11.3850   25.2790 C.2    76  VAL76       0.2260
     94  O         13.4730  -12.4300   25.9120 O.2    76  VAL76      -0.2867
     95  CB        11.6380  -11.5370   23.7080 C.3    76  VAL76       0.0252
     96  CG1       10.5270  -10.7290   23.0600 C.3    76  VAL76       0.0019
     97  CG2       12.5790  -12.0870   22.6480 C.3    76  VAL76       0.0019
     98  N         14.6970  -11.3670   30.0710 N.3    79  HIS79      -0.1241
     99  CA        13.6600  -12.0370   30.8310 C.3    79  HIS79       0.1621
    100  C         13.2940  -11.3480   32.1400 C.2    79  HIS79       0.2264
    101  O         12.1320  -10.9970   32.3450 O.2    79  HIS79      -0.2867
    102  CB        14.0700  -13.4930   31.0480 C.3    79  HIS79       0.0745
    103  CG        14.1160  -14.2820   29.7720 C.ar   79  HIS79       0.0817
    104  ND1       14.1510  -15.6640   29.7450 N.ar   79  HIS79      -0.2268
    105  CD2       14.1090  -13.8790   28.4850 C.ar   79  HIS79       0.1154
    106  CE1       14.1620  -16.0700   28.4880 C.ar   79  HIS79       0.1986
    107  NE2       14.1370  -15.0100   27.7020 N.ar   79  HIS79      -0.2212
    108  N         11.2140   -8.3730   31.7730 N.3    82  ILE82      -0.1231
    109  CA         9.8460   -8.7090   31.3960 C.3    82  ILE82       0.1692
    110  C          9.0310   -9.1320   32.6140 C.2    82  ILE82       0.2592
    111  O          7.8990   -8.7030   32.8070 O.2    82  ILE82      -0.2718
    112  CB         9.8420   -9.8240   30.2940 C.3    82  ILE82       0.0266
    113  CG1       10.2700   -9.2080   28.9540 C.3    82  ILE82       0.0019
    114  CG2        8.4700  -10.4670   30.1710 C.3    82  ILE82       0.0020
    115  CD1       10.5270  -10.2060   27.8400 C.3    82  ILE82       0.0001
    116  N          9.6310   -9.9620   33.4490 N.am   83  TYR83      -0.1976
    117  CA         8.9710  -10.4420   34.6450 C.3    83  TYR83       0.1639
    118  C          8.5600   -9.3350   35.6170 C.2    83  TYR83       0.2290
    119  O          7.4030   -9.2810   36.0410 O.2    83  TYR83      -0.2864
    120  CB         9.8730  -11.4440   35.3470 C.3    83  TYR83       0.0560
    121  CG         9.5370  -12.8730   35.0220 C.ar   83  TYR83      -0.0198
    122  CD1        9.4310  -13.3040   33.7010 C.ar   83  TYR83      -0.0009
    123  CD2        9.3350  -13.8030   36.0410 C.ar   83  TYR83      -0.0009
    124  CE1        9.1370  -14.6380   33.4000 C.ar   83  TYR83       0.0417
    125  CE2        9.0410  -15.1300   35.7560 C.ar   83  TYR83       0.0417
    126  CZ         8.9460  -15.5450   34.4340 C.ar   83  TYR83       0.1957
    127  OH         8.6950  -16.8650   34.1460 O.3    83  TYR83      -0.2866
@<TRIPOS>BOND
     1    68    66   am
     2    59    58    1
     3    66    67    2
     4    66    65    1
     5    65    64    1
     6    57    58   ar
     7    57    55   ar
     8    58    56   ar
     9    51    50    2
    10    55    53   ar
    11    56    54   ar
    12    64    61    1
    13    60    61    1
    14    50    49    1
    15    43    42    2
    16    53    54   ar
    17    53    52    1
    18    61    62    1
    19    46    45    1
    20    46    47    1
    21    49    52    1
    22    49    48    1
    23    42    41    1
    24    45    44    1
    25    62    63    2
    26    41    44    1
    27    41    40    1
    28    35    34    2
    29    40    34   am
    30    34    33    1
    31    38    36    1
    32    33    36    1
    33    33    32    1
    34    36    37    1
    35    31    30    2
    36    30    29    1
    37    37    39    1
    38    97    95    1
    39    83    82    2
    40    96    95    1
    41    95    92    1
    42    29    28    1
    43    80    81    1
    44    17    19   ar
    45    17    15   ar
    46    19    18   ar
    47    91    92    1
    48    82    81    1
    49    23    22    2
    50    92    93    1
    51    81    84    1
    52    28    22   am
    53    22    21    1
    54    15    14   ar
    55    18    16   ar
    56    12    11    2
    57    93    94    2
    58    89    90   ar
    59    89    87   ar
    60    90    88   ar
    61    87    85   ar
    62    88    86   ar
    63    85    86   ar
    64    85    84    1
    65    14    16   ar
    66    14    13    1
    67    21    20    1
    68    21    24    1
    69    11    10    1
    70    10    13    1
    71    10     9    1
    72     4     3    2
    73    24    25    1
    74   107   105   ar
    75   107   106   ar
    76   115   113    1
    77    27    25    1
    78     3     9   am
    79     3     2    1
    80   105   103   ar
    81   106   104   ar
    82    25    26    1
    83    76    78   ar
    84    76    74   ar
    85    78    79   ar
    86   113   112    1
    87    73    74    1
    88    73    70    1
    89     2     5    1
    90     2     1    1
    91    74    75   ar
    92    79    77   ar
    93   104   103   ar
    94   103   102    1
    95     7     6    1
    96    98    99    1
    97     5     6    1
    98   114   112    1
    99   112   109    1
   100    69    70    1
   101    75    77   ar
   102    70    71    1
   103    99   102    1
   104    99   100    1
   105     6     8    1
   106    71    72    2
   107   109   108    1
   108   109   110    1
   109   100   101    2
   110   110   111    2
   111   110   116   am
   112   124   122   ar
   113   124   126   ar
   114   116   117    1
   115   122   121   ar
   116   127   126    1
   117   126   125   ar
   118   117   120    1
   119   117   118    1
   120   121   120    1
   121   121   123   ar
   122   118   119    2
   123   125   123   ar
