@<TRIPOS>MOLECULE
tmp/3jztD00.pdb
 211 209 0 0 0
SMALL
GASTEIGER

@<TRIPOS>ATOM
      1  N        -35.0370  -79.7920   41.0750 N.3    17  GLY17      -0.1210
      2  CA       -36.4320  -79.4860   40.8280 C.3    17  GLY17       0.1956
      3  C        -36.7510  -78.0470   41.0380 C.2    17  GLY17       0.2612
      4  O        -35.8610  -77.1950   41.0700 O.2    17  GLY17      -0.2717
      5  N        -38.0320  -77.7720   41.1780 N.am   18  ASP18      -0.1959
      6  CA       -38.4710  -76.4130   41.3560 C.3    18  ASP18       0.1840
      7  C        -38.5550  -76.1750   42.7590 C.2    18  ASP18       0.2621
      8  O        -38.8580  -77.0920   43.4810 O.2    18  ASP18      -0.2715
      9  CB       -39.8630  -76.2570   40.8540 C.3    18  ASP18       0.1450
     10  CG       -39.9500  -75.2700   39.7410 C.2    18  ASP18       0.3671
     11  OD1      -38.8560  -74.8420   39.2190 O.co2  18  ASP18      -0.2456
     12  OD2      -41.1230  -74.9330   39.3870 O.co2  18  ASP18      -0.2456
     13  N        -38.3570  -74.9470   43.1840 N.am   19  LEU19      -0.1977
     14  CA       -38.2680  -74.8000   44.6070 C.3    19  LEU19       0.1596
     15  C        -39.5920  -75.0930   45.3000 C.2    19  LEU19       0.2287
     16  O        -39.7180  -76.0530   46.0610 O.2    19  LEU19      -0.2864
     17  CB       -37.7250  -73.4620   45.0330 C.3    19  LEU19       0.0297
     18  CG       -37.7850  -73.4850   46.5640 C.3    19  LEU19       0.0022
     19  CD1      -36.9790  -74.6100   47.1020 C.3    19  LEU19       0.0001
     20  CD2      -37.2360  -72.2240   47.1030 C.3    19  LEU19       0.0001
     21  N        -29.6650  -68.7680   50.4820 N.3    34  ALA34      -0.1231
     22  CA       -28.4780  -67.9840   50.0800 C.3    34  ALA34       0.1694
     23  C        -28.8690  -66.5330   49.8840 C.2    34  ALA34       0.2592
     24  O        -29.5130  -66.1970   48.8690 O.2    34  ALA34      -0.2718
     25  CB       -27.9150  -68.5240   48.7830 C.3    34  ALA34       0.0304
     26  N        -28.5100  -65.6750   50.8320 N.am   35  ALA35      -0.1966
     27  CA       -28.9130  -64.3120   50.7200 C.3    35  ALA35       0.1728
     28  C        -27.6830  -63.5470   50.9890 C.2    35  ALA35       0.2616
     29  O        -26.6220  -64.1570   51.1010 O.2    35  ALA35      -0.2715
     30  CB       -29.9520  -64.0060   51.7120 C.3    35  ALA35       0.0334
     31  N        -27.8400  -62.2140   51.0910 N.am   36  ASN36      -0.1972
     32  CA       -26.7240  -61.2040   51.2500 C.3    36  ASN36       0.1688
     33  C        -26.7990  -60.2740   52.4430 C.2    36  ASN36       0.2292
     34  O        -27.6820  -60.3420   53.2690 O.2    36  ASN36      -0.2864
     35  CB       -26.6740  -60.2370   50.0670 C.3    36  ASN36       0.1181
     36  CG       -28.0200  -59.6570   49.7830 C.2    36  ASN36       0.2629
     37  OD1      -28.9540  -60.4110   49.4350 O.2    36  ASN36      -0.2716
     38  ND2      -28.1740  -58.3300   49.9890 N.am   36  ASN36      -0.0877
     39  N        -31.6830  -57.8890   50.8130 N.3    40  ARG40      -0.1231
     40  CA       -32.7110  -57.6260   49.8470 C.3    40  ARG40       0.1694
     41  C        -32.7740  -58.8990   49.0150 C.2    40  ARG40       0.2592
     42  O        -31.7900  -59.5970   48.8780 O.2    40  ARG40      -0.2718
     43  CB       -32.3680  -56.3790   49.0270 C.3    40  ARG40       0.0321
     44  CG       -32.4600  -55.0490   49.8430 C.3    40  ARG40       0.0489
     45  CD       -33.0600  -53.8140   49.0380 C.3    40  ARG40       0.2205
     46  NE       -32.1350  -53.2720   48.0340 N.pl3  40  ARG40      -0.0865
     47  CZ       -30.8330  -53.0230   48.2580 C.cat  40  ARG40       0.5346
     48  NH1      -30.0910  -52.5190   47.2630 N.pl3  40  ARG40       0.1354
     49  NH2      -30.2620  -53.2800   49.4650 N.pl3  40  ARG40       0.1354
     50  N        -33.9070  -59.2700   48.4880 N.am   41  HIS41      -0.1962
     51  CA       -33.9430  -60.6250   48.0470 C.3    41  HIS41       0.1787
     52  C        -34.2430  -60.8040   46.5800 C.2    41  HIS41       0.2620
     53  O        -35.2950  -61.3780   46.2600 O.2    41  HIS41      -0.2715
     54  CB       -34.9780  -61.3750   48.8560 C.3    41  HIS41       0.0785
     55  CG       -34.5940  -61.6080   50.2800 C.ar   41  HIS41       0.0821
     56  ND1      -33.6210  -62.5110   50.6450 N.ar   41  HIS41      -0.2267
     57  CD2      -35.0980  -61.1040   51.4360 C.ar   41  HIS41       0.1154
     58  CE1      -33.5330  -62.5430   51.9650 C.ar   41  HIS41       0.1986
     59  NE2      -34.4170  -61.6970   52.4690 N.ar   41  HIS41      -0.2212
     60  N        -33.3480  -60.3640   45.6800 N.am   42  VAL42      -0.1963
     61  CA       -33.5870  -60.5550   44.2140 C.3    42  VAL42       0.1727
     62  C        -33.0350  -61.8530   43.6320 C.2    42  VAL42       0.2617
     63  O        -31.9750  -62.3200   44.0110 O.2    42  VAL42      -0.2715
     64  CB       -33.0010  -59.4440   43.3380 C.3    42  VAL42       0.0290
     65  CG1      -33.8660  -58.1580   43.3840 C.3    42  VAL42       0.0023
     66  CG2      -31.5380  -59.2520   43.6890 C.3    42  VAL42       0.0023
     67  N        -33.7530  -62.4250   42.6830 N.am   43  GLY43      -0.1940
     68  CA       -33.1890  -63.4920   41.8950 C.3    43  GLY43       0.2014
     69  C        -32.9170  -64.8020   42.6280 C.2    43  GLY43       0.2639
     70  O        -32.6520  -64.8580   43.8560 O.2    43  GLY43      -0.2714
     71  N        -32.9790  -65.8730   41.8390 N.am   44  GLY44      -0.1939
     72  CA       -32.8980  -67.2250   42.3540 C.3    44  GLY44       0.2014
     73  C        -33.5390  -67.4430   43.7210 C.2    44  GLY44       0.2639
     74  O        -34.6390  -66.9160   44.0460 O.2    44  GLY44      -0.2714
     75  N        -32.8390  -68.2290   44.5240 N.am   45  VAL45      -0.1963
     76  CA       -33.4650  -68.8780   45.5950 C.3    45  VAL45       0.1727
     77  C        -33.9980  -67.8980   46.5040 C.2    45  VAL45       0.2616
     78  O        -35.0750  -68.0550   47.0400 O.2    45  VAL45      -0.2715
     79  CB       -32.4840  -69.6560   46.2650 C.3    45  VAL45       0.0290
     80  CG1      -33.0030  -70.0650   47.5910 C.3    45  VAL45       0.0023
     81  CG2      -32.1770  -70.8670   45.3550 C.3    45  VAL45       0.0023
     82  N        -33.2520  -66.8540   46.7020 N.am   46  ALA46      -0.1963
     83  CA       -33.8390  -65.8820   47.4960 C.3    46  ALA46       0.1728
     84  C        -35.1970  -65.4800   46.9000 C.2    46  ALA46       0.2616
     85  O        -36.2200  -65.6470   47.5510 O.2    46  ALA46      -0.2715
     86  CB       -32.9470  -64.7480   47.6460 C.3    46  ALA46       0.0334
     87  N        -35.2720  -64.9660   45.6800 N.am   47  ARG47      -0.1963
     88  CA       -36.5520  -64.3750   45.3960 C.3    47  ARG47       0.1729
     89  C        -37.6210  -65.4080   45.6040 C.2    47  ARG47       0.2616
     90  O        -38.5290  -65.2130   46.3980 O.2    47  ARG47      -0.2715
     91  CB       -36.6730  -63.7390   44.0510 C.3    47  ARG47       0.0348
     92  CG       -37.9120  -62.8780   44.0000 C.3    47  ARG47       0.0492
     93  CD       -38.6860  -63.1800   42.7810 C.3    47  ARG47       0.2205
     94  NE       -37.7840  -63.6540   41.7290 N.pl3  47  ARG47      -0.0865
     95  CZ       -37.4890  -64.9390   41.4510 C.cat  47  ARG47       0.5346
     96  NH1      -38.0340  -65.9340   42.1330 N.pl3  47  ARG47       0.1354
     97  NH2      -36.6450  -65.2330   40.4520 N.pl3  47  ARG47       0.1354
     98  N        -37.4840  -66.5430   44.9390 N.am   48  ALA48      -0.1977
     99  CA       -38.4220  -67.6750   45.0990 C.3    48  ALA48       0.1597
    100  C        -39.0060  -67.8230   46.4790 C.2    48  ALA48       0.2287
    101  O        -40.1980  -67.7830   46.6490 O.2    48  ALA48      -0.2864
    102  CB       -37.7350  -68.9360   44.7480 C.3    48  ALA48       0.0319
    103  N        -18.6680  -63.8580   47.9970 N.3    95  ARG95      -0.1245
    104  CA       -18.8300  -63.5480   46.6380 C.3    95  ARG95       0.1563
    105  C        -17.6200  -64.0910   46.0050 C.2    95  ARG95       0.2260
    106  O        -16.6670  -64.3940   46.7110 O.2    95  ARG95      -0.2867
    107  CB       -18.7310  -62.0860   46.5250 C.3    95  ARG95       0.0307
    108  CG       -19.6470  -61.5200   45.5270 C.3    95  ARG95       0.0489
    109  CD       -19.5120  -60.0040   45.4670 C.3    95  ARG95       0.2205
    110  NE       -20.8550  -59.4050   45.5480 N.pl3  95  ARG95      -0.0865
    111  CZ       -21.6720  -59.5220   46.6070 C.cat  95  ARG95       0.5346
    112  NH1      -21.3340  -60.1830   47.6670 N.pl3  95  ARG95       0.1354
    113  NH2      -22.8580  -59.0000   46.6210 N.pl3  95  ARG95       0.1354
    114  N        -29.8840  -75.1110   49.2990 N.3   122  PRO122     -0.2102
    115  CA       -29.1500  -75.0520   48.0770 C.3   122  PRO122      0.1504
    116  C        -27.6590  -75.1310   48.3740 C.2   122  PRO122      0.2576
    117  O        -27.2630  -75.1190   49.5330 O.2   122  PRO122     -0.2718
    118  CB       -29.4910  -73.6460   47.5680 C.3   122  PRO122      0.0282
    119  CG       -29.6310  -72.8440   48.8550 C.3   122  PRO122      0.0208
    120  CD       -30.3120  -73.7900   49.7850 C.3   122  PRO122      0.0893
    121  N        -26.8490  -75.1910   47.3230 N.am  123  LEU123     -0.1966
    122  CA       -25.4380  -75.0010   47.4660 C.3   123  LEU123      0.1728
    123  C        -25.1510  -73.5310   47.6290 C.2   123  LEU123      0.2616
    124  O        -25.3920  -72.7730   46.7160 O.2   123  LEU123     -0.2715
    125  CB       -24.7740  -75.5100   46.2220 C.3   123  LEU123      0.0311
    126  CG       -24.8350  -77.0250   46.2370 C.3   123  LEU123      0.0022
    127  CD1      -23.9950  -77.5340   45.1090 C.3   123  LEU123      0.0001
    128  CD2      -24.3310  -77.6170   47.5180 C.3   123  LEU123      0.0001
    129  N        -24.6370  -73.1150   48.7730 N.am  124  ILE124     -0.1963
    130  CA       -24.4460  -71.6900   48.9590 C.3   124  ILE124      0.1727
    131  C        -23.3960  -71.1020   48.0650 C.2   124  ILE124      0.2617
    132  O        -22.4240  -71.7520   47.7820 O.2   124  ILE124     -0.2715
    133  CB       -24.0370  -71.3430   50.3380 C.3   124  ILE124      0.0290
    134  CG1      -25.2110  -71.5690   51.2730 C.3   124  ILE124      0.0022
    135  CG2      -23.5640  -69.8810   50.3850 C.3   124  ILE124      0.0023
    136  CD1      -26.5090  -70.9940   50.7930 C.3   124  ILE124      0.0001
    137  N        -23.5980  -69.8470   47.6400 N.am  125  SER125     -0.1936
    138  CA       -22.6060  -69.0470   46.8380 C.3   125  SER125      0.2055
    139  C        -22.3930  -69.3730   45.3420 C.2   125  SER125      0.2643
    140  O        -21.7560  -68.6170   44.6070 O.2   125  SER125     -0.2714
    141  CB       -21.2620  -69.0910   47.5080 C.3   125  SER125      0.2130
    142  OG       -21.0610  -67.9700   48.3370 O.3   125  SER125     -0.2179
    143  N        -22.9620  -70.4930   44.9370 N.am  126  VAL126     -0.1963
    144  CA       -22.8080  -71.1010   43.6530 C.3   126  VAL126      0.1727
    145  C        -23.4490  -70.4050   42.4470 C.2   126  VAL126      0.2617
    146  O        -22.8570  -70.3930   41.3770 O.2   126  VAL126     -0.2715
    147  CB       -23.3570  -72.5050   43.7710 C.3   126  VAL126      0.0290
    148  CG1      -23.9960  -72.9990   42.4670 C.3   126  VAL126      0.0023
    149  CG2      -22.2630  -73.4270   44.2900 C.3   126  VAL126      0.0023
    150  N        -24.6600  -69.8650   42.5810 N.am  127  GLY127     -0.1940
    151  CA       -25.3040  -69.1080   41.4680 C.3   127  GLY127      0.2014
    152  C        -24.7330  -67.6940   41.3040 C.2   127  GLY127      0.2639
    153  O        -23.5460  -67.4860   41.3560 O.2   127  GLY127     -0.2714
    154  N        -25.5770  -66.7230   41.0790 N.am  128  ILE128     -0.1963
    155  CA       -25.1510  -65.3390   41.0080 C.3   128  ILE128      0.1727
    156  C        -23.7730  -64.9560   41.5820 C.2   128  ILE128      0.2616
    157  O        -23.0130  -64.1770   40.9540 O.2   128  ILE128     -0.2715
    158  CB       -26.1600  -64.5390   41.7450 C.3   128  ILE128      0.0290
    159  CG1      -27.5020  -64.6040   40.9950 C.3   128  ILE128      0.0022
    160  CG2      -25.6480  -63.1120   42.0000 C.3   128  ILE128      0.0023
    161  CD1      -28.6930  -64.2830   41.8640 C.3   128  ILE128      0.0001
    162  N        -23.4690  -65.4340   42.7930 N.am  129  PHE129     -0.1974
    163  CA       -22.1390  -65.1850   43.3940 C.3   129  PHE129      0.1639
    164  C        -20.9310  -65.7640   42.6440 C.2   129  PHE129      0.2290
    165  O        -19.7890  -65.3430   42.8910 O.2   129  PHE129     -0.2864
    166  CB       -22.0970  -65.6770   44.8160 C.3   129  PHE129      0.0560
    167  CG       -22.7750  -64.7720   45.7520 C.ar  129  PHE129     -0.0200
    168  CD1      -22.6430  -63.4010   45.6230 C.ar  129  PHE129     -0.0042
    169  CD2      -23.5450  -65.2690   46.7780 C.ar  129  PHE129     -0.0042
    170  CE1      -23.2870  -62.5670   46.4920 C.ar  129  PHE129     -0.0003
    171  CE2      -24.1750  -64.4140   47.6610 C.ar  129  PHE129     -0.0003
    172  CZ       -24.0330  -63.0580   47.5140 C.ar  129  PHE129     -0.0000
    173  N        -30.3180  -79.1300   47.0270 N.3   152  PHE152     -0.1227
    174  CA       -31.0220  -78.9260   45.7900 C.3   152  PHE152      0.1736
    175  C        -30.3790  -77.9690   44.7670 C.2   152  PHE152      0.2595
    176  O        -29.6380  -76.9940   45.0960 O.2   152  PHE152     -0.2718
    177  CB       -32.4910  -78.5840   46.0720 C.3   152  PHE152      0.0547
    178  CG       -32.7190  -77.1830   46.5720 C.ar  152  PHE152     -0.0202
    179  CD1      -33.2960  -76.2450   45.7420 C.ar  152  PHE152     -0.0042
    180  CD2      -32.3690  -76.7940   47.8760 C.ar  152  PHE152     -0.0042
    181  CE1      -33.5110  -74.9140   46.1980 C.ar  152  PHE152     -0.0003
    182  CE2      -32.5910  -75.4770   48.3370 C.ar  152  PHE152     -0.0003
    183  CZ       -33.1460  -74.5400   47.4990 C.ar  152  PHE152     -0.0000
    184  N        -30.6510  -78.2740   43.5070 N.am  153  VAL153     -0.1966
    185  CA       -30.1970  -77.4380   42.4350 C.3   153  VAL153      0.1727
    186  C        -31.2780  -77.3350   41.3940 C.2   153  VAL153      0.2616
    187  O        -32.0630  -78.2860   41.2130 O.2   153  VAL153     -0.2715
    188  CB       -29.0290  -78.0300   41.8070 C.3   153  VAL153      0.0290
    189  CG1      -27.8770  -77.6650   42.6100 C.3   153  VAL153      0.0023
    190  CG2      -29.2530  -79.5070   41.7450 C.3   153  VAL153      0.0023
    191  N        -31.2680  -76.1780   40.7050 N.am  154  TYR154     -0.1974
    192  CA       -32.2240  -75.7570   39.6620 C.3   154  TYR154      0.1639
    193  C        -32.0910  -76.4150   38.2160 C.2   154  TYR154      0.2290
    194  O        -32.9060  -77.2830   37.8650 O.2   154  TYR154     -0.2864
    195  CB       -32.1600  -74.2470   39.5790 C.3   154  TYR154      0.0560
    196  CG       -33.3930  -73.5940   39.0370 C.ar  154  TYR154     -0.0198
    197  CD1      -34.5300  -74.3480   38.7090 C.ar  154  TYR154     -0.0009
    198  CD2      -33.4410  -72.1900   38.8660 C.ar  154  TYR154     -0.0009
    199  CE1      -35.7050  -73.7140   38.1930 C.ar  154  TYR154      0.0417
    200  CE2      -34.5870  -71.5420   38.3530 C.ar  154  TYR154      0.0417
    201  CZ       -35.7240  -72.3020   38.0170 C.ar  154  TYR154      0.1957
    202  OH       -36.8620  -71.6620   37.5170 O.3   154  TYR154     -0.2866
    203  N        -26.7440  -78.2240   36.2810 N.3   158  GLU158     -0.1245
    204  CA       -26.0690  -78.3220   37.5470 C.3   158  GLU158      0.1567
    205  C        -26.0510  -79.7380   37.9420 C.2   158  GLU158      0.2260
    206  O        -25.0290  -80.2730   38.3350 O.2   158  GLU158     -0.2867
    207  CB       -26.8150  -77.5720   38.6020 C.3   158  GLU158      0.0388
    208  CG       -26.3900  -76.1820   38.7770 C.3   158  GLU158      0.1160
    209  CD       -27.4690  -75.4230   39.4780 C.2   158  GLU158      0.3649
    210  OE1      -27.1560  -74.7560   40.4720 O.co2 158  GLU158     -0.2457
    211  OE2      -28.6470  -75.5210   39.0740 O.co2 158  GLU158     -0.2457
@<TRIPOS>BOND
     1   203   204    1
     2   202   201    1
     3   204   205    1
     4   204   207    1
     5   194   193    2
     6   205   206    2
     7   201   199   ar
     8   201   200   ar
     9   199   197   ar
    10   193   192    1
    11   200   198   ar
    12   207   208    1
    13   197   196   ar
    14   208   209    1
    15   198   196   ar
    16   196   195    1
    17   211   209   ar
    18    11    10   ar
    19    12    10   ar
    20   209   210   ar
    21   195   192    1
    22   192   191    1
    23    10     9    1
    24    97    95    1
    25   191   186   am
    26     2     3    1
    27     2     1    1
    28     9     6    1
    29   157   156    2
    30   159   158    1
    31   159   161    1
    32   155   154    1
    33   155   156    1
    34   155   158    1
    35     3     4    2
    36     3     5   am
    37   154   152   am
    38     5     6    1
    39   187   186    2
    40   152   153    2
    41   152   151    1
    42     6     7    1
    43   146   145    2
    44   186   185    1
    45    95    94    2
    46    95    96    1
    47   151   150    1
    48   156   162   am
    49    94    93    1
    50   190   188    1
    51   158   160    1
    52   188   185    1
    53   188   189    1
    54    71    72    1
    55    71    69   am
    56    68    69    1
    57    68    67    1
    58    72    73    1
    59   185   184    1
    60   145   150   am
    61   145   144    1
    62   148   147    1
    63    69    70    2
    64   164   165    2
    65   164   163    1
    66    67    62   am
    67     7    13   am
    68     7     8    2
    69    93    92    1
    70   162   163    1
    71    13    14    1
    72    64    65    1
    73    64    66    1
    74    64    61    1
    75   163   166    1
    76   184   175   am
    77    62    63    2
    78    62    61    1
    79   144   147    1
    80   144   143    1
    81    73    74    2
    82    73    75   am
    83   147   149    1
    84    92    91    1
    85    91    88    1
    86    61    60    1
    87    75    76    1
    88   140   139    2
    89    14    17    1
    90    14    15    1
    91   102    99    1
    92   175   176    2
    93   175   174    1
    94   166   167    1
    95   143   139   am
    96    98    99    1
    97    98    89   am
    98    17    18    1
    99    99   100    1
   100   127   126    1
   101    15    16    2
   102   139   138    1
   103    81    79    1
   104    88    89    1
   105    88    87    1
   106   109   108    1
   107   109   110    1
   108   108   107    1
   109   110   111    2
   110    76    79    1
   111    76    77    1
   112    89    90    2
   113   168   167   ar
   114   168   170   ar
   115    87    84   am
   116    60    52   am
   117   179   181   ar
   118   179   178   ar
   119   167   169   ar
   120   174   177    1
   121   174   173    1
   122   105   104    1
   123   105   106    2
   124   177   178    1
   125   181   183   ar
   126   125   126    1
   127   125   122    1
   128   126   128    1
   129    53    52    2
   130    79    80    1
   131   100   101    2
   132   170   172   ar
   133    77    82   am
   134    77    78    2
   135   107   104    1
   136    18    19    1
   137    18    20    1
   138   178   180   ar
   139    52    51    1
   140   111   113    1
   141   111   112    1
   142   104   103    1
   143    82    83    1
   144   124   123    2
   145   169   171   ar
   146   138   141    1
   147   138   137    1
   148    84    83    1
   149    84    85    2
   150    48    47    1
   151   121   122    1
   152   121   116   am
   153   122   123    1
   154    83    86    1
   155   183   182   ar
   156   141   142    1
   157   172   171   ar
   158   118   115    1
   159   118   119    1
   160   123   129   am
   161   137   131   am
   162   132   131    2
   163   180   182   ar
   164    46    47    2
   165    46    45    1
   166    51    50    1
   167    51    54    1
   168   131   130    1
   169   115   116    1
   170   115   114    1
   171    47    49    1
   172   116   117    2
   173    50    41   am
   174   129   130    1
   175    25    22    1
   176   119   120    1
   177    54    55    1
   178    24    23    2
   179    42    41    2
   180   130   133    1
   181    41    40    1
   182    43    44    1
   183    43    40    1
   184    45    44    1
   185   114   120    1
   186    37    36    2
   187    36    38   am
   188    36    35    1
   189    40    39    1
   190    23    22    1
   191    23    26   am
   192    35    32    1
   193    22    21    1
   194    55    56   ar
   195    55    57   ar
   196   133   135    1
   197   133   134    1
   198    56    58   ar
   199    27    26    1
   200    27    28    1
   201    27    30    1
   202   136   134    1
   203    28    31   am
   204    28    29    2
   205    31    32    1
   206    32    33    1
   207    57    59   ar
   208    58    59   ar
   209    33    34    2
