@<TRIPOS>MOLECULE
tmp/3jzuG00.pdb
 101 92 0 0 0
SMALL
GASTEIGER

@<TRIPOS>ATOM
      1  N        -32.8630 -100.0920   15.6780 N.3    15  LEU15      -0.1245
      2  CA       -31.5650  -99.6650   15.1710 C.3    15  LEU15       0.1561
      3  C        -30.5220 -100.7510   15.4160 C.2    15  LEU15       0.2260
      4  O        -30.5400 -101.4130   16.4560 O.2    15  LEU15      -0.2867
      5  CB       -31.1220  -98.3660   15.8580 C.3    15  LEU15       0.0270
      6  CG       -32.0400  -97.1400   15.7750 C.3    15  LEU15       0.0019
      7  CD1      -31.3790  -95.9700   16.4890 C.3    15  LEU15       0.0001
      8  CD2      -32.3190  -96.7850   14.3220 C.3    15  LEU15       0.0001
      9  N        -28.1950  -95.1250   19.7240 N.3    19  PHE19      -0.1241
     10  CA       -27.4480  -93.8740   19.6530 C.3    19  PHE19       0.1605
     11  C        -27.6000  -93.0370   20.9160 C.2    19  PHE19       0.2264
     12  O        -28.6770  -92.9790   21.5110 O.2    19  PHE19      -0.2867
     13  CB       -27.8880  -93.0490   18.4400 C.3    19  PHE19       0.0534
     14  CG       -26.8460  -92.9600   17.3630 C.ar   19  PHE19      -0.0203
     15  CD1      -26.5510  -94.0640   16.5670 C.ar   19  PHE19      -0.0042
     16  CD2      -26.1380  -91.7780   17.1610 C.ar   19  PHE19      -0.0042
     17  CE1      -25.5640  -93.9940   15.5860 C.ar   19  PHE19      -0.0003
     18  CE2      -25.1490  -91.6970   16.1840 C.ar   19  PHE19      -0.0003
     19  CZ       -24.8610  -92.8070   15.3950 C.ar   19  PHE19      -0.0000
     20  N        -26.7590  -89.1550   22.7260 N.3    21  ILE21      -0.1245
     21  CA       -26.3850  -87.7500   22.6020 C.3    21  ILE21       0.1561
     22  C        -26.4970  -87.1470   23.9980 C.2    21  ILE21       0.2260
     23  O        -26.8440  -87.8470   24.9520 O.2    21  ILE21      -0.2867
     24  CB       -27.3190  -86.9700   21.6360 C.3    21  ILE21       0.0252
     25  CG1      -28.7660  -87.0310   22.1300 C.3    21  ILE21       0.0019
     26  CG2      -27.1950  -87.5310   20.2250 C.3    21  ILE21       0.0019
     27  CD1      -29.7210  -86.1590   21.3340 C.3    21  ILE21       0.0001
     28  N        -23.0410  -89.3950   11.5760 N.3   134  THR134     -0.1218
     29  CA       -23.0330  -89.0790   13.0020 C.3   134  THR134      0.1862
     30  C        -22.3380  -90.1530   13.8370 C.2   134  THR134      0.2287
     31  O        -22.3340  -91.3290   13.4800 O.2   134  THR134     -0.2866
     32  CB       -24.4810  -88.9040   13.5310 C.3   134  THR134      0.1770
     33  OG1      -25.1330  -87.8500   12.8090 O.3   134  THR134     -0.2211
     34  CG2      -24.4780  -88.5610   15.0140 C.3   134  THR134      0.0375
     35  N        -19.7050  -86.3790   11.9360 N.3   159  LYS159     -0.1245
     36  CA       -20.3850  -85.5460   12.9240 C.3   159  LYS159      0.1561
     37  C        -20.2160  -86.1900   14.2980 C.2   159  LYS159      0.2260
     38  O        -20.9290  -87.1360   14.6470 O.2   159  LYS159     -0.2867
     39  CB       -21.8750  -85.4220   12.5940 C.3   159  LYS159      0.0271
     40  CG       -22.6490  -84.5390   13.5640 C.3   159  LYS159      0.0035
     41  CD       -24.0840  -84.3350   13.1060 C.3   159  LYS159      0.0206
     42  CE       -24.8300  -83.3890   14.0250 C.3   159  LYS159      0.1093
     43  NZ       -26.2120  -83.1170   13.5410 N.3   159  LYS159     -0.1314
     44  N        -20.5730  -86.5290   18.1820 N.3   161  LYS161     -0.1245
     45  CA       -21.4400  -86.1270   19.2860 C.3   161  LYS161      0.1561
     46  C        -20.6250  -85.9900   20.5720 C.2   161  LYS161      0.2260
     47  O        -19.7920  -86.8420   20.8820 O.2   161  LYS161     -0.2867
     48  CB       -22.5540  -87.1520   19.4960 C.3   161  LYS161      0.0271
     49  CG       -23.6330  -87.1330   18.4250 C.3   161  LYS161      0.0035
     50  CD       -24.4180  -85.8330   18.4640 C.3   161  LYS161      0.0206
     51  CE       -25.4570  -85.7770   17.3590 C.3   161  LYS161      0.1093
     52  NZ       -26.2100  -84.4930   17.3930 N.3   161  LYS161     -0.1314
     53  N        -34.3970  -78.7240    9.9560 N.3   264  LYS264     -0.1245
     54  CA       -35.0180  -80.0390   10.0830 C.3   264  LYS264      0.1561
     55  C        -36.4970  -79.8760    9.7720 C.2   264  LYS264      0.2260
     56  O        -37.1710  -79.0640   10.4040 O.2   264  LYS264     -0.2867
     57  CB       -34.8820  -80.5840   11.5100 C.3   264  LYS264      0.0271
     58  CG       -33.5000  -81.0770   11.9020 C.3   264  LYS264      0.0035
     59  CD       -33.5420  -81.6870   13.3050 C.3   264  LYS264      0.0206
     60  CE       -32.1850  -82.2050   13.7480 C.3   264  LYS264      0.1093
     61  NZ       -31.1680  -81.1250   13.8280 N.3   264  LYS264     -0.1314
     62  N        -31.6540  -84.1290   10.4300 N.3   292  CYS292     -0.1221
     63  CA       -32.6950  -85.1260   10.6210 C.3   292  CYS292      0.1808
     64  C        -32.8850  -85.5310   12.0730 C.2   292  CYS292      0.2601
     65  O        -32.0730  -85.2120   12.9420 O.2   292  CYS292     -0.2717
     66  CB       -32.3830  -86.3790    9.7930 C.3   292  CYS292      0.0970
     67  SG       -30.7890  -87.1590   10.1680 S.3   292  CYS292     -0.0800
     68  N        -33.9820  -86.2380   12.3120 N.am  293  MET293     -0.1965
     69  CA       -34.3390  -86.7460   13.6260 C.3   293  MET293      0.1736
     70  C        -34.1710  -88.2580   13.5490 C.2   293  MET293      0.2616
     71  O        -34.8090  -88.9100   12.7250 O.2   293  MET293     -0.2715
     72  CB       -35.7950  -86.4140   13.9330 C.3   293  MET293      0.0427
     73  CG       -36.1040  -84.9370   13.8770 C.3   293  MET293      0.0599
     74  SD       -35.4510  -84.0510   15.2990 S.3   293  MET293     -0.1393
     75  CE       -36.9730  -83.6750   16.1540 C.3   293  MET293      0.0692
     76  N        -33.3170  -88.8160   14.4030 N.am  294  ALA294     -0.1977
     77  CA       -33.0790  -90.2550   14.4030 C.3   294  ALA294      0.1597
     78  C        -34.3630  -91.0760   14.2370 C.2   294  ALA294      0.2287
     79  O        -34.3160  -92.2090   13.7580 O.2   294  ALA294     -0.2864
     80  CB       -32.3560  -90.6600   15.6840 C.3   294  ALA294      0.0319
     81  N        -26.7280  -83.5860    6.7370 N.3   318  ASP318     -0.1239
     82  CA       -26.5580  -84.5280    7.8330 C.3   318  ASP318      0.1674
     83  C        -27.7760  -85.4410    7.8290 C.2   318  ASP318      0.2266
     84  O        -28.5790  -85.4310    8.7620 O.2   318  ASP318     -0.2867
     85  CB       -26.4500  -83.7750    9.1660 C.3   318  ASP318      0.1410
     86  CG       -26.4120  -84.7030   10.3730 C.2   318  ASP318      0.3668
     87  OD1      -25.5200  -85.5810   10.4380 O.co2 318  ASP318     -0.2456
     88  OD2      -27.2770  -84.5450   11.2620 O.co2 318  ASP318     -0.2456
     89  N        -28.3530  -89.0690    7.8910 N.3   320  ASP320     -0.1225
     90  CA       -27.8210  -90.4020    8.1340 C.3   320  ASP320      0.1805
     91  C        -28.7540  -91.2410    9.0040 C.2   320  ASP320      0.2597
     92  O        -28.3020  -92.1430    9.7040 O.2   320  ASP320     -0.2718
     93  CB       -26.4440  -90.2810    8.8020 C.3   320  ASP320      0.1424
     94  CG       -26.5140  -89.6390   10.1830 C.2   320  ASP320      0.3668
     95  OD1      -27.3630  -88.7490   10.3840 O.co2 320  ASP320     -0.2456
     96  OD2      -25.7120  -90.0160   11.0650 O.co2 320  ASP320     -0.2456
     97  N        -30.0510  -90.9510    8.9480 N.am  321  ALA321     -0.1979
     98  CA       -31.0410  -91.6730    9.7450 C.3   321  ALA321      0.1597
     99  C        -31.4640  -93.0190    9.1550 C.2   321  ALA321      0.2287
    100  O        -32.3170  -93.7100    9.7240 O.2   321  ALA321     -0.2864
    101  CB       -32.2690  -90.8020    9.9520 C.3   321  ALA321      0.0319
@<TRIPOS>BOND
     1    81    82    1
     2    83    82    1
     3    83    84    2
     4    82    85    1
     5    89    90    1
     6    90    93    1
     7    90    91    1
     8    93    94    1
     9    97    91   am
    10    97    98    1
    11    91    92    2
    12    99   100    2
    13    99    98    1
    14    85    86    1
    15    98   101    1
    16    55    54    1
    17    55    56    2
    18    66    67    1
    19    66    63    1
    20    53    54    1
    21    54    57    1
    22    94    95   ar
    23    94    96   ar
    24    86    87   ar
    25    86    88   ar
    26    62    63    1
    27    63    64    1
    28    57    58    1
    29    28    29    1
    30    58    59    1
    31    35    36    1
    32    64    68   am
    33    64    65    2
    34    68    69    1
    35    39    36    1
    36    39    40    1
    37    71    70    2
    38    33    32    1
    39    36    37    1
    40    29    32    1
    41    29    30    1
    42    41    40    1
    43    41    42    1
    44    59    60    1
    45    31    30    2
    46    32    34    1
    47    43    42    1
    48    70    69    1
    49    70    76   am
    50    69    72    1
    51    60    61    1
    52    79    78    2
    53    73    72    1
    54    73    74    1
    55    78    77    1
    56    37    38    2
    57     8     6    1
    58    76    77    1
    59    77    80    1
    60     2     3    1
    61     2     1    1
    62     2     5    1
    63    74    75    1
    64    19    17   ar
    65    19    18   ar
    66     3     4    2
    67    17    15   ar
    68     6     5    1
    69     6     7    1
    70    18    16   ar
    71    15    14   ar
    72    16    14   ar
    73    51    52    1
    74    51    50    1
    75    14    13    1
    76    44    45    1
    77    49    50    1
    78    49    48    1
    79    13    10    1
    80    45    48    1
    81    45    46    1
    82    10     9    1
    83    10    11    1
    84    26    24    1
    85    46    47    2
    86    11    12    2
    87    27    25    1
    88    24    25    1
    89    24    21    1
    90    21    20    1
    91    21    22    1
    92    22    23    2
