@<TRIPOS>MOLECULE
tmp/3k00A00.pdb
 259 255 0 0 0
SMALL
GASTEIGER

@<TRIPOS>ATOM
      1  N         -0.1680   -5.6900   11.1680 N.3    11  THR11      -0.1203
      2  CA        -1.5440   -5.7320   11.6910 C.3    11  THR11       0.1994
      3  C         -2.1620   -4.3470   11.9240 C.2    11  THR11       0.2619
      4  O         -3.3040   -4.2490   12.4150 O.2    11  THR11      -0.2717
      5  CB        -1.5960   -6.4440   13.0540 C.3    11  THR11       0.1784
      6  OG1       -0.7570   -5.7300   13.9640 O.3    11  THR11      -0.2211
      7  CG2       -1.1400   -7.8930   12.9280 C.3    11  THR11       0.0376
      8  N         -1.4090   -3.2910   11.6080 N.am   12  SER12      -0.1937
      9  CA        -1.8400   -1.9320   11.9420 C.3    12  SER12       0.2055
     10  C         -3.1710   -1.5900   11.2660 C.2    12  SER12       0.2643
     11  O         -3.5250   -2.1990   10.2520 O.2    12  SER12      -0.2714
     12  CB        -0.7580   -0.9010   11.6010 C.3    12  SER12       0.2130
     13  OG        -0.6420   -0.6870   10.2050 O.3    12  SER12      -0.2179
     14  N         -3.9040   -0.6440   11.8590 N.am   13  ASN13      -0.1971
     15  CA        -5.2870   -0.3840   11.4700 C.3    13  ASN13       0.1688
     16  C         -5.3930    0.5580   10.2600 C.2    13  ASN13       0.2292
     17  O         -4.3820    0.9520    9.6690 O.2    13  ASN13      -0.2864
     18  CB        -6.1350    0.0740   12.6750 C.3    13  ASN13       0.1181
     19  CG        -5.7460    1.4420   13.2030 C.2    13  ASN13       0.2629
     20  OD1       -5.2970    2.3110   12.4550 O.2    13  ASN13      -0.2716
     21  ND2       -5.9440    1.6430   14.5080 N.am   13  ASN13      -0.0877
     22  N         -3.3450    3.7460   10.3630 N.3    16  GLU16      -0.1245
     23  CA        -1.9120    3.5590   10.5670 C.3    16  GLU16       0.1567
     24  C         -1.1960    2.9790    9.3410 C.2    16  GLU16       0.2260
     25  O          0.0350    3.1730    9.1570 O.2    16  GLU16      -0.2867
     26  CB        -1.6720    2.5830   11.7310 C.3    16  GLU16       0.0388
     27  CG        -2.1160    3.0960   13.1080 C.3    16  GLU16       0.1160
     28  CD        -2.0670    1.9990   14.1520 C.2    16  GLU16       0.3649
     29  OE1       -2.5490    0.8720   13.8860 O.co2  16  GLU16      -0.2457
     30  OE2       -1.5090    2.2560   15.2410 O.co2  16  GLU16      -0.2457
     31  N         -6.1740   -7.4650   12.5730 N.3    43  PHE43      -0.1227
     32  CA        -5.7390   -7.8230   13.9260 C.3    43  PHE43       0.1736
     33  C         -6.3290   -9.1440   14.4530 C.2    43  PHE43       0.2596
     34  O         -5.5920  -10.0050   14.9320 O.2    43  PHE43      -0.2718
     35  CB        -6.0580   -6.6830   14.9080 C.3    43  PHE43       0.0547
     36  CG        -5.8850   -7.0640   16.3620 C.ar   43  PHE43      -0.0202
     37  CD1       -4.6220   -7.2640   16.8960 C.ar   43  PHE43      -0.0042
     38  CD2       -6.9930   -7.2260   17.1880 C.ar   43  PHE43      -0.0042
     39  CE1       -4.4580   -7.6310   18.2260 C.ar   43  PHE43      -0.0003
     40  CE2       -6.8430   -7.5960   18.5280 C.ar   43  PHE43      -0.0003
     41  CZ        -5.5770   -7.7860   19.0490 C.ar   43  PHE43      -0.0000
     42  N         -7.6480   -9.2790   14.3610 N.am   44  GLY44      -0.1957
     43  CA        -8.3570  -10.4620   14.8960 C.3    44  GLY44       0.1869
     44  C         -8.0200  -11.7800   14.2210 C.2    44  GLY44       0.2309
     45  O         -8.1950  -12.8680   14.8170 O.2    44  GLY44      -0.2863
     46  N         -3.1270  -13.7410   14.3920 N.3    47  ASN47      -0.1240
     47  CA        -2.5350  -14.8210   15.1830 C.3    47  ASN47       0.1653
     48  C         -2.8000  -16.1830   14.5290 C.2    47  ASN47       0.2266
     49  O         -1.8710  -16.9710   14.3000 O.2    47  ASN47      -0.2867
     50  CB        -3.0520  -14.7860   16.6280 C.3    47  ASN47       0.1155
     51  CG        -2.3450  -15.7800   17.5310 C.2    47  ASN47       0.2627
     52  OD1       -2.5110  -16.9990   17.3910 O.2    47  ASN47      -0.2716
     53  ND2       -1.5750  -15.2650   18.4940 N.am   47  ASN47      -0.0877
     54  N          4.5370   -8.6040   12.4030 N.3    65  ARG65      -0.1245
     55  CA         4.2410   -7.6730   13.4950 C.3    65  ARG65       0.1563
     56  C          3.5420   -8.4790   14.5730 C.2    65  ARG65       0.2260
     57  O          2.4500   -9.0030   14.3570 O.2    65  ARG65      -0.2867
     58  CB         3.3790   -6.4910   13.0370 C.3    65  ARG65       0.0307
     59  CG         3.5360   -5.2580   13.9580 C.3    65  ARG65       0.0489
     60  CD         2.2750   -4.3950   13.9630 C.3    65  ARG65       0.2205
     61  NE         2.4390   -3.1150   14.6620 N.pl3  65  ARG65      -0.0865
     62  CZ         1.4290   -2.3450   15.0450 C.cat  65  ARG65       0.5346
     63  NH1        0.1720   -2.7490   14.8510 N.pl3  65  ARG65       0.1354
     64  NH2        1.6850   -1.1720   15.6280 N.pl3  65  ARG65       0.1354
     65  N          2.1570   -9.1110   18.4070 N.3    67  GLU67      -0.1245
     66  CA         1.6290   -8.4980   19.6180 C.3    67  GLU67       0.1567
     67  C          2.4460   -9.0040   20.8110 C.2    67  GLU67       0.2260
     68  O          2.9840  -10.1270   20.7890 O.2    67  GLU67      -0.2867
     69  CB         0.1350   -8.8110   19.7690 C.3    67  GLU67       0.0388
     70  CG        -0.6670   -7.7750   20.5580 C.3    67  GLU67       0.1160
     71  CD        -0.7110   -8.0440   22.0610 C.2    67  GLU67       0.3649
     72  OE1       -0.5130   -9.2040   22.5040 O.co2  67  GLU67      -0.2457
     73  OE2       -0.9920   -7.0930   22.8150 O.co2  67  GLU67      -0.2457
     74  N          1.9010  -10.3740   23.5820 N.3    69  ALA69      -0.1231
     75  CA         1.5590  -11.6970   24.1080 C.3    69  ALA69       0.1694
     76  C          1.7920  -12.8310   23.1030 C.2    69  ALA69       0.2592
     77  O          1.8560  -14.0050   23.4860 O.2    69  ALA69      -0.2718
     78  CB         0.1060  -11.7050   24.6090 C.3    69  ALA69       0.0304
     79  N          1.9030  -12.4780   21.8160 N.am   70  TRP70      -0.1976
     80  CA         2.1090  -13.4700   20.7520 C.3    70  TRP70       0.1640
     81  C          3.5360  -13.9900   20.6760 C.2    70  TRP70       0.2290
     82  O          3.7650  -15.0540   20.1100 O.2    70  TRP70      -0.2864
     83  CB         1.7160  -12.9240   19.3710 C.3    70  TRP70       0.0576
     84  CG         0.2940  -12.4750   19.2510 C.ar   70  TRP70       0.0006
     85  CD1       -0.6920  -12.6270   20.1680 C.ar   70  TRP70       0.0946
     86  CD2       -0.3060  -11.8410   18.1110 C.ar   70  TRP70       0.0152
     87  NE1       -1.8690  -12.0830   19.6950 N.ar   70  TRP70      -0.2442
     88  CE2       -1.6580  -11.6040   18.4280 C.ar   70  TRP70       0.0810
     89  CE3        0.1760  -11.4480   16.8530 C.ar   70  TRP70       0.0012
     90  CZ2       -2.5430  -10.9750   17.5390 C.ar   70  TRP70       0.0191
     91  CZ3       -0.7030  -10.8160   15.9700 C.ar   70  TRP70       0.0001
     92  CH2       -2.0440  -10.5890   16.3190 C.ar   70  TRP70       0.0015
     93  N          6.4540   -0.7500   19.2150 N.3   115  VAL115     -0.1245
     94  CA         5.7120    0.2830   19.9650 C.3   115  VAL115      0.1561
     95  C          5.2230   -0.3050   21.2810 C.2   115  VAL115      0.2260
     96  O          5.0480   -1.5280   21.4190 O.2   115  VAL115     -0.2867
     97  CB         4.4950    0.8620   19.1850 C.3   115  VAL115      0.0252
     98  CG1        4.9590    1.6000   17.9250 C.3   115  VAL115      0.0019
     99  CG2        3.4580   -0.2170   18.8410 C.3   115  VAL115      0.0019
    100  N          2.2170    0.5480   24.4160 N.3   117  ASP117     -0.1239
    101  CA         0.9840    1.2970   24.6210 C.3   117  ASP117      0.1674
    102  C          0.2790    0.9070   25.9270 C.2   117  ASP117      0.2266
    103  O          0.6910   -0.0190   26.6440 O.2   117  ASP117     -0.2867
    104  CB         0.0500    1.1880   23.3870 C.3   117  ASP117      0.1410
    105  CG        -0.2760   -0.2480   23.0130 C.2   117  ASP117      0.3668
    106  OD1       -0.5900   -1.0490   23.9230 O.co2 117  ASP117     -0.2456
    107  OD2       -0.2390   -0.5520   21.7980 O.co2 117  ASP117     -0.2456
    108  N        -16.4320   -0.3810   25.8280 N.3   161  ARG161     -0.1245
    109  CA       -16.2100   -1.4600   24.8440 C.3   161  ARG161      0.1563
    110  C        -16.6010   -2.7830   25.5120 C.2   161  ARG161      0.2260
    111  O        -15.9680   -3.1900   26.4740 O.2   161  ARG161     -0.2867
    112  CB       -14.7390   -1.4950   24.4200 C.3   161  ARG161      0.0307
    113  CG       -14.3670   -2.6540   23.4880 C.3   161  ARG161      0.0489
    114  CD       -14.0610   -2.1550   22.1350 C.3   161  ARG161      0.2205
    115  NE       -13.8250   -3.2060   21.1320 N.pl3 161  ARG161     -0.0865
    116  CZ       -12.6820   -3.3260   20.4590 C.cat 161  ARG161      0.5346
    117  NH1      -11.6730   -2.4930   20.7050 N.pl3 161  ARG161      0.1354
    118  NH2      -12.5380   -4.2730   19.5470 N.pl3 161  ARG161      0.1354
    119  N        -14.4030   -6.6960   23.6920 N.3   164  ASP164     -0.1225
    120  CA       -12.9780   -6.9800   23.7040 C.3   164  ASP164      0.1790
    121  C        -12.5320   -7.0360   25.1710 C.2   164  ASP164      0.2440
    122  O        -12.6520   -6.0450   25.8950 O.2   164  ASP164     -0.2733
    123  CB       -12.2220   -5.9200   22.8880 C.3   164  ASP164      0.1423
    124  CG       -10.7380   -6.2190   22.7540 C.2   164  ASP164      0.3668
    125  OD1      -10.1200   -6.7120   23.7300 O.co2 164  ASP164     -0.2456
    126  OD2      -10.1960   -5.9870   21.6390 O.co2 164  ASP164     -0.2456
    127  N        -12.0230   -8.1940   25.6170 N.am  165  PRO165     -0.2718
    128  CA       -11.7040   -8.4520   27.0190 C.3   165  PRO165      0.1535
    129  C        -10.5650   -7.5920   27.5680 C.2   165  PRO165      0.2599
    130  O        -10.4350   -7.4580   28.7880 O.2   165  PRO165     -0.2715
    131  CB       -11.2950   -9.9550   27.0260 C.3   165  PRO165      0.0310
    132  CG       -10.7540  -10.1680   25.6340 C.3   165  PRO165      0.0237
    133  CD       -11.7000   -9.3640   24.7660 C.3   165  PRO165      0.0939
    134  N         -9.7510   -7.0170   26.6840 N.am  166  TYR166     -0.1960
    135  CA        -8.6700   -6.1460   27.1370 C.3   166  TYR166      0.1771
    136  C         -9.2660   -4.9590   27.9070 C.2   166  TYR166      0.2619
    137  O         -8.6480   -4.4630   28.8640 O.2   166  TYR166     -0.2715
    138  CB        -7.8840   -5.6390   25.9380 C.3   166  TYR166      0.0574
    139  CG        -6.5220   -5.0480   26.2190 C.ar  166  TYR166     -0.0198
    140  CD1       -5.5480   -5.7920   26.9170 C.ar  166  TYR166     -0.0009
    141  CD2       -6.1870   -3.7640   25.7530 C.ar  166  TYR166     -0.0009
    142  CE1       -4.2800   -5.2720   27.1500 C.ar  166  TYR166      0.0417
    143  CE2       -4.9080   -3.2400   25.9980 C.ar  166  TYR166      0.0417
    144  CZ        -3.9770   -4.0120   26.6880 C.ar  166  TYR166      0.1957
    145  OH        -2.7140   -3.5130   26.9260 O.3   166  TYR166     -0.2866
    146  N        -10.4620   -4.5400   27.5010 N.am  167  TRP167     -0.1974
    147  CA       -11.1230   -3.3850   28.1330 C.3   167  TRP167      0.1640
    148  C        -11.6580   -3.6770   29.5480 C.2   167  TRP167      0.2290
    149  O        -12.0710   -2.7650   30.2790 O.2   167  TRP167     -0.2864
    150  CB       -12.2300   -2.8360   27.2360 C.3   167  TRP167      0.0576
    151  CG       -11.7740   -1.7940   26.2540 C.ar  167  TRP167      0.0006
    152  CD1      -12.0760   -0.4670   26.3090 C.ar  167  TRP167      0.0946
    153  CD2      -10.9460   -1.9690   25.0790 C.ar  167  TRP167      0.0152
    154  NE1      -11.4980    0.1950   25.2640 N.ar  167  TRP167     -0.2442
    155  CE2      -10.8050   -0.6900   24.4810 C.ar  167  TRP167      0.0810
    156  CE3      -10.3270   -3.0780   24.4690 C.ar  167  TRP167      0.0012
    157  CZ2      -10.0490   -0.4790   23.3030 C.ar  167  TRP167      0.0191
    158  CZ3       -9.5770   -2.8730   23.3020 C.ar  167  TRP167      0.0001
    159  CH2       -9.4560   -1.5800   22.7250 C.ar  167  TRP167      0.0015
    160  N        -15.1630   -2.2010   17.8180 N.3   218  TRP218     -0.1241
    161  CA       -14.1830   -1.1800   17.4210 C.3   218  TRP218      0.1605
    162  C        -14.8680   -0.0820   16.6070 C.2   218  TRP218      0.2264
    163  O        -14.7650    1.1070   16.9400 O.2   218  TRP218     -0.2867
    164  CB       -13.0210   -1.7750   16.6090 C.3   218  TRP218      0.0550
    165  CG       -12.1880   -0.6730   16.0010 C.ar  218  TRP218      0.0003
    166  CD1      -12.1960   -0.2560   14.6980 C.ar  218  TRP218      0.0946
    167  CD2      -11.2620    0.1870   16.6950 C.ar  218  TRP218      0.0152
    168  NE1      -11.3110    0.7850   14.5270 N.ar  218  TRP218     -0.2442
    169  CE2      -10.7170    1.0680   15.7320 C.ar  218  TRP218      0.0810
    170  CE3      -10.8040    0.2600   18.0210 C.ar  218  TRP218      0.0012
    171  CZ2       -9.7670    2.0530   16.0640 C.ar  218  TRP218      0.0191
    172  CZ3       -9.8520    1.2550   18.3490 C.ar  218  TRP218      0.0001
    173  CH2       -9.3500    2.1230   17.3660 C.ar  218  TRP218      0.0015
    174  N         -3.2050    3.9470   19.1610 N.3   238  TRP238     -0.1241
    175  CA        -3.6050    3.4930   17.8150 C.3   238  TRP238      0.1605
    176  C         -4.9210    4.1200   17.3350 C.2   238  TRP238      0.2264
    177  O         -5.3180    3.9450   16.1720 O.2   238  TRP238     -0.2867
    178  CB        -3.7010    1.9450   17.7880 C.3   238  TRP238      0.0550
    179  CG        -4.7330    1.4210   18.7510 C.ar  238  TRP238      0.0003
    180  CD1       -6.0660    1.2760   18.5140 C.ar  238  TRP238      0.0946
    181  CD2       -4.5140    1.0190   20.1130 C.ar  238  TRP238      0.0152
    182  NE1       -6.7100    0.8210   19.6520 N.ar  238  TRP238     -0.2442
    183  CE2       -5.7800    0.6600   20.6500 C.ar  238  TRP238      0.0810
    184  CE3       -3.3800    0.9500   20.9380 C.ar  238  TRP238      0.0012
    185  CZ2       -5.9480    0.1960   21.9680 C.ar  238  TRP238      0.0191
    186  CZ3       -3.5340    0.4880   22.2570 C.ar  238  TRP238      0.0001
    187  CH2       -4.8170    0.1100   22.7570 C.ar  238  TRP238      0.0015
    188  N          0.4350   -2.8880   26.7340 N.3   272  GLY272     -0.1210
    189  CA         0.3020   -3.6280   25.4730 C.3   272  GLY272      0.1956
    190  C          1.3740   -3.1830   24.5010 C.2   272  GLY272      0.2612
    191  O          2.3530   -2.5460   24.8950 O.2   272  GLY272     -0.2717
    192  N          1.1850   -3.5350   23.2330 N.am  273  GLY273     -0.1942
    193  CA         2.0900   -3.0790   22.1830 C.3   273  GLY273      0.2014
    194  C          2.4680   -4.1720   21.2100 C.2   273  GLY273      0.2638
    195  O          1.9010   -5.2720   21.2090 O.2   273  GLY273     -0.2714
    196  N          3.4690   -3.8510   20.3900 N.am  274  TRP274     -0.1973
    197  CA         3.8560   -4.6830   19.2500 C.3   274  TRP274      0.1640
    198  C          5.3590   -4.7860   19.1670 C.2   274  TRP274      0.2290
    199  O          6.0750   -3.8190   19.4440 O.2   274  TRP274     -0.2864
    200  CB         3.3090   -4.1040   17.9280 C.3   274  TRP274      0.0576
    201  CG         1.8210   -4.1880   17.9920 C.ar  274  TRP274      0.0006
    202  CD1        0.9740   -3.3190   18.6190 C.ar  274  TRP274      0.0946
    203  CD2        1.0130   -5.2700   17.5080 C.ar  274  TRP274      0.0152
    204  NE1       -0.3260   -3.7830   18.5430 N.ar  274  TRP274     -0.2442
    205  CE2       -0.3280   -4.9840   17.8790 C.ar  274  TRP274      0.0810
    206  CE3        1.2910   -6.4570   16.8010 C.ar  274  TRP274      0.0012
    207  CZ2       -1.3990   -5.8350   17.5420 C.ar  274  TRP274      0.0191
    208  CZ3        0.2300   -7.3050   16.4650 C.ar  274  TRP274      0.0001
    209  CH2       -1.1050   -6.9840   16.8460 C.ar  274  TRP274      0.0015
    210  N          2.0160   -7.9100   32.2790 N.3   342  ARG342     -0.1245
    211  CA         1.4440   -9.2310   32.4140 C.3   342  ARG342      0.1563
    212  C          2.5390  -10.2830   32.4780 C.2   342  ARG342      0.2260
    213  O          3.7200   -9.9910   32.2060 O.2   342  ARG342     -0.2867
    214  CB         0.5190   -9.5310   31.2400 C.3   342  ARG342      0.0307
    215  CG         1.2520   -9.8690   29.9670 C.3   342  ARG342      0.0489
    216  CD         0.3020   -9.8780   28.7990 C.3   342  ARG342      0.2205
    217  NE        -0.0350   -8.5310   28.3440 N.pl3 342  ARG342     -0.0865
    218  CZ        -0.8430   -8.2700   27.3200 C.cat 342  ARG342      0.5346
    219  NH1       -1.4030   -9.2620   26.6430 N.pl3 342  ARG342      0.1354
    220  NH2       -1.0770   -7.0130   26.9600 N.pl3 342  ARG342      0.1354
    221  N         -1.7440  -15.0350   26.1720 N.3   349  ASN349     -0.1240
    222  CA        -2.6980  -14.6850   25.1260 C.3   349  ASN349      0.1653
    223  C         -4.0840  -15.3360   25.3380 C.2   349  ASN349      0.2266
    224  O         -5.1320  -14.7210   25.1110 O.2   349  ASN349     -0.2867
    225  CB        -2.0930  -15.0950   23.7670 C.3   349  ASN349      0.1155
    226  CG        -3.0990  -15.7360   22.8380 C.2   349  ASN349      0.2627
    227  OD1       -3.0380  -16.9440   22.5670 O.2   349  ASN349     -0.2716
    228  ND2       -4.0460  -14.9360   22.3490 N.am  349  ASN349     -0.0877
    229  N         -7.4350  -14.1580   27.6370 N.3   352  PHE352     -0.1227
    230  CA        -8.4260  -13.1720   27.2610 C.3   352  PHE352      0.1736
    231  C         -9.7760  -13.7530   26.8780 C.2   352  PHE352      0.2595
    232  O        -10.8120  -13.1660   27.1810 O.2   352  PHE352     -0.2718
    233  CB        -7.8570  -12.2280   26.1910 C.3   352  PHE352      0.0547
    234  CG        -6.8490  -11.2790   26.7530 C.ar  352  PHE352     -0.0202
    235  CD1       -7.2640  -10.1790   27.5060 C.ar  352  PHE352     -0.0042
    236  CD2       -5.4830  -11.5180   26.6080 C.ar  352  PHE352     -0.0042
    237  CE1       -6.3420   -9.3100   28.0710 C.ar  352  PHE352     -0.0003
    238  CE2       -4.5490  -10.6440   27.1770 C.ar  352  PHE352     -0.0003
    239  CZ        -4.9790   -9.5390   27.8980 C.ar  352  PHE352     -0.0000
    240  N         -9.7840  -14.9310   26.2610 N.am  353  GLU353     -0.1979
    241  CA       -11.0560  -15.4680   25.7830 C.3   353  GLU353      0.1602
    242  C        -12.0670  -15.6880   26.9260 C.2   353  GLU353      0.2287
    243  O        -13.2530  -15.4030   26.7340 O.2   353  GLU353     -0.2864
    244  CB       -10.8650  -16.7360   24.9240 C.3   353  GLU353      0.0415
    245  CG       -12.1840  -17.3610   24.3690 C.3   353  GLU353      0.1163
    246  CD       -12.8000  -16.6340   23.1640 C.2   353  GLU353      0.3649
    247  OE1      -12.5100  -15.4470   22.9590 O.co2 353  GLU353     -0.2457
    248  OE2      -13.5910  -17.2590   22.3980 O.co2 353  GLU353     -0.2457
    249  N        -13.6540  -12.5810   27.8330 N.3   356  ARG356     -0.1245
    250  CA       -14.5470  -12.1410   26.7790 C.3   356  ARG356      0.1563
    251  C        -15.9490  -12.7240   26.9490 C.2   356  ARG356      0.2260
    252  O        -16.9530  -11.9870   26.9020 O.2   356  ARG356     -0.2867
    253  CB       -13.9720  -12.5180   25.4020 C.3   356  ARG356      0.0307
    254  CG       -14.7670  -11.9640   24.2590 C.3   356  ARG356      0.0489
    255  CD       -14.2020  -12.4280   22.9200 C.3   356  ARG356      0.2205
    256  NE       -14.5240  -13.8080   22.5610 N.pl3 356  ARG356     -0.0865
    257  CZ       -15.7150  -14.2240   22.1340 C.cat 356  ARG356      0.5346
    258  NH1      -16.7350  -13.3760   22.0360 N.pl3 356  ARG356      0.1354
    259  NH2      -15.8850  -15.4950   21.7920 N.pl3 356  ARG356      0.1354
@<TRIPOS>BOND
     1    25    24    2
     2    24    23    1
     3    17    16    2
     4    13    12    1
     5    11    10    2
     6    16    15    1
     7    22    23    1
     8    23    26    1
     9     1     2    1
    10    10    14   am
    11    10     9    1
    12    15    14    1
    13    15    18    1
    14    12     9    1
    15     8     3   am
    16     8     9    1
    17     2     3    1
    18     2     5    1
    19    26    27    1
    20     3     4    2
    21    54    55    1
    22    20    19    2
    23    31    32    1
    24    18    19    1
    25     7     5    1
    26    58    55    1
    27    58    59    1
    28     5     6    1
    29    27    28    1
    30    19    21   am
    31    55    56    1
    32    29    28   ar
    33    32    33    1
    34    32    35    1
    35    59    60    1
    36    60    61    1
    37    28    30   ar
    38    44    45    2
    39    44    43    1
    40    49    48    2
    41    57    56    2
    42    42    33   am
    43    42    43    1
    44    46    47    1
    45    33    34    2
    46   168   166   ar
    47   168   169   ar
    48    48    47    1
    49    61    62    2
    50   166   165   ar
    51    63    62    1
    52    35    36    1
    53    62    64    1
    54    47    50    1
    55   169   171   ar
    56   169   167   ar
    57    91    92   ar
    58    91    89   ar
    59   165   164    1
    60   165   167   ar
    61   171   173   ar
    62   177   176    2
    63    92    90   ar
    64    36    37   ar
    65    36    38   ar
    66   208   206   ar
    67   208   209   ar
    68   162   163    2
    69   162   161    1
    70   164   161    1
    71    50    51    1
    72   167   170   ar
    73   206   203   ar
    74   209   207   ar
    75    89    86   ar
    76    37    39   ar
    77    38    40   ar
    78   176   175    1
    79   173   172   ar
    80    52    51    2
    81   161   160    1
    82   203   205   ar
    83   203   201   ar
    84    51    53   am
    85    90    88   ar
    86   207   205   ar
    87   178   175    1
    88   178   179    1
    89   175   174    1
    90   205   204   ar
    91    98    97    1
    92   200   201    1
    93   200   197    1
    94   201   202   ar
    95   170   172   ar
    96    86    88   ar
    97    86    84   ar
    98    39    41   ar
    99    65    66    1
   100    88    87   ar
   101   180   179   ar
   102   180   182   ar
   103    40    41   ar
   104   204   202   ar
   105   179   181   ar
   106    99    97    1
   107   198   197    1
   108   198   199    2
   109    97    94    1
   110    93    94    1
   111   197   196    1
   112    84    83    1
   113    84    85   ar
   114    83    80    1
   115   118   116    1
   116    66    69    1
   117    66    67    1
   118   182   183   ar
   119    87    85   ar
   120    69    70    1
   121    94    95    1
   122    82    81    2
   123   181   183   ar
   124   181   184   ar
   125   196   194   am
   126   116   117    1
   127   116   115    2
   128    70    71    1
   129   183   185   ar
   130    81    80    1
   131    80    79    1
   132    68    67    2
   133   184   186   ar
   134   115   114    1
   135   195   194    2
   136   194   193    1
   137    95    96    2
   138   126   124   ar
   139   259   257    1
   140   107   105   ar
   141    79    76   am
   142   185   187   ar
   143   258   257    1
   144    71    72   ar
   145    71    73   ar
   146   257   256    2
   147   114   113    1
   148   193   192    1
   149   186   187   ar
   150   228   226   am
   151   248   246   ar
   152   256   255    1
   153   227   226    2
   154   159   158   ar
   155   159   157   ar
   156   124   123    1
   157   124   125   ar
   158   226   225    1
   159   123   120    1
   160   255   254    1
   161   247   246   ar
   162   105   104    1
   163   105   106   ar
   164    76    77    2
   165    76    75    1
   166   246   245    1
   167   192   190   am
   168   158   156   ar
   169   157   155   ar
   170   104   101    1
   171   113   112    1
   172    74    75    1
   173   119   120    1
   174   120   121    1
   175   225   222    1
   176    75    78    1
   177   254   253    1
   178   245   244    1
   179   100   101    1
   180   112   109    1
   181   156   153   ar
   182   155   153   ar
   183   155   154   ar
   184   190   191    2
   185   190   189    1
   186   101   102    1
   187   133   127    1
   188   133   132    1
   189   109   110    1
   190   109   108    1
   191   244   241    1
   192   153   151   ar
   193   224   223    2
   194   222   223    1
   195   222   221    1
   196   121   127   am
   197   121   122    2
   198   154   152   ar
   199   253   250    1
   200   189   188    1
   201   110   111    2
   202   127   128    1
   203   132   131    1
   204   141   143   ar
   205   141   139   ar
   206   241   240    1
   207   241   242    1
   208   102   103    2
   209   138   139    1
   210   138   135    1
   211   143   144   ar
   212   233   234    1
   213   233   230    1
   214   139   140   ar
   215   151   152   ar
   216   151   150    1
   217   240   231   am
   218   236   234   ar
   219   236   238   ar
   220   219   218    1
   221   134   135    1
   222   134   129   am
   223   144   145    1
   224   144   142   ar
   225   243   242    2
   226   234   235   ar
   227   250   251    1
   228   250   249    1
   229   231   232    2
   230   231   230    1
   231   252   251    2
   232   140   142   ar
   233   220   218    1
   234   128   131    1
   235   128   129    1
   236   135   136    1
   237   238   239   ar
   238   150   147    1
   239   230   229    1
   240   218   217    2
   241   146   136   am
   242   146   147    1
   243   235   237   ar
   244   129   130    2
   245   239   237   ar
   246   136   137    2
   247   147   148    1
   248   217   216    1
   249   216   215    1
   250   148   149    2
   251   215   214    1
   252   214   211    1
   253   213   212    2
   254   210   211    1
   255   211   212    1
