@<TRIPOS>MOLECULE
tmp/3k02A00.pdb
 264 260 0 0 0
SMALL
GASTEIGER

@<TRIPOS>ATOM
      1  N         -0.1310   -5.7650   11.0360 N.3    11  THR11      -0.1203
      2  CA        -1.4930   -5.8090   11.5740 C.3    11  THR11       0.1994
      3  C         -2.0840   -4.4260   11.8200 C.2    11  THR11       0.2619
      4  O         -3.2020   -4.3290   12.3380 O.2    11  THR11      -0.2717
      5  CB        -1.5520   -6.5060   12.9360 C.3    11  THR11       0.1784
      6  OG1       -0.6960   -5.8170   13.8500 O.3    11  THR11      -0.2211
      7  CG2       -1.1050   -7.9430   12.8070 C.3    11  THR11       0.0376
      8  N         -1.3300   -3.3680   11.5180 N.am   12  SER12      -0.1937
      9  CA        -1.8010   -2.0170   11.8560 C.3    12  SER12       0.2055
     10  C         -3.1490   -1.7020   11.1940 C.2    12  SER12       0.2643
     11  O         -3.5090   -2.2990   10.1680 O.2    12  SER12      -0.2714
     12  CB        -0.7430   -0.9570   11.5190 C.3    12  SER12       0.2130
     13  OG        -0.6870   -0.6730   10.1280 O.3    12  SER12      -0.2179
     14  N         -3.8970   -0.7730   11.7920 N.am   13  ASN13      -0.1971
     15  CA        -5.2790   -0.5180   11.3920 C.3    13  ASN13       0.1688
     16  C         -5.4020    0.4130   10.1670 C.2    13  ASN13       0.2292
     17  O         -4.3940    0.8240    9.5710 O.2    13  ASN13      -0.2864
     18  CB        -6.1360   -0.0760   12.6020 C.3    13  ASN13       0.1181
     19  CG        -5.7820    1.2950   13.1190 C.2    13  ASN13       0.2629
     20  OD1       -5.3090    2.1510   12.3670 O.2    13  ASN13      -0.2716
     21  ND2       -5.9990    1.5120   14.4350 N.am   13  ASN13      -0.0877
     22  N         -3.4490    3.6060   10.2550 N.3    16  GLU16      -0.1245
     23  CA        -2.0190    3.4220   10.4550 C.3    16  GLU16       0.1567
     24  C         -1.3040    2.8470    9.2280 C.2    16  GLU16       0.2260
     25  O         -0.0890    3.0500    9.0450 O.2    16  GLU16      -0.2867
     26  CB        -1.7540    2.4810   11.6410 C.3    16  GLU16       0.0388
     27  CG        -2.2140    2.9910   13.0140 C.3    16  GLU16       0.1160
     28  CD        -2.1110    1.9020   14.0700 C.2    16  GLU16       0.3649
     29  OE1       -2.4730    0.7410   13.7960 O.co2  16  GLU16      -0.2457
     30  OE2       -1.6340    2.2030   15.1830 O.co2  16  GLU16      -0.2457
     31  N         -5.9670   -7.4050   12.4390 N.3    43  PHE43      -0.1227
     32  CA        -5.5900   -7.8260   13.7850 C.3    43  PHE43       0.1736
     33  C         -6.2260   -9.1600   14.2350 C.2    43  PHE43       0.2596
     34  O         -5.5240  -10.0430   14.7320 O.2    43  PHE43      -0.2718
     35  CB        -5.9400   -6.7100   14.7780 C.3    43  PHE43       0.0547
     36  CG        -5.8340   -7.1110   16.2190 C.ar   43  PHE43      -0.0202
     37  CD1       -4.6040   -7.4070   16.7870 C.ar   43  PHE43      -0.0042
     38  CD2       -6.9750   -7.1760   17.0150 C.ar   43  PHE43      -0.0042
     39  CE1       -4.5160   -7.8020   18.1290 C.ar   43  PHE43      -0.0003
     40  CE2       -6.9050   -7.5510   18.3630 C.ar   43  PHE43      -0.0003
     41  CZ        -5.6790   -7.8570   18.9230 C.ar   43  PHE43      -0.0000
     42  N         -7.5410   -9.2840   14.0450 N.am   44  GLY44      -0.1957
     43  CA        -8.3140  -10.4400   14.5610 C.3    44  GLY44       0.1869
     44  C         -7.9900  -11.7700   13.9090 C.2    44  GLY44       0.2309
     45  O         -8.2460  -12.8460   14.5040 O.2    44  GLY44      -0.2863
     46  N         -2.9920  -13.7410   14.1990 N.3    47  ASN47      -0.1225
     47  CA        -2.4030  -14.8370   14.9900 C.3    47  ASN47       0.1785
     48  C         -2.6650  -16.2020   14.3260 C.2    47  ASN47       0.2597
     49  O         -1.7320  -16.9810   14.0820 O.2    47  ASN47      -0.2718
     50  CB        -2.9250  -14.7980   16.4420 C.3    47  ASN47       0.1169
     51  CG        -2.2190  -15.7930   17.3590 C.2    47  ASN47       0.2627
     52  OD1       -2.3710  -17.0060   17.2080 O.2    47  ASN47      -0.2716
     53  ND2       -1.4850  -15.2750   18.3550 N.am   47  ASN47      -0.0877
     54  N         -3.9370  -16.4750   14.0310 N.am   48  ALA48      -0.1979
     55  CA        -4.3240  -17.7240   13.3580 C.3    48  ALA48       0.1597
     56  C         -3.7250  -17.8250   11.9560 C.2    48  ALA48       0.2287
     57  O         -3.2820  -18.9010   11.5390 O.2    48  ALA48      -0.2864
     58  CB        -5.8420  -17.8500   13.3130 C.3    48  ALA48       0.0319
     59  N          4.6450   -8.5840   12.2940 N.3    65  ARG65      -0.1245
     60  CA         4.3330   -7.6760   13.3990 C.3    65  ARG65       0.1563
     61  C          3.6510   -8.5150   14.4700 C.2    65  ARG65       0.2260
     62  O          2.5720   -9.0890   14.2410 O.2    65  ARG65      -0.2867
     63  CB         3.4450   -6.5090   12.9460 C.3    65  ARG65       0.0307
     64  CG         3.5520   -5.2980   13.8730 C.3    65  ARG65       0.0489
     65  CD         2.2790   -4.4630   13.8610 C.3    65  ARG65       0.2205
     66  NE         2.4300   -3.1920   14.5710 N.pl3  65  ARG65      -0.0865
     67  CZ         1.4050   -2.4400   14.9600 C.cat  65  ARG65       0.5346
     68  NH1        0.1510   -2.8650   14.7490 N.pl3  65  ARG65       0.1354
     69  NH2        1.6470   -1.2840   15.5510 N.pl3  65  ARG65       0.1354
     70  N          2.2640   -9.1510   18.3100 N.3    67  GLU67      -0.1245
     71  CA         1.6940   -8.5290   19.5170 C.3    67  GLU67       0.1567
     72  C          2.5010   -9.0320   20.7160 C.2    67  GLU67       0.2260
     73  O          3.0820  -10.1230   20.6760 O.2    67  GLU67      -0.2867
     74  CB         0.2070   -8.8950   19.6510 C.3    67  GLU67       0.0388
     75  CG        -0.6560   -7.8870   20.4200 C.3    67  GLU67       0.1160
     76  CD        -0.6630   -8.0670   21.9170 C.2    67  GLU67       0.3649
     77  OE1       -0.4690   -9.1890   22.4330 O.co2  67  GLU67      -0.2457
     78  OE2       -0.9420   -7.0500   22.6070 O.co2  67  GLU67      -0.2457
     79  N          1.9080  -10.4450   23.4910 N.3    69  ALA69      -0.1231
     80  CA         1.5550  -11.7730   24.0140 C.3    69  ALA69       0.1694
     81  C          1.8340  -12.9160   23.0290 C.2    69  ALA69       0.2592
     82  O          1.8780  -14.0870   23.4220 O.2    69  ALA69      -0.2718
     83  CB         0.0920  -11.7910   24.4500 C.3    69  ALA69       0.0304
     84  N          1.9960  -12.5760   21.7480 N.am   70  TRP70      -0.1976
     85  CA         2.2190  -13.5950   20.7280 C.3    70  TRP70       0.1640
     86  C          3.6460  -14.0910   20.6790 C.2    70  TRP70       0.2290
     87  O          3.9060  -15.1470   20.1060 O.2    70  TRP70      -0.2864
     88  CB         1.8460  -13.0980   19.3330 C.3    70  TRP70       0.0576
     89  CG         0.4390  -12.6270   19.1760 C.ar   70  TRP70       0.0006
     90  CD1       -0.5770  -12.7260   20.0860 C.ar   70  TRP70       0.0946
     91  CD2       -0.1180  -12.0030   18.0160 C.ar   70  TRP70       0.0152
     92  NE1       -1.7280  -12.1750   19.5790 N.ar   70  TRP70      -0.2442
     93  CE2       -1.4790  -11.7260   18.3070 C.ar   70  TRP70       0.0810
     94  CE3        0.4000  -11.6240   16.7730 C.ar   70  TRP70       0.0012
     95  CZ2       -2.3260  -11.0860   17.3970 C.ar   70  TRP70       0.0191
     96  CZ3       -0.4500  -11.0000   15.8620 C.ar   70  TRP70       0.0001
     97  CH2       -1.7960  -10.7420   16.1850 C.ar   70  TRP70       0.0015
     98  N          6.4320   -0.8170   19.1790 N.3   115  VAL115     -0.1245
     99  CA         5.6700    0.1920   19.9150 C.3   115  VAL115      0.1561
    100  C          5.1850   -0.3430   21.2760 C.2   115  VAL115      0.2260
    101  O          5.0230   -1.4930   21.4500 O.2   115  VAL115     -0.2867
    102  CB         4.4700    0.7540   19.1510 C.3   115  VAL115      0.0252
    103  CG1        4.9110    1.5600   17.9400 C.3   115  VAL115      0.0019
    104  CG2        3.4910   -0.3210   18.7740 C.3   115  VAL115      0.0019
    105  N          2.1670    0.4900   24.3940 N.3   117  ASP117     -0.1239
    106  CA         0.9370    1.2500   24.5870 C.3   117  ASP117      0.1674
    107  C          0.2150    0.8640   25.8620 C.2   117  ASP117      0.2266
    108  O          0.6420   -0.0390   26.5870 O.2   117  ASP117     -0.2867
    109  CB         0.0290    1.1310   23.3390 C.3   117  ASP117      0.1410
    110  CG        -0.2730   -0.3220   22.9680 C.2   117  ASP117      0.3668
    111  OD1       -0.5080   -1.1100   23.9090 O.co2 117  ASP117     -0.2456
    112  OD2       -0.2790   -0.6400   21.7550 O.co2 117  ASP117     -0.2456
    113  N        -16.5390   -0.3320   25.8160 N.3   161  ARG161     -0.1245
    114  CA       -16.4170   -1.3700   24.7930 C.3   161  ARG161      0.1563
    115  C        -16.7530   -2.7230   25.4490 C.2   161  ARG161      0.2260
    116  O        -16.1470   -3.0740   26.4450 O.2   161  ARG161     -0.2867
    117  CB       -15.0450   -1.3970   24.1490 C.3   161  ARG161      0.0307
    118  CG       -15.1000   -2.2520   22.8730 C.3   161  ARG161      0.0489
    119  CD       -13.8150   -2.2490   22.2100 C.3   161  ARG161      0.2205
    120  NE       -13.7310   -3.2330   21.1360 N.pl3 161  ARG161     -0.0865
    121  CZ       -12.6500   -3.3130   20.3780 C.cat 161  ARG161      0.5346
    122  NH1      -11.6420   -2.4690   20.6100 N.pl3 161  ARG161      0.1354
    123  NH2      -12.5700   -4.1960   19.4040 N.pl3 161  ARG161      0.1354
    124  N        -14.4740   -6.6790   23.6660 N.3   164  ASP164     -0.1225
    125  CA       -13.0500   -6.9990   23.6730 C.3   164  ASP164      0.1790
    126  C        -12.5920   -7.0930   25.1430 C.2   164  ASP164      0.2440
    127  O        -12.6910   -6.1270   25.9010 O.2   164  ASP164     -0.2733
    128  CB       -12.2740   -5.9040   22.9160 C.3   164  ASP164      0.1423
    129  CG       -10.7900   -6.1830   22.8170 C.2   164  ASP164      0.3668
    130  OD1      -10.1950   -6.6990   23.7820 O.co2 164  ASP164     -0.2456
    131  OD2      -10.2120   -5.9030   21.7440 O.co2 164  ASP164     -0.2456
    132  N        -12.0810   -8.2570   25.5510 N.am  165  PRO165     -0.2718
    133  CA       -11.7390   -8.5360   26.9570 C.3   165  PRO165      0.1535
    134  C        -10.6370   -7.6450   27.5480 C.2   165  PRO165      0.2599
    135  O        -10.5360   -7.5060   28.7780 O.2   165  PRO165     -0.2715
    136  CB       -11.2980  -10.0370   26.9230 C.3   165  PRO165      0.0310
    137  CG       -10.8120  -10.2240   25.4600 C.3   165  PRO165      0.0237
    138  CD       -11.8340   -9.4190   24.6760 C.3   165  PRO165      0.0939
    139  N         -9.8020   -7.0540   26.6940 N.am  166  TYR166     -0.1960
    140  CA        -8.7470   -6.1950   27.1850 C.3   166  TYR166      0.1771
    141  C         -9.3390   -5.0230   27.9830 C.2   166  TYR166      0.2619
    142  O         -8.7230   -4.5270   28.9400 O.2   166  TYR166     -0.2715
    143  CB        -7.9820   -5.6380   26.0000 C.3   166  TYR166      0.0574
    144  CG        -6.6160   -5.0480   26.3130 C.ar  166  TYR166     -0.0198
    145  CD1       -5.6560   -5.8010   27.0290 C.ar  166  TYR166     -0.0009
    146  CD2       -6.2550   -3.8000   25.8180 C.ar  166  TYR166     -0.0009
    147  CE1       -4.3910   -5.2920   27.2620 C.ar  166  TYR166      0.0417
    148  CE2       -4.9900   -3.2810   26.0540 C.ar  166  TYR166      0.0417
    149  CZ        -4.0670   -4.0400   26.7660 C.ar  166  TYR166      0.1957
    150  OH        -2.8000   -3.5240   26.9790 O.3   166  TYR166     -0.2866
    151  N        -10.5360   -4.5970   27.5800 N.am  167  TRP167     -0.1974
    152  CA       -11.1920   -3.4410   28.2090 C.3   167  TRP167      0.1640
    153  C        -11.7060   -3.7390   29.6290 C.2   167  TRP167      0.2290
    154  O        -12.0930   -2.8120   30.3570 O.2   167  TRP167     -0.2864
    155  CB       -12.3200   -2.9110   27.3190 C.3   167  TRP167      0.0576
    156  CG       -11.8890   -1.8360   26.3430 C.ar  167  TRP167      0.0006
    157  CD1      -12.2540   -0.5290   26.3880 C.ar  167  TRP167      0.0946
    158  CD2      -11.0550   -1.9820   25.1620 C.ar  167  TRP167      0.0152
    159  NE1      -11.6950    0.1540   25.3330 N.ar  167  TRP167     -0.2442
    160  CE2      -10.9470   -0.7050   24.5740 C.ar  167  TRP167      0.0810
    161  CE3      -10.3940   -3.0630   24.5610 C.ar  167  TRP167      0.0012
    162  CZ2      -10.2220   -0.4770   23.3990 C.ar  167  TRP167      0.0191
    163  CZ3       -9.6450   -2.8240   23.4010 C.ar  167  TRP167      0.0001
    164  CH2       -9.5650   -1.5360   22.8470 C.ar  167  TRP167      0.0015
    165  N        -15.2230   -2.1830   17.8200 N.3   218  TRP218     -0.1241
    166  CA       -14.2500   -1.1400   17.4100 C.3   218  TRP218      0.1605
    167  C        -14.9750   -0.0670   16.6030 C.2   218  TRP218      0.2264
    168  O        -14.9340    1.1150   16.9510 O.2   218  TRP218     -0.2867
    169  CB       -13.0970   -1.7350   16.5790 C.3   218  TRP218      0.0550
    170  CG       -12.2720   -0.6580   15.9290 C.ar  218  TRP218      0.0003
    171  CD1      -12.3120   -0.2590   14.6110 C.ar  218  TRP218      0.0946
    172  CD2      -11.3080    0.1880   16.5760 C.ar  218  TRP218      0.0152
    173  NE1      -11.4160    0.7880   14.4000 N.ar  218  TRP218     -0.2442
    174  CE2      -10.7860    1.0670   15.5850 C.ar  218  TRP218      0.0810
    175  CE3      -10.8170    0.2690   17.8920 C.ar  218  TRP218      0.0012
    176  CZ2       -9.8020    2.0220   15.8730 C.ar  218  TRP218      0.0191
    177  CZ3       -9.8420    1.2410   18.1820 C.ar  218  TRP218      0.0001
    178  CH2       -9.3490    2.0970   17.1660 C.ar  218  TRP218      0.0015
    179  N         -3.3040    3.8550   19.1250 N.3   238  TRP238     -0.1241
    180  CA        -3.7110    3.3790   17.7850 C.3   238  TRP238      0.1605
    181  C         -5.0350    4.0000   17.3140 C.2   238  TRP238      0.2264
    182  O         -5.4590    3.7900   16.1690 O.2   238  TRP238     -0.2867
    183  CB        -3.7990    1.8360   17.7550 C.3   238  TRP238      0.0550
    184  CG        -4.8100    1.3390   18.7380 C.ar  238  TRP238      0.0003
    185  CD1       -6.1460    1.2150   18.5180 C.ar  238  TRP238      0.0946
    186  CD2       -4.5810    0.9500   20.1120 C.ar  238  TRP238      0.0152
    187  NE1       -6.7800    0.7740   19.6670 N.ar  238  TRP238     -0.2442
    188  CE2       -5.8430    0.6040   20.6570 C.ar  238  TRP238      0.0810
    189  CE3       -3.4370    0.8530   20.9260 C.ar  238  TRP238      0.0012
    190  CZ2       -6.0030    0.1650   21.9790 C.ar  238  TRP238      0.0191
    191  CZ3       -3.5850    0.3990   22.2370 C.ar  238  TRP238      0.0001
    192  CH2       -4.8720    0.0680   22.7570 C.ar  238  TRP238      0.0015
    193  N          0.4100   -2.9720   26.6810 N.3   272  GLY272     -0.1210
    194  CA         0.3400   -3.7360   25.4500 C.3   272  GLY272      0.1956
    195  C          1.3910   -3.2510   24.4780 C.2   272  GLY272      0.2612
    196  O          2.3280   -2.5660   24.8660 O.2   272  GLY272     -0.2717
    197  N          1.2200   -3.6130   23.2220 N.am  273  GLY273     -0.1942
    198  CA         2.1570   -3.1850   22.1900 C.3   273  GLY273      0.2014
    199  C          2.4830   -4.2450   21.1650 C.2   273  GLY273      0.2638
    200  O          1.8820   -5.3440   21.1250 O.2   273  GLY273     -0.2714
    201  N          3.4660   -3.9060   20.3480 N.am  274  TRP274     -0.1973
    202  CA         3.8560   -4.7000   19.1850 C.3   274  TRP274      0.1640
    203  C          5.3680   -4.7750   19.0960 C.2   274  TRP274      0.2290
    204  O          6.0710   -3.7860   19.3770 O.2   274  TRP274     -0.2864
    205  CB         3.2670   -4.0970   17.8770 C.3   274  TRP274      0.0576
    206  CG         1.7900   -4.2210   17.9260 C.ar  274  TRP274      0.0006
    207  CD1        0.9150   -3.3520   18.5470 C.ar  274  TRP274      0.0946
    208  CD2        1.0020   -5.3170   17.4440 C.ar  274  TRP274      0.0152
    209  NE1       -0.3710   -3.8630   18.4950 N.ar  274  TRP274     -0.2442
    210  CE2       -0.3540   -5.0460   17.8110 C.ar  274  TRP274      0.0810
    211  CE3        1.2980   -6.5000   16.7410 C.ar  274  TRP274      0.0012
    212  CZ2       -1.4090   -5.9120   17.4850 C.ar  274  TRP274      0.0191
    213  CZ3        0.2420   -7.3680   16.4080 C.ar  274  TRP274      0.0001
    214  CH2       -1.0990   -7.0600   16.7840 C.ar  274  TRP274      0.0015
    215  N          2.0340   -8.2160   32.5650 N.3   342  ARG342     -0.1245
    216  CA         1.4250   -9.5320   32.6580 C.3   342  ARG342      0.1563
    217  C          2.5300  -10.5780   32.5900 C.2   342  ARG342      0.2260
    218  O          3.6610  -10.2460   32.1900 O.2   342  ARG342     -0.2867
    219  CB         0.4660   -9.7460   31.4840 C.3   342  ARG342      0.0307
    220  CG         1.1610   -9.9880   30.1530 C.3   342  ARG342      0.0489
    221  CD         0.1710  -10.0120   29.0250 C.3   342  ARG342      0.2205
    222  NE        -0.1550   -8.6560   28.5760 N.pl3 342  ARG342     -0.0865
    223  CZ        -0.9140   -8.3910   27.5240 C.cat 342  ARG342      0.5346
    224  NH1       -1.4180   -9.3830   26.8070 N.pl3 342  ARG342      0.1354
    225  NH2       -1.1340   -7.1200   27.1700 N.pl3 342  ARG342      0.1354
    226  N         -1.6940  -15.3130   26.1890 N.3   349  ASN349     -0.1240
    227  CA        -2.6530  -14.8740   25.1680 C.3   349  ASN349      0.1653
    228  C         -4.0670  -15.4610   25.3800 C.2   349  ASN349      0.2266
    229  O         -5.0730  -14.8020   25.0800 O.2   349  ASN349     -0.2867
    230  CB        -2.1450  -15.2510   23.7700 C.3   349  ASN349      0.1155
    231  CG        -2.3310  -16.7280   23.4530 C.2   349  ASN349      0.2627
    232  OD1       -1.6280  -17.5990   23.9920 O.2   349  ASN349     -0.2716
    233  ND2       -3.2690  -17.0200   22.5530 N.am  349  ASN349     -0.0877
    234  N         -7.3920  -14.1940   27.8580 N.3   352  PHE352     -0.1227
    235  CA        -8.4030  -13.2060   27.4810 C.3   352  PHE352      0.1736
    236  C         -9.7570  -13.8010   27.0810 C.2   352  PHE352      0.2595
    237  O        -10.8080  -13.2050   27.3620 O.2   352  PHE352     -0.2718
    238  CB        -7.8530  -12.2040   26.4400 C.3   352  PHE352      0.0547
    239  CG        -6.8540  -11.2570   27.0360 C.ar  352  PHE352     -0.0202
    240  CD1       -7.2800  -10.1170   27.7240 C.ar  352  PHE352     -0.0042
    241  CD2       -5.5020  -11.5500   27.0100 C.ar  352  PHE352     -0.0042
    242  CE1       -6.3570   -9.2570   28.3180 C.ar  352  PHE352     -0.0003
    243  CE2       -4.5710  -10.6930   27.6040 C.ar  352  PHE352     -0.0003
    244  CZ        -4.9950   -9.5550   28.2610 C.ar  352  PHE352     -0.0000
    245  N         -9.7500  -14.9790   26.4640 N.am  353  GLU353     -0.1979
    246  CA       -11.0140  -15.5500   26.0070 C.3   353  GLU353      0.1602
    247  C        -12.0210  -15.7600   27.1710 C.2   353  GLU353      0.2287
    248  O        -13.2090  -15.4480   27.0010 O.2   353  GLU353     -0.2864
    249  CB       -10.8100  -16.8350   25.1810 C.3   353  GLU353      0.0415
    250  CG       -12.1360  -17.4830   24.7710 C.3   353  GLU353      0.1163
    251  CD       -12.8190  -16.8050   23.5770 C.2   353  GLU353      0.3649
    252  OE1      -12.5260  -15.6410   23.2870 O.co2 353  GLU353     -0.2457
    253  OE2      -13.6400  -17.4730   22.8870 O.co2 353  GLU353     -0.2457
    254  N        -13.7130  -12.6600   27.8860 N.3   356  ARG356     -0.1245
    255  CA       -14.5980  -12.1570   26.8430 C.3   356  ARG356      0.1563
    256  C        -16.0120  -12.7350   27.0240 C.2   356  ARG356      0.2260
    257  O        -17.0230  -11.9950   26.9960 O.2   356  ARG356     -0.2867
    258  CB       -14.0580  -12.5010   25.4590 C.3   356  ARG356      0.0307
    259  CG       -14.8940  -11.9550   24.3320 C.3   356  ARG356      0.0489
    260  CD       -14.4030  -12.4900   22.9780 C.3   356  ARG356      0.2205
    261  NE       -14.7190  -13.8920   22.7140 N.pl3 356  ARG356     -0.0865
    262  CZ       -15.9120  -14.3530   22.3420 C.cat 356  ARG356      0.5346
    263  NH1      -16.9620  -13.5420   22.2550 N.pl3 356  ARG356      0.1354
    264  NH2      -16.0630  -15.6540   22.0880 N.pl3 356  ARG356      0.1354
@<TRIPOS>BOND
     1    25    24    2
     2    24    23    1
     3    17    16    2
     4    13    12    1
     5    16    15    1
     6    11    10    2
     7    22    23    1
     8    23    26    1
     9     1     2    1
    10    10    14   am
    11    10     9    1
    12    15    14    1
    13    15    18    1
    14     8     3   am
    15     8     9    1
    16    12     9    1
    17    57    56    2
    18     2     3    1
    19     2     5    1
    20    26    27    1
    21     3     4    2
    22    56    55    1
    23    59    60    1
    24    20    19    2
    25    31    32    1
    26    18    19    1
    27     7     5    1
    28     5     6    1
    29    63    60    1
    30    63    64    1
    31    27    28    1
    32    19    21   am
    33    58    55    1
    34    55    54    1
    35    60    61    1
    36    32    33    1
    37    32    35    1
    38    29    28   ar
    39    65    64    1
    40    65    66    1
    41    44    45    2
    42    44    43    1
    43    54    48   am
    44    42    33   am
    45    42    43    1
    46    28    30   ar
    47    49    48    2
    48    46    47    1
    49    33    34    2
    50    62    61    2
    51    48    47    1
    52   173   171   ar
    53   173   174   ar
    54    66    67    2
    55   171   170   ar
    56    68    67    1
    57    35    36    1
    58    67    69    1
    59    47    50    1
    60   174   176   ar
    61   174   172   ar
    62    96    97   ar
    63    96    94   ar
    64   176   178   ar
    65   170   172   ar
    66   170   169    1
    67   182   181    2
    68    97    95   ar
    69    36    37   ar
    70    36    38   ar
    71   213   211   ar
    72   213   214   ar
    73    50    51    1
    74   172   175   ar
    75   169   166    1
    76   167   168    2
    77   167   166    1
    78   211   208   ar
    79    94    91   ar
    80   214   212   ar
    81    37    39   ar
    82    38    40   ar
    83   178   177   ar
    84    52    51    2
    85   181   180    1
    86    51    53   am
    87    95    93   ar
    88   166   165    1
    89   208   210   ar
    90   208   206   ar
    91   212   210   ar
    92   183   180    1
    93   183   184    1
    94   180   179    1
    95   210   209   ar
    96   205   206    1
    97   205   202    1
    98   175   177   ar
    99   206   207   ar
   100   103   102    1
   101    91    93   ar
   102    91    89   ar
   103    39    41   ar
   104    93    92   ar
   105    70    71    1
   106    40    41   ar
   107   209   207   ar
   108   185   184   ar
   109   185   187   ar
   110   184   186   ar
   111   104   102    1
   112   203   202    1
   113   203   204    2
   114   102    99    1
   115    89    88    1
   116    89    90   ar
   117    98    99    1
   118   202   201    1
   119    88    85    1
   120   123   121    1
   121    71    74    1
   122    71    72    1
   123    92    90   ar
   124    74    75    1
   125   187   188   ar
   126    99   100    1
   127    87    86    2
   128   186   188   ar
   129   186   189   ar
   130   201   199   am
   131   121   122    1
   132   121   120    2
   133    75    76    1
   134   188   190   ar
   135    73    72    2
   136    86    85    1
   137    85    84    1
   138   189   191   ar
   139   200   199    2
   140   120   119    1
   141   199   198    1
   142   100   101    2
   143   131   129   ar
   144    84    81   am
   145   112   110   ar
   146    76    77   ar
   147    76    78   ar
   148   190   192   ar
   149   264   262    1
   150   198   197    1
   151   119   118    1
   152   191   192   ar
   153   263   262    1
   154   262   261    2
   155   233   231   am
   156   261   260    1
   157   129   128    1
   158   129   130   ar
   159   164   162   ar
   160   164   163   ar
   161   118   117    1
   162   253   251   ar
   163   128   125    1
   164   110   109    1
   165   110   111   ar
   166   260   259    1
   167    81    82    2
   168    81    80    1
   169   197   195   am
   170   252   251   ar
   171   109   106    1
   172   162   160   ar
   173   163   161   ar
   174   231   230    1
   175   231   232    2
   176    79    80    1
   177   251   250    1
   178   124   125    1
   179   125   126    1
   180   230   227    1
   181    80    83    1
   182   117   114    1
   183   259   258    1
   184   105   106    1
   185   195   196    2
   186   195   194    1
   187   161   158   ar
   188   160   158   ar
   189   160   159   ar
   190   106   107    1
   191   138   137    1
   192   138   132    1
   193   250   249    1
   194   114   115    1
   195   114   113    1
   196   229   228    2
   197   126   132   am
   198   126   127    2
   199   158   156   ar
   200   227   228    1
   201   227   226    1
   202   249   246    1
   203   159   157   ar
   204   115   116    2
   205   194   193    1
   206   258   255    1
   207   137   136    1
   208   132   133    1
   209   146   148   ar
   210   146   144   ar
   211   107   108    2
   212   143   144    1
   213   143   140    1
   214   246   245    1
   215   246   247    1
   216   148   149   ar
   217   144   145   ar
   218   156   157   ar
   219   156   155    1
   220   238   239    1
   221   238   235    1
   222   245   236   am
   223   139   140    1
   224   139   134   am
   225   149   150    1
   226   149   147   ar
   227   224   223    1
   228   255   256    1
   229   255   254    1
   230   136   133    1
   231   133   134    1
   232   257   256    2
   233   248   247    2
   234   241   239   ar
   235   241   243   ar
   236   145   147   ar
   237   239   240   ar
   238   236   237    2
   239   236   235    1
   240   225   223    1
   241   140   141    1
   242   155   152    1
   243   235   234    1
   244   223   222    2
   245   134   135    2
   246   151   141   am
   247   151   152    1
   248   243   244   ar
   249   240   242   ar
   250   141   142    2
   251   152   153    1
   252   244   242   ar
   253   222   221    1
   254   221   220    1
   255   153   154    2
   256   220   219    1
   257   219   216    1
   258   218   217    2
   259   215   216    1
   260   217   216    1
