@<TRIPOS>MOLECULE
tmp/3k05B01.pdb
 161 157 0 0 0
SMALL
GASTEIGER

@<TRIPOS>ATOM
      1  N         16.8990  -10.3640  -41.9130 N.3     8  PHE8       -0.1227
      2  CA        17.3020  -10.2510  -40.5040 C.3     8  PHE8        0.1736
      3  C         16.6970  -11.3960  -39.7210 C.2     8  PHE8        0.2596
      4  O         15.5470  -11.7690  -39.9490 O.2     8  PHE8       -0.2718
      5  CB        16.8050   -8.9370  -39.8810 C.3     8  PHE8        0.0547
      6  CG        17.4940   -7.7110  -40.4110 C.ar    8  PHE8       -0.0202
      7  CD1       18.4630   -7.0700  -39.6700 C.ar    8  PHE8       -0.0042
      8  CD2       17.1490   -7.1990  -41.6480 C.ar    8  PHE8       -0.0042
      9  CE1       19.0980   -5.9240  -40.1670 C.ar    8  PHE8       -0.0003
     10  CE2       17.7710   -6.0740  -42.1540 C.ar    8  PHE8       -0.0003
     11  CZ        18.7420   -5.4250  -41.4110 C.ar    8  PHE8       -0.0000
     12  N         17.4670  -11.9590  -38.7990 N.am    9  THR9       -0.1939
     13  CA        16.9310  -12.9520  -37.8860 C.3     9  THR9        0.2028
     14  C         17.4960  -12.7250  -36.4960 C.2     9  THR9        0.2643
     15  O         18.4940  -12.0500  -36.3060 O.2     9  THR9       -0.2714
     16  CB        17.2550  -14.4110  -38.3590 C.3     9  THR9        0.1808
     17  OG1       16.4670  -15.3530  -37.6230 O.3     9  THR9       -0.2208
     18  CG2       18.7440  -14.7570  -38.1950 C.3     9  THR9        0.0379
     19  N         16.7950  -13.2640  -35.5170 N.am   10  GLY10      -0.1939
     20  CA        17.3290  -13.3120  -34.1590 C.3    10  GLY10       0.2014
     21  C         16.9180  -12.1570  -33.2800 C.2    10  GLY10       0.2638
     22  O         16.2850  -12.3420  -32.2500 O.2    10  GLY10      -0.2714
     23  N         17.2570  -10.9480  -33.7120 N.am   11  VAL11      -0.1977
     24  CA        16.9580   -9.7410  -32.9490 C.3    11  VAL11       0.1596
     25  C         16.5500   -8.6130  -33.8940 C.2    11  VAL11       0.2287
     26  O         17.1610   -8.4300  -34.9510 O.2    11  VAL11      -0.2864
     27  CB        18.1780   -9.3110  -32.1000 C.3    11  VAL11       0.0276
     28  CG1       19.2900   -8.7660  -33.0090 C.3    11  VAL11       0.0022
     29  CG2       17.7860   -8.3160  -31.0110 C.3    11  VAL11       0.0022
     30  N         23.9650  -13.5350  -33.4210 N.3    41  ARG41      -0.1231
     31  CA        24.7120  -14.7270  -33.0430 C.3    41  ARG41       0.1694
     32  C         24.1500  -15.8990  -33.8460 C.2    41  ARG41       0.2592
     33  O         23.1860  -15.7490  -34.6050 O.2    41  ARG41      -0.2718
     34  CB        24.6290  -14.9780  -31.5180 C.3    41  ARG41       0.0321
     35  CG        23.1970  -15.1180  -30.9550 C.3    41  ARG41       0.0489
     36  CD        23.1520  -15.6620  -29.5050 C.3    41  ARG41       0.2205
     37  NE        21.7840  -15.8400  -28.9960 N.pl3  41  ARG41      -0.0865
     38  CZ        21.2400  -15.1460  -27.9960 C.cat  41  ARG41       0.5346
     39  NH1       21.9300  -14.2130  -27.3580 N.pl3  41  ARG41       0.1354
     40  NH2       19.9840  -15.3850  -27.6190 N.pl3  41  ARG41       0.1354
     41  N         24.7410  -17.0720  -33.6930 N.am   42  ILE42      -0.1966
     42  CA        24.1810  -18.2470  -34.3110 C.3    42  ILE42       0.1727
     43  C         22.8600  -18.5510  -33.6210 C.2    42  ILE42       0.2616
     44  O         22.7950  -18.6560  -32.3940 O.2    42  ILE42      -0.2715
     45  CB        25.1490  -19.4430  -34.1680 C.3    42  ILE42       0.0290
     46  CG1       26.4000  -19.2070  -35.0140 C.3    42  ILE42       0.0022
     47  CG2       24.4620  -20.7500  -34.5570 C.3    42  ILE42       0.0023
     48  CD1       27.5120  -20.1650  -34.7000 C.3    42  ILE42       0.0001
     49  N         21.7970  -18.6540  -34.4130 N.am   43  ARG43      -0.1963
     50  CA        20.4850  -19.0240  -33.8750 C.3    43  ARG43       0.1729
     51  C         19.8340  -20.0380  -34.7600 C.2    43  ARG43       0.2616
     52  O         19.9220  -19.9530  -35.9810 O.2    43  ARG43      -0.2715
     53  CB        19.5360  -17.8350  -33.7260 C.3    43  ARG43       0.0348
     54  CG        19.8870  -16.8650  -32.6470 C.3    43  ARG43       0.0492
     55  CD        19.1110  -15.6470  -32.8890 C.3    43  ARG43       0.2205
     56  NE        19.4590  -14.5750  -32.0000 N.pl3  43  ARG43      -0.0865
     57  CZ        18.8210  -14.3500  -30.8620 C.cat  43  ARG43       0.5346
     58  NH1       19.1700  -13.3090  -30.1290 N.pl3  43  ARG43       0.1354
     59  NH2       17.8470  -15.1850  -30.4810 N.pl3  43  ARG43       0.1354
     60  N         19.1630  -20.9960  -34.1540 N.am   44  ARG44      -0.1963
     61  CA        18.4870  -22.0180  -34.9180 C.3    44  ARG44       0.1729
     62  C         17.0690  -21.6080  -35.3050 C.2    44  ARG44       0.2617
     63  O         16.0920  -22.2900  -34.9800 O.2    44  ARG44      -0.2715
     64  CB        18.5100  -23.3720  -34.2300 C.3    44  ARG44       0.0348
     65  CG        18.2620  -24.4740  -35.2600 C.3    44  ARG44       0.0492
     66  CD        19.1280  -25.7080  -35.0640 C.3    44  ARG44       0.2205
     67  NE        18.7630  -26.4130  -33.8400 N.pl3  44  ARG44      -0.0865
     68  CZ        19.3180  -27.5510  -33.4340 C.cat  44  ARG44       0.5346
     69  NH1       18.9060  -28.1140  -32.3080 N.pl3  44  ARG44       0.1354
     70  NH2       20.2860  -28.1200  -34.1440 N.pl3  44  ARG44       0.1354
     71  N         16.9720  -20.4760  -35.9940 N.am   45  THR45      -0.1937
     72  CA        15.7230  -20.0320  -36.5760 C.3    45  THR45       0.2028
     73  C         15.5610  -20.6110  -37.9780 C.2    45  THR45       0.2642
     74  O         16.5230  -21.0270  -38.6220 O.2    45  THR45      -0.2714
     75  CB        15.6580  -18.5010  -36.6850 C.3    45  THR45       0.1808
     76  OG1       16.7250  -18.0690  -37.5320 O.3    45  THR45      -0.2208
     77  CG2       15.7540  -17.8460  -35.3280 C.3    45  THR45       0.0379
     78  N         14.3270  -20.6290  -38.4670 N.am   46  VAL46      -0.1963
     79  CA        14.0810  -21.0460  -39.8410 C.3    46  VAL46       0.1727
     80  C         14.9040  -20.2070  -40.8220 C.2    46  VAL46       0.2616
     81  O         15.5460  -20.7610  -41.7220 O.2    46  VAL46      -0.2715
     82  CB        12.5750  -20.9800  -40.1690 C.3    46  VAL46       0.0290
     83  CG1       12.3260  -21.2130  -41.6570 C.3    46  VAL46       0.0023
     84  CG2       11.7800  -22.0110  -39.3200 C.3    46  VAL46       0.0023
     85  N         14.9100  -18.8850  -40.6440 N.am   47  LYS47      -0.1977
     86  CA        15.6960  -18.0350  -41.5360 C.3    47  LYS47       0.1596
     87  C         17.1800  -18.3890  -41.5340 C.2    47  LYS47       0.2287
     88  O         17.8050  -18.4060  -42.5900 O.2    47  LYS47      -0.2864
     89  CB        15.5360  -16.5570  -41.1810 C.3    47  LYS47       0.0298
     90  CG        14.2040  -15.9210  -41.5580 C.3    47  LYS47       0.0038
     91  CD        14.1780  -14.4870  -41.0360 C.3    47  LYS47       0.0206
     92  CE        12.8820  -13.7800  -41.3140 C.3    47  LYS47       0.1093
     93  NZ        12.8700  -12.4870  -40.5690 N.3    47  LYS47      -0.1314
     94  N         18.6580  -21.2580  -40.7730 N.3    49  LEU49      -0.1245
     95  CA        18.8920  -22.5350  -41.4080 C.3    49  LEU49       0.1561
     96  C         18.7230  -22.4500  -42.9160 C.2    49  LEU49       0.2260
     97  O         19.4950  -23.0740  -43.6510 O.2    49  LEU49      -0.2867
     98  CB        17.9600  -23.5990  -40.8180 C.3    49  LEU49       0.0270
     99  CG        18.2290  -23.9480  -39.3490 C.3    49  LEU49       0.0019
    100  CD1       17.1050  -24.8020  -38.7760 C.3    49  LEU49       0.0001
    101  CD2       19.5740  -24.6460  -39.1920 C.3    49  LEU49       0.0001
    102  N         26.3210  -26.4170  -30.4470 N.3    90  PHE90      -0.1241
    103  CA        25.7230  -27.1310  -31.5850 C.3    90  PHE90       0.1605
    104  C         26.7300  -28.0300  -32.2990 C.2    90  PHE90       0.2264
    105  O         26.3650  -28.7660  -33.2260 O.2    90  PHE90      -0.2867
    106  CB        25.1430  -26.1580  -32.6160 C.3    90  PHE90       0.0534
    107  CG        23.9320  -25.4170  -32.1500 C.ar   90  PHE90      -0.0203
    108  CD1       22.8050  -26.1090  -31.7420 C.ar   90  PHE90      -0.0042
    109  CD2       23.8930  -24.0400  -32.1860 C.ar   90  PHE90      -0.0042
    110  CE1       21.6670  -25.4250  -31.3340 C.ar   90  PHE90      -0.0003
    111  CE2       22.7680  -23.3460  -31.7790 C.ar   90  PHE90      -0.0003
    112  CZ        21.6560  -24.0430  -31.3480 C.ar   90  PHE90      -0.0000
    113  N          7.8130  -29.4390  -35.2460 N.3   119  GLN119     -0.1231
    114  CA         8.2970  -28.0640  -35.0880 C.3   119  GLN119      0.1683
    115  C          9.7220  -27.9800  -35.5920 C.2   119  GLN119      0.2434
    116  O         10.5430  -28.8030  -35.2000 O.2   119  GLN119     -0.2733
    117  CB         8.2640  -27.6560  -33.6100 C.3   119  GLN119      0.0380
    118  CG         6.8580  -27.5410  -33.0360 C.3   119  GLN119      0.0905
    119  CD         6.0830  -26.3960  -33.6490 C.2   119  GLN119      0.2608
    120  OE1        6.6700  -25.4630  -34.2150 O.2   119  GLN119     -0.2717
    121  NE2        4.7640  -26.4340  -33.5130 N.am  119  GLN119     -0.0878
    122  N         10.0220  -27.0010  -36.4570 N.am  120  PRO120     -0.2718
    123  CA         9.0830  -26.0250  -37.0280 C.3   120  PRO120      0.1520
    124  C          8.0360  -26.7100  -37.9360 C.2   120  PRO120      0.2440
    125  O          8.2520  -27.8170  -38.4260 O.2   120  PRO120     -0.2731
    126  CB        10.0020  -25.0830  -37.8370 C.3   120  PRO120      0.0310
    127  CG        11.1670  -25.9270  -38.1940 C.3   120  PRO120      0.0237
    128  CD        11.3780  -26.8600  -37.0240 C.3   120  PRO120      0.0939
    129  N          6.9340  -26.0190  -38.2090 N.am  121  PRO121     -0.2727
    130  CA         5.8440  -26.7060  -38.8990 C.3   121  PRO121      0.1402
    131  C          6.1620  -26.9830  -40.3660 C.2   121  PRO121      0.2269
    132  O          7.0970  -26.4050  -40.9430 O.2   121  PRO121     -0.2865
    133  CB         4.6720  -25.7290  -38.7760 C.3   121  PRO121      0.0296
    134  CG         5.0840  -24.7220  -37.7530 C.3   121  PRO121      0.0237
    135  CD         6.5690  -24.6630  -37.7610 C.3   121  PRO121      0.0939
    136  N          7.3920  -24.3610  -43.0380 N.3   124  GLN124     -0.1245
    137  CA         8.6820  -23.8010  -42.6540 C.3   124  GLN124      0.1566
    138  C          9.7840  -24.8200  -42.8890 C.2   124  GLN124      0.2260
    139  O         10.8000  -24.5100  -43.5040 O.2   124  GLN124     -0.2867
    140  CB         8.6800  -23.3510  -41.1860 C.3   124  GLN124      0.0367
    141  CG         8.0260  -22.0030  -40.9380 C.3   124  GLN124      0.0905
    142  CD         6.5390  -22.0510  -41.1650 C.2   124  GLN124      0.2608
    143  OE1        5.8730  -23.0050  -40.7650 O.2   124  GLN124     -0.2717
    144  NE2        6.0030  -21.0200  -41.8060 N.am  124  GLN124     -0.0878
    145  N         15.3430  -33.3640  -35.7600 N.3   174  GLU174     -0.1245
    146  CA        16.7740  -33.0960  -35.5850 C.3   174  GLU174      0.1567
    147  C         17.5980  -33.5240  -36.8040 C.2   174  GLU174      0.2260
    148  O         18.6910  -33.0070  -37.0160 O.2   174  GLU174     -0.2867
    149  CB        17.3260  -33.7460  -34.3120 C.3   174  GLU174      0.0388
    150  CG        16.7810  -33.1620  -33.0180 C.3   174  GLU174      0.1160
    151  CD        16.8960  -31.6590  -32.9190 C.2   174  GLU174      0.3649
    152  OE1       17.9970  -31.1180  -33.1500 O.co2 174  GLU174     -0.2457
    153  OE2       15.8730  -31.0110  -32.5950 O.co2 174  GLU174     -0.2457
    154  N         17.3990  -30.1690  -38.2260 N.3   177  LEU177     -0.1245
    155  CA        17.8360  -29.0830  -37.3400 C.3   177  LEU177      0.1561
    156  C         19.3280  -29.1990  -37.0330 C.2   177  LEU177      0.2260
    157  O         20.0310  -28.1910  -36.9730 O.2   177  LEU177     -0.2867
    158  CB        16.9980  -29.0440  -36.0600 C.3   177  LEU177      0.0270
    159  CG        15.5040  -28.7630  -36.2850 C.3   177  LEU177      0.0019
    160  CD1       14.7470  -28.8700  -34.9740 C.3   177  LEU177      0.0001
    161  CD2       15.2460  -27.4030  -36.9670 C.3   177  LEU177      0.0001
@<TRIPOS>BOND
     1    97    96    2
     2   139   138    2
     3   136   137    1
     4    96    95    1
     5   138   137    1
     6   137   140    1
     7    88    87    2
     8    10     8   ar
     9    10    11   ar
    10     1     2    1
    11   144   142   am
    12    81    80    2
    13    83    82    1
    14     8     6   ar
    15    90    89    1
    16    90    91    1
    17    86    87    1
    18    86    89    1
    19    86    85    1
    20    11     9   ar
    21    95    98    1
    22    95    94    1
    23    92    91    1
    24    92    93    1
    25   140   141    1
    26   142   141    1
    27   142   143    2
    28   132   131    2
    29    80    85   am
    30    80    79    1
    31    98    99    1
    32     2     5    1
    33     2     3    1
    34     6     5    1
    35     6     7   ar
    36   131   130    1
    37    82    79    1
    38    82    84    1
    39     9     7   ar
    40     4     3    2
    41    79    78    1
    42     3    12   am
    43    99   101    1
    44    99   100    1
    45   130   133    1
    46   130   129    1
    47    12    13    1
    48   133   134    1
    49    74    73    2
    50    78    73   am
    51   125   124    2
    52    16    18    1
    53    16    13    1
    54    16    17    1
    55   154   155    1
    56   129   124   am
    57   129   135    1
    58   127   126    1
    59   127   128    1
    60    73    72    1
    61   124   123    1
    62    13    14    1
    63   126   123    1
    64   135   134    1
    65    76    75    1
    66   155   156    1
    67   155   158    1
    68   156   157    2
    69   123   122    1
    70   128   122    1
    71   148   147    2
    72   161   159    1
    73   147   146    1
    74    75    72    1
    75    75    77    1
    76    72    71    1
    77    14    15    2
    78    14    19   am
    79   122   115   am
    80   159   158    1
    81   159   160    1
    82    71    62   am
    83    52    51    2
    84   145   146    1
    85   115   116    2
    86   115   114    1
    87   146   149    1
    88    19    20    1
    89    62    63    2
    90    62    61    1
    91    65    66    1
    92    65    64    1
    93   113   114    1
    94   114   117    1
    95    66    67    1
    96    46    48    1
    97    46    45    1
    98    26    25    2
    99    61    64    1
   100    61    60    1
   101    51    60   am
   102    51    50    1
   103    33    32    2
   104    47    45    1
   105    49    50    1
   106    49    43   am
   107   149   150    1
   108    42    45    1
   109    42    41    1
   110    42    43    1
   111   120   119    2
   112    20    21    1
   113    70    68    1
   114    25    24    1
   115    50    53    1
   116    32    41   am
   117    32    31    1
   118    67    68    2
   119    53    54    1
   120    23    21   am
   121    23    24    1
   122   119   121   am
   123   119   118    1
   124    43    44    2
   125   117   118    1
   126    68    69    1
   127    30    31    1
   128    21    22    2
   129   105   104    2
   130   152   151   ar
   131    31    34    1
   132   150   151    1
   133    28    27    1
   134    24    27    1
   135   151   153   ar
   136    55    54    1
   137    55    56    1
   138   106   107    1
   139   106   103    1
   140   104   103    1
   141   109   107   ar
   142   109   111   ar
   143   107   108   ar
   144    27    29    1
   145    56    57    2
   146   111   112   ar
   147   108   110   ar
   148   103   102    1
   149    34    35    1
   150   112   110   ar
   151    35    36    1
   152    57    59    1
   153    57    58    1
   154    36    37    1
   155    37    38    2
   156    38    40    1
   157    38    39    1
