@<TRIPOS>MOLECULE
tmp/3k08A03.pdb
 80 75 0 0 0
SMALL
GASTEIGER

@<TRIPOS>ATOM
      1  N         -3.2520  -20.0960   31.6050 N.3     8  LEU8       -0.1245
      2  CA        -4.3570  -19.2370   31.1860 C.3     8  LEU8        0.1561
      3  C         -4.0150  -18.4290   29.9350 C.2     8  LEU8        0.2260
      4  O         -4.8600  -18.2340   29.0580 O.2     8  LEU8       -0.2867
      5  CB        -4.7460  -18.2860   32.3180 C.3     8  LEU8        0.0270
      6  CG        -5.6070  -18.8800   33.4350 C.3     8  LEU8        0.0019
      7  CD1       -5.3810  -18.1090   34.7220 C.3     8  LEU8        0.0001
      8  CD2       -7.0720  -18.8250   33.0290 C.3     8  LEU8        0.0001
      9  N         -4.0550  -20.9000   26.8560 N.3    11  LEU11      -0.1231
     10  CA        -5.3910  -21.2030   26.3590 C.3    11  LEU11       0.1693
     11  C         -5.9600  -20.0510   25.5390 C.2    11  LEU11       0.2592
     12  O         -6.5660  -20.2660   24.4880 O.2    11  LEU11      -0.2718
     13  CB        -6.3330  -21.5210   27.5260 C.3    11  LEU11       0.0284
     14  CG        -6.0020  -22.7820   28.3310 C.3    11  LEU11       0.0019
     15  CD1       -7.0040  -22.9400   29.4670 C.3    11  LEU11       0.0001
     16  CD2       -6.0350  -24.0010   27.4170 C.3    11  LEU11       0.0001
     17  N         -5.7600  -18.8270   26.0240 N.am   12  THR12      -0.1953
     18  CA        -6.2540  -17.6390   25.3380 C.3    12  THR12       0.1897
     19  C         -5.6060  -17.5240   23.9620 C.2    12  THR12       0.2313
     20  O         -6.2790  -17.2310   22.9690 O.2    12  THR12      -0.2863
     21  CB        -5.9540  -16.3610   26.1690 C.3    12  THR12       0.1794
     22  OG1       -6.6860  -16.4160   27.4010 O.3    12  THR12      -0.2208
     23  CG2       -6.3670  -15.1020   25.4110 C.3    12  THR12       0.0378
     24  N         -6.9320  -20.2180   21.5290 N.3    15  SER15      -0.1217
     25  CA        -8.2420  -19.8540   21.0020 C.3    15  SER15       0.1889
     26  C         -8.1040  -18.8470   19.8680 C.2    15  SER15       0.2288
     27  O         -8.7540  -18.9710   18.8300 O.2    15  SER15      -0.2866
     28  CB        -9.1160  -19.2650   22.1090 C.3    15  SER15       0.2089
     29  OG       -10.3960  -18.9220   21.6010 O.3    15  SER15      -0.2183
     30  N        -15.0450  -10.4760   17.1020 N.3    56  PHE56      -0.1241
     31  CA       -14.2950  -11.3470   17.9830 C.3    56  PHE56       0.1605
     32  C        -13.1060  -10.5790   18.5580 C.2    56  PHE56       0.2264
     33  O        -12.8330  -10.6530   19.7550 O.2    56  PHE56      -0.2867
     34  CB       -13.8020  -12.5910   17.2210 C.3    56  PHE56       0.0534
     35  CG       -12.8660  -13.4590   18.0140 C.ar   56  PHE56      -0.0203
     36  CD1      -11.4890  -13.2730   17.9380 C.ar   56  PHE56      -0.0042
     37  CD2      -13.3590  -14.4520   18.8550 C.ar   56  PHE56      -0.0042
     38  CE1      -10.6220  -14.0550   18.6830 C.ar   56  PHE56      -0.0003
     39  CE2      -12.5000  -15.2400   19.6050 C.ar   56  PHE56      -0.0003
     40  CZ       -11.1240  -15.0450   19.5220 C.ar   56  PHE56      -0.0000
     41  N        -14.0410   -8.3720   21.5150 N.3    59  LEU59      -0.1231
     42  CA       -14.2610   -9.1400   22.7370 C.3    59  LEU59       0.1693
     43  C        -12.9640   -9.7720   23.2490 C.2    59  LEU59       0.2592
     44  O        -12.7100   -9.8100   24.4520 O.2    59  LEU59      -0.2718
     45  CB       -15.3110  -10.2280   22.4850 C.3    59  LEU59       0.0284
     46  CG       -16.6930   -9.7220   22.0580 C.3    59  LEU59       0.0019
     47  CD1      -17.5580  -10.9040   21.6450 C.3    59  LEU59       0.0001
     48  CD2      -17.3480   -8.9550   23.1970 C.3    59  LEU59       0.0001
     49  N        -12.1400  -10.2550   22.3210 N.am   60  TYR60      -0.1976
     50  CA       -10.8670  -10.8910   22.6410 C.3    60  TYR60       0.1639
     51  C         -9.9600   -9.9200   23.4060 C.2    60  TYR60       0.2290
     52  O         -9.3230  -10.2870   24.3950 O.2    60  TYR60      -0.2864
     53  CB       -10.2020  -11.3430   21.3290 C.3    60  TYR60       0.0560
     54  CG        -9.0110  -12.2670   21.4640 C.ar   60  TYR60      -0.0198
     55  CD1       -7.7860  -11.9410   20.8920 C.ar   60  TYR60      -0.0009
     56  CD2       -9.1250  -13.5010   22.1020 C.ar   60  TYR60      -0.0009
     57  CE1       -6.6980  -12.8270   20.9460 C.ar   60  TYR60       0.0417
     58  CE2       -8.0480  -14.3910   22.1670 C.ar   60  TYR60       0.0417
     59  CZ        -6.8400  -14.0510   21.5860 C.ar   60  TYR60       0.1957
     60  OH        -5.7800  -14.9330   21.6460 O.3    60  TYR60      -0.2866
     61  N        -11.3170   -9.1840   27.0710 N.3    63  ILE63      -0.1231
     62  CA       -11.1800  -10.3290   27.9560 C.3    63  ILE63       0.1692
     63  C         -9.7500  -10.8450   28.1150 C.2    63  ILE63       0.2592
     64  O         -9.4050  -11.4090   29.1540 O.2    63  ILE63      -0.2718
     65  CB       -12.0990  -11.4750   27.4850 C.3    63  ILE63       0.0266
     66  CG1      -13.5550  -11.0080   27.5670 C.3    63  ILE63       0.0019
     67  CG2      -11.8810  -12.7190   28.3340 C.3    63  ILE63       0.0020
     68  CD1      -14.5650  -12.0140   27.0930 C.3    63  ILE63       0.0001
     69  N         -8.9120  -10.6300   27.1050 N.am   64  GLY64      -0.1957
     70  CA        -7.5490  -11.1290   27.1740 C.3    64  GLY64       0.1869
     71  C         -6.4370  -10.1840   27.5920 C.2    64  GLY64       0.2309
     72  O         -5.4040  -10.6380   28.0820 O.2    64  GLY64      -0.2863
     73  N         -5.4580  -10.5060   31.3960 N.3    67  LEU67      -0.1245
     74  CA        -4.7230  -11.7350   31.6750 C.3    67  LEU67       0.1561
     75  C         -3.2960  -11.7120   31.1580 C.2    67  LEU67       0.2260
     76  O         -2.3610  -12.0760   31.8710 O.2    67  LEU67      -0.2867
     77  CB        -5.4330  -12.9310   31.0480 C.3    67  LEU67       0.0270
     78  CG        -4.6380  -14.2410   31.0450 C.3    67  LEU67       0.0019
     79  CD1       -4.3290  -14.6700   32.4750 C.3    67  LEU67       0.0001
     80  CD2       -5.4340  -15.3100   30.3240 C.3    67  LEU67       0.0001
@<TRIPOS>BOND
     1    30    31    1
     2    34    31    1
     3    34    35    1
     4    36    35   ar
     5    36    38   ar
     6    31    32    1
     7    35    37   ar
     8    32    33    2
     9    38    40   ar
    10    27    26    2
    11    37    39   ar
    12    40    39   ar
    13    26    25    1
    14    55    57   ar
    15    55    54   ar
    16    57    59   ar
    17    25    24    1
    18    25    28    1
    19    53    54    1
    20    53    50    1
    21    54    56   ar
    22    41    42    1
    23    59    60    1
    24    59    58   ar
    25    29    28    1
    26    47    46    1
    27    46    45    1
    28    46    48    1
    29    56    58   ar
    30    49    50    1
    31    49    43   am
    32    45    42    1
    33    50    51    1
    34    42    43    1
    35    20    19    2
    36    43    44    2
    37    51    52    2
    38    19    18    1
    39    12    11    2
    40    18    17    1
    41    18    21    1
    42    23    21    1
    43    11    17   am
    44    11    10    1
    45    21    22    1
    46    10     9    1
    47    10    13    1
    48    61    62    1
    49    68    66    1
    50    69    70    1
    51    69    63   am
    52    70    71    1
    53    16    14    1
    54    65    66    1
    55    65    62    1
    56    65    67    1
    57    13    14    1
    58    71    72    2
    59    62    63    1
    60    63    64    2
    61    14    15    1
    62     4     3    2
    63     3     2    1
    64    80    78    1
    65    78    77    1
    66    78    79    1
    67    77    74    1
    68    75    74    1
    69    75    76    2
    70     2     1    1
    71     2     5    1
    72    73    74    1
    73     5     6    1
    74     8     6    1
    75     6     7    1
