@<TRIPOS>MOLECULE
tmp/3k09F02.pdb
 144 139 0 0 0
SMALL
GASTEIGER

@<TRIPOS>ATOM
      1  N        106.4950   95.7990   19.8600 N.3   277  THR277     -0.1203
      2  CA       107.3500   96.5120   20.7820 C.3   277  THR277      0.1994
      3  C        107.8800   97.6740   19.9390 C.2   277  THR277      0.2618
      4  O        107.9160   97.5890   18.7140 O.2   277  THR277     -0.2717
      5  CB       108.4930   95.5850   21.2640 C.3   277  THR277      0.1784
      6  OG1      109.4150   96.3230   22.0710 O.3   277  THR277     -0.2211
      7  CG2      109.2270   94.9520   20.0880 C.3   277  THR277      0.0376
      8  N        108.2270   98.7830   20.5780 N.am  278  GLY278     -0.1942
      9  CA       108.7680   99.9230   19.8500 C.3   278  GLY278      0.2014
     10  C        107.8350  100.7610   18.9900 C.2   278  GLY278      0.2640
     11  O        108.2700  101.7070   18.3440 O.2   278  GLY278     -0.2714
     12  N        106.5540  100.4340   18.9820 N.am  279  THR279     -0.1936
     13  CA       105.5960  101.1790   18.1720 C.3   279  THR279      0.2028
     14  C        105.1690  102.5190   18.7620 C.2   279  THR279      0.2643
     15  O        104.6320  103.3680   18.0580 O.2   279  THR279     -0.2714
     16  CB       104.3360  100.3570   17.9390 C.3   279  THR279      0.1808
     17  OG1      103.8170   99.9300   19.2010 O.3   279  THR279     -0.2208
     18  CG2      104.6490   99.1470   17.0840 C.3   279  THR279      0.0379
     19  N        105.3850  102.7030   20.0570 N.am  280  GLY280     -0.1939
     20  CA       105.0030  103.9570   20.6780 C.3   280  GLY280      0.2014
     21  C        103.6650  103.9960   21.4010 C.2   280  GLY280      0.2639
     22  O        102.9510  104.9970   21.3350 O.2   280  GLY280     -0.2714
     23  N        103.3000  102.9070   22.0670 N.am  281  LYS281     -0.1963
     24  CA       102.0630  102.8710   22.8350 C.3   281  LYS281      0.1728
     25  C        102.3840  103.7370   24.0490 C.2   281  LYS281      0.2617
     26  O        101.5900  104.5920   24.4520 O.2   281  LYS281     -0.2715
     27  CB       101.7220  101.4520   23.3220 C.3   281  LYS281      0.0311
     28  CG       101.1730  100.4770   22.2890 C.3   281  LYS281      0.0038
     29  CD       102.2700   99.6520   21.6540 C.3   281  LYS281      0.0206
     30  CE       103.0080   98.8220   22.6760 C.3   281  LYS281      0.1093
     31  NZ       104.1440   98.1130   22.0370 N.3   281  LYS281     -0.1314
     32  N        103.5680  103.5120   24.6190 N.am  282  THR282     -0.1937
     33  CA       104.0280  104.2520   25.7910 C.3   282  THR282      0.2028
     34  C        103.8390  105.7410   25.5610 C.2   282  THR282      0.2642
     35  O        103.2020  106.4260   26.3560 O.2   282  THR282     -0.2714
     36  CB       105.5090  103.9840   26.0560 C.3   282  THR282      0.1808
     37  OG1      105.7220  102.5760   26.1990 O.3   282  THR282     -0.2208
     38  CG2      105.9560  104.6990   27.3100 C.3   282  THR282      0.0379
     39  N        104.4070  106.2290   24.4630 N.am  283  LEU283     -0.1977
     40  CA       104.2890  107.6320   24.0890 C.3   283  LEU283      0.1596
     41  C        102.8330  108.0600   24.2690 C.2   283  LEU283      0.2287
     42  O        102.5080  108.7990   25.1920 O.2   283  LEU283     -0.2864
     43  CB       104.7250  107.8160   22.6270 C.3   283  LEU283      0.0297
     44  CG       104.4630  109.1640   21.9370 C.3   283  LEU283      0.0022
     45  CD1      105.0600  110.2860   22.7760 C.3   283  LEU283      0.0001
     46  CD2      105.0640  109.1740   20.5280 C.3   283  LEU283      0.0001
     47  N        106.6760   98.4170   33.1780 N.3   305  GLU305     -0.1231
     48  CA       107.8120   98.1700   32.2850 C.3   305  GLU305      0.1699
     49  C        108.9710   99.1530   32.4540 C.2   305  GLU305      0.2592
     50  O        110.1340   98.7830   32.2810 O.2   305  GLU305     -0.2718
     51  CB       107.3650   98.2000   30.8160 C.3   305  GLU305      0.0402
     52  CG       106.3710   97.1210   30.4370 C.3   305  GLU305      0.1161
     53  CD       106.2380   96.9430   28.9320 C.2   305  GLU305      0.3649
     54  OE1      106.1060   97.9640   28.2260 O.co2 305  GLU305     -0.2457
     55  OE2      106.2630   95.7830   28.4560 O.co2 305  GLU305     -0.2457
     56  N        108.6520  100.4000   32.7910 N.am  306  GLU306     -0.1979
     57  CA       109.6760  101.4300   32.9580 C.3   306  GLU306      0.1602
     58  C        109.7400  102.0590   34.3480 C.2   306  GLU306      0.2287
     59  O        108.7130  102.2260   35.0170 O.2   306  GLU306     -0.2864
     60  CB       109.4580  102.5450   31.9420 C.3   306  GLU306      0.0415
     61  CG       109.5440  102.1040   30.5010 C.3   306  GLU306      0.1163
     62  CD       109.4630  103.2790   29.5530 C.2   306  GLU306      0.3649
     63  OE1      110.3710  104.1360   29.5950 O.co2 306  GLU306     -0.2457
     64  OE2      108.4950  103.3530   28.7690 O.co2 306  GLU306     -0.2457
     65  N        112.3430  109.8800   28.9730 N.3   314  ASN314     -0.1240
     66  CA       111.6370  109.7100   27.7170 C.3   314  ASN314      0.1653
     67  C        110.4860  110.6800   27.5650 C.2   314  ASN314      0.2266
     68  O        110.2430  111.1910   26.4760 O.2   314  ASN314     -0.2867
     69  CB       111.1310  108.2760   27.5990 C.3   314  ASN314      0.1155
     70  CG       112.2090  107.2580   27.9110 C.2   314  ASN314      0.2627
     71  OD1      113.4030  107.5250   27.7480 O.2   314  ASN314     -0.2716
     72  ND2      111.7930  106.0770   28.3580 N.am  314  ASN314     -0.0877
     73  N        112.0240  114.0220   26.6240 N.3   317  SER317     -0.1202
     74  CA       112.5580  113.9660   25.2610 C.3   317  SER317      0.2020
     75  C        111.4080  114.1180   24.2690 C.2   317  SER317      0.2618
     76  O        111.6150  114.5080   23.1190 O.2   317  SER317     -0.2717
     77  CB       113.2840  112.6400   25.0100 C.3   317  SER317      0.2103
     78  OG       114.4460  112.5220   25.8150 O.3   317  SER317     -0.2182
     79  N        110.2020  113.7870   24.7260 N.am  318  TRP318     -0.1975
     80  CA       108.9970  113.9090   23.9140 C.3   318  TRP318      0.1640
     81  C        108.3010  115.1990   24.3240 C.2   318  TRP318      0.2290
     82  O        107.0840  115.3280   24.1950 O.2   318  TRP318     -0.2864
     83  CB       108.0260  112.7520   24.1730 C.3   318  TRP318      0.0576
     84  CG       108.2990  111.4780   23.4540 C.ar  318  TRP318      0.0006
     85  CD1      108.7060  111.3220   22.1550 C.ar  318  TRP318      0.0946
     86  CD2      108.1030  110.1660   23.9680 C.ar  318  TRP318      0.0152
     87  NE1      108.7810  109.9920   21.8340 N.ar  318  TRP318     -0.2442
     88  CE2      108.4180  109.2570   22.9320 C.ar  318  TRP318      0.0810
     89  CE3      107.7010  109.6630   25.2100 C.ar  318  TRP318      0.0012
     90  CZ2      108.3250  107.8670   23.1000 C.ar  318  TRP318      0.0191
     91  CZ3      107.6130  108.2870   25.3760 C.ar  318  TRP318      0.0001
     92  CH2      107.9280  107.4070   24.3310 C.ar  318  TRP318      0.0015
     93  N        101.2770   94.7880   24.4520 N.3   402  THR402     -0.1218
     94  CA       102.3470   94.5600   23.4890 C.3   402  THR402      0.1862
     95  C        102.2920   93.1450   22.9230 C.2   402  THR402      0.2287
     96  O        102.3470   92.1630   23.6700 O.2   402  THR402     -0.2866
     97  CB       103.7200   94.7900   24.1340 C.3   402  THR402      0.1770
     98  OG1      103.8040   96.1430   24.5980 O.3   402  THR402     -0.2211
     99  CG2      104.8360   94.5280   23.1240 C.3   402  THR402      0.0375
    100  N        104.5070   98.3180   12.5850 N.3   429  TYR429     -0.1241
    101  CA       105.6280   98.6160   11.7180 C.3   429  TYR429      0.1605
    102  C        105.2770   98.3100   10.2740 C.2   429  TYR429      0.2264
    103  O        104.5230   97.3790    9.9910 O.2   429  TYR429     -0.2867
    104  CB       106.8390   97.7900   12.1250 C.3   429  TYR429      0.0534
    105  CG       107.3800   98.1630   13.4720 C.ar  429  TYR429     -0.0201
    106  CD1      107.1110   97.3870   14.5940 C.ar  429  TYR429     -0.0009
    107  CD2      108.1780   99.2900   13.6320 C.ar  429  TYR429     -0.0009
    108  CE1      107.6340   97.7250   15.8480 C.ar  429  TYR429      0.0417
    109  CE2      108.7030   99.6320   14.8790 C.ar  429  TYR429      0.0417
    110  CZ       108.4270   98.8410   15.9770 C.ar  429  TYR429      0.1957
    111  OH       108.9670   99.1530   17.1960 O.3   429  TYR429     -0.2866
    112  N        106.2850  103.7140   11.2000 N.3   438  ARG438     -0.1245
    113  CA       105.1340  103.4910   12.0630 C.3   438  ARG438      0.1563
    114  C        103.8420  103.8060   11.3360 C.2   438  ARG438      0.2260
    115  O        103.8110  104.6450   10.4400 O.2   438  ARG438     -0.2867
    116  CB       105.2100  104.3520   13.3300 C.3   438  ARG438      0.0307
    117  CG       106.3010  103.9740   14.3050 C.3   438  ARG438      0.0489
    118  CD       107.6120  104.6610   13.9500 C.3   438  ARG438      0.2205
    119  NE       108.7780  103.9710   14.5070 N.pl3 438  ARG438     -0.0865
    120  CZ       108.9160  103.6450   15.7890 C.cat 438  ARG438      0.5346
    121  NH1      107.9580  103.9460   16.6610 N.pl3 438  ARG438      0.1354
    122  NH2      110.0090  103.0110   16.1970 N.pl3 438  ARG438      0.1354
    123  N        107.5640  109.6400   14.7790 N.3   459  ILE459     -0.1231
    124  CA       107.7820  110.0970   16.1400 C.3   459  ILE459      0.1692
    125  C        108.9120  111.1180   16.1510 C.2   459  ILE459      0.2593
    126  O        109.9410  110.9230   15.5030 O.2   459  ILE459     -0.2718
    127  CB       108.1120  108.8910   17.0690 C.3   459  ILE459      0.0266
    128  CG1      106.9630  107.8710   17.0050 C.3   459  ILE459      0.0019
    129  CG2      108.3120  109.3630   18.5060 C.3   459  ILE459      0.0020
    130  CD1      107.1830  106.6030   17.8030 C.3   459  ILE459      0.0001
    131  N        108.7080  112.2130   16.8790 N.am  460  SER460     -0.1938
    132  CA       109.7080  113.2710   16.9600 C.3   460  SER460      0.2055
    133  C        109.9180  113.7780   18.3810 C.2   460  SER460      0.2643
    134  O        109.3220  113.2700   19.3260 O.2   460  SER460     -0.2714
    135  CB       109.3100  114.4390   16.0450 C.3   460  SER460      0.2130
    136  OG       107.9940  114.8990   16.3200 O.3   460  SER460     -0.2179
    137  N        110.7760  114.7810   18.5200 N.am  461  ASP461     -0.1971
    138  CA       111.0650  115.3770   19.8210 C.3   461  ASP461      0.1709
    139  C        109.8050  116.0520   20.3220 C.2   461  ASP461      0.2293
    140  O        109.5800  116.1570   21.5260 O.2   461  ASP461     -0.2864
    141  CB       112.1800  116.4130   19.6870 C.3   461  ASP461      0.1436
    142  CG       113.3530  115.8930   18.8900 C.2   461  ASP461      0.3671
    143  OD1      113.9890  114.9100   19.3280 O.co2 461  ASP461     -0.2456
    144  OD2      113.6330  116.4680   17.8180 O.co2 461  ASP461     -0.2456
@<TRIPOS>BOND
     1   103   102    2
     2   102   101    1
     3   115   114    2
     4   112   113    1
     5   114   113    1
     6   101   104    1
     7   101   100    1
     8   113   116    1
     9   104   105    1
    10   116   117    1
    11   105   107   ar
    12   105   106   ar
    13   107   109   ar
    14   118   117    1
    15   118   119    1
    16   119   120    2
    17   106   108   ar
    18   123   124    1
    19   109   110   ar
    20   126   125    2
    21   120   122    1
    22   120   121    1
    23   108   110   ar
    24   110   111    1
    25   135   136    1
    26   135   132    1
    27   124   125    1
    28   124   127    1
    29   125   131   am
    30   131   132    1
    31   132   133    1
    32   128   127    1
    33   128   130    1
    34   127   129    1
    35    18    16    1
    36   144   142   ar
    37    16    13    1
    38    16    17    1
    39    15    14    2
    40    13    14    1
    41    13    12    1
    42    11    10    2
    43   133   137   am
    44   133   134    2
    45   137   138    1
    46     4     3    2
    47    14    19   am
    48   142   143   ar
    49   142   141    1
    50    12    10   am
    51    10     9    1
    52   141   138    1
    53   138   139    1
    54     9     8    1
    55     1     2    1
    56     3     8   am
    57     3     2    1
    58    19    20    1
    59     7     5    1
    60   139   140    2
    61    46    44    1
    62    20    21    1
    63     2     5    1
    64     5     6    1
    65    22    21    2
    66    21    23   am
    67    29    28    1
    68    29    30    1
    69    87    85   ar
    70    87    88   ar
    71    44    43    1
    72    44    45    1
    73    31    30    1
    74    23    24    1
    75    85    84   ar
    76    28    27    1
    77    43    40    1
    78    24    27    1
    79    24    25    1
    80    95    94    1
    81    95    96    2
    82    88    90   ar
    83    88    86   ar
    84    90    92   ar
    85    76    75    2
    86    99    97    1
    87    84    86   ar
    88    84    83    1
    89    94    97    1
    90    94    93    1
    91    80    83    1
    92    80    81    1
    93    80    79    1
    94    86    89   ar
    95    25    26    2
    96    25    32   am
    97    40    41    1
    98    40    39    1
    99    97    98    1
   100    82    81    2
   101    75    79   am
   102    75    74    1
   103    41    42    2
   104    92    91   ar
   105    39    34   am
   106    32    33    1
   107    77    74    1
   108    77    78    1
   109    89    91   ar
   110    74    73    1
   111    34    33    1
   112    34    35    2
   113    33    36    1
   114    36    37    1
   115    36    38    1
   116    68    67    2
   117    67    66    1
   118    69    66    1
   119    69    70    1
   120    66    65    1
   121    71    70    2
   122    70    72   am
   123    54    53   ar
   124    55    53   ar
   125    64    62   ar
   126    53    52    1
   127    62    63   ar
   128    62    61    1
   129    52    51    1
   130    61    60    1
   131    51    48    1
   132    60    57    1
   133    50    49    2
   134    48    49    1
   135    48    47    1
   136    49    56   am
   137    56    57    1
   138    57    58    1
   139    58    59    2
