@<TRIPOS>MOLECULE
tmp/3k09F00.pdb
 89 90 0 0 0
SMALL
GASTEIGER

@<TRIPOS>ATOM
      1  N         87.2600   91.8350   23.2840 N.3   419  THR419     -0.1218
      2  CA        85.8970   92.1940   23.6080 C.3   419  THR419      0.1862
      3  C         85.5810   92.8880   24.9340 C.2   419  THR419      0.2287
      4  O         84.4550   93.3140   25.1550 O.2   419  THR419     -0.2866
      5  CB        84.9610   90.9590   23.3880 C.3   419  THR419      0.1770
      6  OG1       84.9280   90.1190   24.5310 O.3   419  THR419     -0.2211
      7  CG2       85.5130   90.1280   22.2130 C.3   419  THR419      0.0375
      8  N         91.0480  101.0190   15.0130 N.3   443  PHE443     -0.1227
      9  CA        90.3320   99.7990   14.6540 C.3   443  PHE443      0.1736
     10  C         88.8550   99.7820   14.9950 C.2   443  PHE443      0.2595
     11  O         88.0360   99.3370   14.1930 O.2   443  PHE443     -0.2718
     12  CB        91.0280   98.6000   15.2890 C.3   443  PHE443      0.0547
     13  CG        90.8230   97.3370   14.5370 C.ar  443  PHE443     -0.0202
     14  CD1       91.2510   97.2340   13.2220 C.ar  443  PHE443     -0.0042
     15  CD2       90.1700   96.2610   15.1220 C.ar  443  PHE443     -0.0042
     16  CE1       91.0260   96.0790   12.4920 C.ar  443  PHE443     -0.0003
     17  CE2       89.9380   95.0980   14.4030 C.ar  443  PHE443     -0.0003
     18  CZ        90.3690   95.0060   13.0840 C.ar  443  PHE443     -0.0000
     19  N         88.5050  100.2530   16.1830 N.am  444  LYS444     -0.1966
     20  CA        87.1050  100.2750   16.5470 C.3   444  LYS444      0.1728
     21  C         86.7550  101.1890   17.7070 C.2   444  LYS444      0.2616
     22  O         87.5100  101.3310   18.6750 O.2   444  LYS444     -0.2715
     23  CB        86.6090   98.8610   16.8630 C.3   444  LYS444      0.0311
     24  CG        86.8940   98.3610   18.2880 C.3   444  LYS444      0.0038
     25  CD        85.8020   97.3890   18.7670 C.3   444  LYS444      0.0206
     26  CE        85.9900   96.9870   20.2240 C.3   444  LYS444      0.1093
     27  NZ        84.7940   96.2780   20.7510 N.3   444  LYS444     -0.1314
     28  N         85.5990  101.8290   17.5710 N.am  445  MET445     -0.1963
     29  CA        85.0490  102.6990   18.5980 C.3   445  MET445      0.1736
     30  C         83.6200  102.2520   18.6930 C.2   445  MET445      0.2616
     31  O         82.9420  102.1140   17.6800 O.2   445  MET445     -0.2715
     32  CB        85.0830  104.1630   18.2060 C.3   445  MET445      0.0427
     33  CG        86.2270  104.9200   18.8070 C.3   445  MET445      0.0599
     34  SD        85.8230  106.6510   18.9490 S.3   445  MET445     -0.1393
     35  CE        86.6480  107.0610   20.5070 C.3   445  MET445      0.0692
     36  N         83.1600  102.0160   19.9110 N.am  446  ARG446     -0.1963
     37  CA        81.8050  101.5440   20.0980 C.3   446  ARG446      0.1729
     38  C         80.7150  102.5690   19.8550 C.2   446  ARG446      0.2617
     39  O         79.7350  102.2640   19.1730 O.2   446  ARG446     -0.2715
     40  CB        81.6620  100.9260   21.4860 C.3   446  ARG446      0.0348
     41  CG        81.7870   99.4330   21.4350 C.3   446  ARG446      0.0492
     42  CD        82.0320   98.8320   22.7760 C.3   446  ARG446      0.2205
     43  NE        82.0090   97.3830   22.6540 N.pl3 446  ARG446     -0.0865
     44  CZ        82.4180   96.5430   23.5950 C.cat 446  ARG446      0.5346
     45  NH1       82.8880   97.0060   24.7440 N.pl3 446  ARG446      0.1354
     46  NH2       82.3620   95.2370   23.3820 N.pl3 446  ARG446      0.1354
     47  N         80.8760  103.7810   20.3780 N.am  447  GLY447     -0.1940
     48  CA        79.8370  104.7840   20.1950 C.3   447  GLY447      0.2014
     49  C         80.0100  105.8050   19.0820 C.2   447  GLY447      0.2640
     50  O         79.0280  106.3930   18.6260 O.2   447  GLY447     -0.2714
     51  N         81.2480  106.0120   18.6360 N.am  448  SER448     -0.1935
     52  CA        81.5530  106.9940   17.5910 C.3   448  SER448      0.2055
     53  C         81.5490  106.4950   16.1570 C.2   448  SER448      0.2643
     54  O         81.0320  105.4290   15.8410 O.2   448  SER448     -0.2714
     55  CB        82.9130  107.6440   17.8600 C.3   448  SER448      0.2130
     56  OG        83.2450  108.5730   16.8390 O.3   448  SER448     -0.2179
     57  N         82.1600  107.3020   15.3000 N.am  449  TRP449     -0.1959
     58  CA        82.2610  107.0330   13.8810 C.3   449  TRP449      0.1771
     59  C         83.6820  106.6660   13.4320 C.2   449  TRP449      0.2619
     60  O         83.8590  105.8130   12.5640 O.2   449  TRP449     -0.2715
     61  CB        81.7910  108.2590   13.1060 C.3   449  TRP449      0.0590
     62  CG        82.5430  108.4280   11.8620 C.ar  449  TRP449      0.0006
     63  CD1       82.2680  107.8660   10.6570 C.ar  449  TRP449      0.0946
     64  CD2       83.7930  109.1120   11.7180 C.ar  449  TRP449      0.0152
     65  NE1       83.2790  108.1510    9.7640 N.ar  449  TRP449     -0.2442
     66  CE2       84.2290  108.9120   10.3950 C.ar  449  TRP449      0.0810
     67  CE3       84.5910  109.8680   12.5870 C.ar  449  TRP449      0.0012
     68  CZ2       85.4270  109.4430    9.9120 C.ar  449  TRP449      0.0191
     69  CZ3       85.7820  110.3970   12.1080 C.ar  449  TRP449      0.0001
     70  CH2       86.1890  110.1780   10.7790 C.ar  449  TRP449      0.0015
     71  N         84.6810  107.3360   14.0000 N.am  450  HIS450     -0.1973
     72  CA        86.0980  107.1140   13.6860 C.3   450  HIS450      0.1656
     73  C         86.5630  106.7610   12.2580 C.2   450  HIS450      0.2291
     74  O         86.0060  105.9020   11.5730 O.2   450  HIS450     -0.2864
     75  CB        86.6910  106.1020   14.6790 C.3   450  HIS450      0.0771
     76  CG        86.5430  104.6660   14.2740 C.ar  450  HIS450      0.0820
     77  ND1       87.3420  104.0710   13.3210 N.ar  450  HIS450     -0.2267
     78  CD2       85.7160  103.6950   14.7300 C.ar  450  HIS450      0.1154
     79  CE1       87.0140  102.7960   13.2090 C.ar  450  HIS450      0.1986
     80  NE2       86.0320  102.5430   14.0540 N.ar  450  HIS450     -0.2212
     81  N         88.5400  105.2980    9.1520 N.3   452  LYS452     -0.1245
     82  CA        88.9380  103.9140    8.8720 C.3   452  LYS452      0.1561
     83  C         90.2140  103.9510    8.0490 C.2   452  LYS452      0.2260
     84  O         90.3110  103.2620    7.0350 O.2   452  LYS452     -0.2867
     85  CB        87.8890  103.1740    8.0390 C.3   452  LYS452      0.0271
     86  CG        86.4530  103.6560    8.1830 C.3   452  LYS452      0.0035
     87  CD        85.7340  103.0740    9.3950 C.3   452  LYS452      0.0206
     88  CE        84.2320  103.3640    9.3030 C.3   452  LYS452      0.1093
     89  NZ        83.4690  102.9200   10.4900 N.3   452  LYS452     -0.1314
@<TRIPOS>BOND
     1    84    83    2
     2    85    86    1
     3    85    82    1
     4    83    82    1
     5    86    87    1
     6    82    81    1
     7    88    87    1
     8    88    89    1
     9    65    66   ar
    10    65    63   ar
    11    68    66   ar
    12    68    70   ar
    13    66    64   ar
    14    63    62   ar
    15    70    69   ar
    16    74    73    2
    17    64    62   ar
    18    64    67   ar
    19    62    61    1
    20    69    67   ar
    21    73    72    1
    22    16    18   ar
    23    16    14   ar
    24    60    59    2
    25    18    17   ar
    26    61    58    1
    27    79    77   ar
    28    79    80   ar
    29    14    13   ar
    30    77    76   ar
    31    59    58    1
    32    59    71   am
    33    72    71    1
    34    72    75    1
    35    58    57    1
    36    80    78   ar
    37    11    10    2
    38    76    75    1
    39    76    78   ar
    40    17    15   ar
    41    13    15   ar
    42    13    12    1
    43     9    10    1
    44     9     8    1
    45     9    12    1
    46    10    19   am
    47    57    53   am
    48    54    53    2
    49    53    52    1
    50    19    20    1
    51    20    23    1
    52    20    21    1
    53    56    55    1
    54    23    24    1
    55    28    21   am
    56    28    29    1
    57    52    55    1
    58    52    51    1
    59    31    30    2
    60    21    22    2
    61    32    29    1
    62    32    33    1
    63    24    25    1
    64    29    30    1
    65    50    49    2
    66    51    49   am
    67    30    36   am
    68    25    26    1
    69    33    34    1
    70    34    35    1
    71    49    48    1
    72    39    38    2
    73    38    37    1
    74    38    47   am
    75    36    37    1
    76    37    40    1
    77    48    47    1
    78    26    27    1
    79    41    40    1
    80    41    42    1
    81     7     5    1
    82    43    42    1
    83    43    44    2
    84     1     2    1
    85    46    44    1
    86     5     2    1
    87     5     6    1
    88    44    45    1
    89     2     3    1
    90     3     4    2
