@<TRIPOS>MOLECULE
tmp/3k09F01.pdb
 83 82 0 0 0
SMALL
GASTEIGER

@<TRIPOS>ATOM
      1  N         80.4290   68.3820   58.2940 N.3   186  PHE186     -0.1241
      2  CA        79.0380   67.9780   58.3200 C.3   186  PHE186      0.1605
      3  C         78.3100   68.2200   59.6150 C.2   186  PHE186      0.2264
      4  O         77.1720   67.7920   59.7660 O.2   186  PHE186     -0.2867
      5  CB        78.9650   66.4970   57.9320 C.3   186  PHE186      0.0534
      6  CG        79.8660   66.1390   56.7620 C.ar  186  PHE186     -0.0203
      7  CD1       79.5120   66.4540   55.4580 C.ar  186  PHE186     -0.0042
      8  CD2       81.0940   65.5310   56.9780 C.ar  186  PHE186     -0.0042
      9  CE1       80.3720   66.1680   54.4060 C.ar  186  PHE186     -0.0003
     10  CE2       81.9410   65.2520   55.9250 C.ar  186  PHE186     -0.0003
     11  CZ        81.5810   65.5690   54.6450 C.ar  186  PHE186     -0.0000
     12  N         81.3140   77.0170   50.9430 N.3   210  LEU210     -0.1231
     13  CA        80.8580   75.7290   50.4210 C.3   210  LEU210      0.1693
     14  C         79.3920   75.5500   50.6180 C.2   210  LEU210      0.2592
     15  O         78.6880   75.1030   49.6890 O.2   210  LEU210     -0.2718
     16  CB        81.5450   74.5680   51.1160 C.3   210  LEU210      0.0284
     17  CG        82.7850   74.0070   50.4620 C.3   210  LEU210      0.0019
     18  CD1       83.0080   72.6440   51.0430 C.3   210  LEU210      0.0001
     19  CD2       82.6090   73.9060   48.9890 C.3   210  LEU210      0.0001
     20  N         78.9410   75.8870   51.8260 N.am  211  LYS211     -0.1966
     21  CA        77.5530   75.7390   52.1260 C.3   211  LYS211      0.1728
     22  C         77.0130   76.6360   53.2090 C.2   211  LYS211      0.2616
     23  O         77.6980   77.0170   54.1650 O.2   211  LYS211     -0.2715
     24  CB        77.2410   74.2990   52.4970 C.3   211  LYS211      0.0311
     25  CG        77.4140   73.9670   53.9510 C.3   211  LYS211      0.0038
     26  CD        76.6090   72.7230   54.2830 C.3   211  LYS211      0.0206
     27  CE        76.7400   72.2830   55.7330 C.3   211  LYS211      0.1093
     28  NZ        76.0510   70.9740   55.9690 N.3   211  LYS211     -0.1314
     29  N         75.7420   76.9610   53.0320 N.am  212  LEU212     -0.1963
     30  CA        74.9740   77.7680   53.9620 C.3   212  LEU212      0.1728
     31  C         73.6800   76.9940   53.9790 C.2   212  LEU212      0.2616
     32  O         72.8770   77.0860   53.0460 O.2   212  LEU212     -0.2715
     33  CB        74.6960   79.1830   53.4240 C.3   212  LEU212      0.0311
     34  CG        75.7030   80.3230   53.5560 C.3   212  LEU212      0.0022
     35  CD1       74.9390   81.5320   54.0190 C.3   212  LEU212      0.0001
     36  CD2       76.7910   79.9760   54.5470 C.3   212  LEU212      0.0001
     37  N         73.4900   76.2030   55.0190 N.am  213  ARG213     -0.1963
     38  CA        72.2660   75.4500   55.1060 C.3   213  ARG213      0.1729
     39  C         71.0710   76.3990   55.1690 C.2   213  ARG213      0.2617
     40  O         70.7560   76.9420   56.2270 O.2   213  ARG213     -0.2715
     41  CB        72.2910   74.5650   56.3510 C.3   213  ARG213      0.0348
     42  CG        73.0340   73.2710   56.1610 C.3   213  ARG213      0.0492
     43  CD        73.1510   72.5270   57.4600 C.3   213  ARG213      0.2205
     44  NE        73.6580   71.1790   57.2440 N.pl3 213  ARG213     -0.0865
     45  CZ        74.1320   70.3980   58.2110 C.cat 213  ARG213      0.5346
     46  NH1       74.1730   70.8390   59.4690 N.pl3 213  ARG213      0.1354
     47  NH2       74.5490   69.1670   57.9300 N.pl3 213  ARG213      0.1354
     48  N         70.4160   76.6360   54.0440 N.am  214  GLY214     -0.1940
     49  CA        69.2580   77.4980   54.1010 C.3   214  GLY214      0.2014
     50  C         69.1640   78.6560   53.1380 C.2   214  GLY214      0.2640
     51  O         68.0740   79.1840   52.9420 O.2   214  GLY214     -0.2714
     52  N         70.2660   79.0560   52.5190 N.am  215  THR215     -0.1936
     53  CA        70.2060   80.1930   51.6060 C.3   215  THR215      0.2028
     54  C         71.0990   80.0770   50.3980 C.2   215  THR215      0.2643
     55  O         71.8280   79.1160   50.2440 O.2   215  THR215     -0.2714
     56  CB        70.6210   81.4310   52.3290 C.3   215  THR215      0.1808
     57  OG1       71.8660   81.1680   52.9900 O.3   215  THR215     -0.2208
     58  CG2       69.5720   81.8130   53.3690 C.3   215  THR215      0.0379
     59  N         71.0510   81.0610   49.5220 N.am  216  SER216     -0.1935
     60  CA        71.9350   81.0080   48.3670 C.3   216  SER216      0.2055
     61  C         73.1440   81.7930   48.8090 C.2   216  SER216      0.2643
     62  O         73.1410   82.3810   49.8850 O.2   216  SER216     -0.2714
     63  CB        71.3370   81.7090   47.1630 C.3   216  SER216      0.2130
     64  OG        71.2580   83.0980   47.4120 O.3   216  SER216     -0.2179
     65  N         74.1640   81.8300   47.9750 N.am  217  HIS217     -0.1973
     66  CA        75.3710   82.5450   48.3160 C.3   217  HIS217      0.1656
     67  C         76.1740   82.4770   47.0580 C.2   217  HIS217      0.2291
     68  O         75.6700   81.9670   46.0770 O.2   217  HIS217     -0.2864
     69  CB        76.1000   81.8570   49.4790 C.3   217  HIS217      0.0771
     70  CG        76.4610   80.4210   49.2270 C.ar  217  HIS217      0.0820
     71  ND1       77.5600   80.0450   48.4830 N.ar  217  HIS217     -0.2267
     72  CD2       75.8610   79.2700   49.6140 C.ar  217  HIS217      0.1154
     73  CE1       77.6170   78.7270   48.4180 C.ar  217  HIS217      0.1986
     74  NE2       76.5960   78.2330   49.0950 N.ar  217  HIS217     -0.2212
     75  N         78.8190   80.8570   44.8490 N.3   219  LYS219     -0.1245
     76  CA        79.5980   79.6470   44.6510 C.3   219  LYS219      0.1561
     77  C         81.0170   79.8490   44.1190 C.2   219  LYS219      0.2260
     78  O         81.2310   80.6570   43.2260 O.2   219  LYS219     -0.2867
     79  CB        78.8510   78.7110   43.6900 C.3   219  LYS219      0.0271
     80  CG        77.7830   77.8570   44.3160 C.3   219  LYS219      0.0035
     81  CD        76.5210   78.6270   44.5710 C.3   219  LYS219      0.0206
     82  CE        75.4610   77.6960   45.1630 C.3   219  LYS219      0.1093
     83  NZ        74.0830   78.2880   45.3180 N.3   219  LYS219     -0.1314
@<TRIPOS>BOND
     1    78    77    2
     2    79    80    1
     3    79    76    1
     4    77    76    1
     5    80    81    1
     6    81    82    1
     7    76    75    1
     8    82    83    1
     9    68    67    2
    10    67    66    1
    11    63    64    1
    12    63    60    1
    13    65    66    1
    14    65    61   am
    15    66    69    1
    16    60    61    1
    17    60    59    1
    18    73    71   ar
    19    73    74   ar
    20    71    70   ar
    21    61    62    2
    22    19    17    1
    23    74    72   ar
    24    70    69    1
    25    70    72   ar
    26    59    54   am
    27    15    14    2
    28    55    54    2
    29    54    53    1
    30    13    14    1
    31    13    12    1
    32    13    16    1
    33    17    18    1
    34    17    16    1
    35    14    20   am
    36    53    56    1
    37    53    52    1
    38    20    21    1
    39    21    24    1
    40    21    22    1
    41    56    57    1
    42    56    58    1
    43    24    25    1
    44    52    50   am
    45    51    50    2
    46    29    22   am
    47    29    30    1
    48    32    31    2
    49    50    49    1
    50    22    23    2
    51    33    34    1
    52    33    30    1
    53    34    35    1
    54    34    36    1
    55    25    26    1
    56    30    31    1
    57    31    37   am
    58    48    49    1
    59    48    39   am
    60    26    27    1
    61     9    11   ar
    62     9     7   ar
    63    11    10   ar
    64    37    38    1
    65    38    39    1
    66    38    41    1
    67    39    40    2
    68     7     6   ar
    69    27    28    1
    70    10     8   ar
    71    42    41    1
    72    42    43    1
    73     6     8   ar
    74     6     5    1
    75    44    43    1
    76    44    45    2
    77    47    45    1
    78     5     2    1
    79    45    46    1
    80     1     2    1
    81     2     3    1
    82     3     4    2
