@<TRIPOS>MOLECULE
tmp/3k09F03.pdb
 113 108 0 0 0
SMALL
GASTEIGER

@<TRIPOS>ATOM
      1  N         97.5780   76.7110   57.4750 N.3    35  SER35      -0.1202
      2  CA        98.2790   77.6640   58.3290 C.3    35  SER35       0.2020
      3  C         98.4930   79.0130   57.6550 C.2    35  SER35       0.2619
      4  O         98.7550   79.0820   56.4440 O.2    35  SER35      -0.2717
      5  CB        99.6240   77.0720   58.7320 C.3    35  SER35       0.2103
      6  OG       100.0820   77.6870   59.9050 O.3    35  SER35      -0.2182
      7  N         98.3760   80.0840   58.4390 N.am   36  GLY36      -0.1942
      8  CA        98.5400   81.4250   57.8920 C.3    36  GLY36       0.2014
      9  C         97.5000   81.8120   56.8380 C.2    36  GLY36       0.2640
     10  O         97.7300   82.7100   56.0250 O.2    36  GLY36      -0.2714
     11  N         96.3410   81.1610   56.8680 N.am   37  THR37      -0.1936
     12  CA        95.2920   81.4000   55.8850 C.3    37  THR37       0.2028
     13  C         94.3380   82.5530   56.1660 C.2    37  THR37       0.2643
     14  O         93.6000   82.9740   55.2740 O.2    37  THR37      -0.2714
     15  CB        94.4720   80.1170   55.6650 C.3    37  THR37       0.1808
     16  OG1       93.8000   79.7560   56.8770 O.3    37  THR37      -0.2208
     17  CG2       95.3920   78.9910   55.2770 C.3    37  THR37       0.0379
     18  N         94.3410   83.0590   57.3980 N.am   38  GLY38      -0.1939
     19  CA        93.4620   84.1720   57.7420 C.3    38  GLY38       0.2014
     20  C         92.4220   83.8540   58.8010 C.2    38  GLY38       0.2639
     21  O         91.6770   84.7160   59.2590 O.2    38  GLY38      -0.2714
     22  N         92.3840   82.5980   59.2010 N.am   39  LYS39      -0.1963
     23  CA        91.4360   82.1510   60.1840 C.3    39  LYS39       0.1728
     24  C         91.2730   83.1420   61.3270 C.2    39  LYS39       0.2617
     25  O         90.2520   83.8190   61.4320 O.2    39  LYS39      -0.2715
     26  CB        91.8600   80.7690   60.6880 C.3    39  LYS39       0.0311
     27  CG        92.0400   79.7750   59.5370 C.3    39  LYS39       0.0038
     28  CD        92.5050   78.4110   60.0040 C.3    39  LYS39       0.0206
     29  CE        94.0100   78.3560   60.2330 C.3    39  LYS39       0.1093
     30  NZ        94.4290   77.3790   61.3030 N.3    39  LYS39      -0.1314
     31  N         92.2810   83.2510   62.1740 N.am   40  THR40      -0.1937
     32  CA        92.1890   84.1450   63.3180 C.3    40  THR40       0.2028
     33  C         91.8240   85.6000   62.9740 C.2    40  THR40       0.2642
     34  O         91.1610   86.2660   63.7680 O.2    40  THR40      -0.2714
     35  CB        93.4970   84.1450   64.1370 C.3    40  THR40       0.1808
     36  OG1       94.1150   82.8490   64.0820 O.3    40  THR40      -0.2208
     37  CG2       93.1940   84.4770   65.5840 C.3    40  THR40       0.0379
     38  N         92.2380   86.1150   61.8200 N.am   41  LEU41      -0.1977
     39  CA        91.8630   87.4820   61.5380 C.3    41  LEU41       0.1596
     40  C         90.3610   87.4860   61.3950 C.2    41  LEU41       0.2287
     41  O         89.6360   88.1300   62.1560 O.2    41  LEU41      -0.2864
     42  CB        92.5170   88.0030   60.2700 C.3    41  LEU41       0.0297
     43  CG        92.3570   89.5250   60.0690 C.3    41  LEU41       0.0022
     44  CD1       92.8580   90.2630   61.2910 C.3    41  LEU41       0.0001
     45  CD2       93.1290   89.9850   58.8830 C.3    41  LEU41       0.0001
     46  N         96.4770   80.4870   71.1180 N.3    65  GLU65      -0.1245
     47  CA        97.0520   81.8030   71.3660 C.3    65  GLU65       0.1567
     48  C         96.6840   82.3640   72.7380 C.2    65  GLU65       0.2260
     49  O         95.6390   82.0700   73.3160 O.2    65  GLU65      -0.2867
     50  CB        96.6880   82.7880   70.2460 C.3    65  GLU65       0.0388
     51  CG        97.4410   82.4930   68.9490 C.3    65  GLU65       0.1160
     52  CD        97.1450   83.4790   67.8200 C.2    65  GLU65       0.3649
     53  OE1       97.4600   84.6810   67.9690 O.co2  65  GLU65      -0.2457
     54  OE2       96.6210   83.0450   66.7630 O.co2  65  GLU65      -0.2457
     55  N         98.2610   95.2300   64.9200 N.3    76  SER76      -0.1202
     56  CA        98.8680   95.1940   63.5870 C.3    76  SER76       0.2020
     57  C         98.0040   95.9070   62.5550 C.2    76  SER76       0.2618
     58  O         98.5090   96.5490   61.6390 O.2    76  SER76      -0.2717
     59  CB        99.0650   93.7330   63.1450 C.3    76  SER76       0.2103
     60  OG        99.8070   93.6070   61.9370 O.3    76  SER76      -0.2182
     61  N         96.6930   95.7790   62.7020 N.am   77  PHE77      -0.1975
     62  CA        95.7600   96.3810   61.7660 C.3    77  PHE77       0.1639
     63  C         95.2620   97.7360   62.2740 C.2    77  PHE77       0.2290
     64  O         94.8090   98.5730   61.4930 O.2    77  PHE77      -0.2864
     65  CB        94.5960   95.4060   61.5250 C.3    77  PHE77       0.0560
     66  CG        95.0470   93.9930   61.2890 C.ar   77  PHE77      -0.0200
     67  CD1       95.2500   93.1300   62.3500 C.ar   77  PHE77      -0.0042
     68  CD2       95.3360   93.5430   60.0220 C.ar   77  PHE77      -0.0042
     69  CE1       95.7410   91.8330   62.1450 C.ar   77  PHE77      -0.0003
     70  CE2       95.8240   92.2510   59.8130 C.ar   77  PHE77      -0.0003
     71  CZ        96.0230   91.4020   60.8770 C.ar   77  PHE77      -0.0000
     72  N         88.4810   79.8140   68.3950 N.3   132  ASP132     -0.1239
     73  CA        89.6740   79.6040   67.5940 C.3   132  ASP132      0.1674
     74  C         90.3620   78.2770   67.7730 C.2   132  ASP132      0.2266
     75  O         90.8310   77.9350   68.8550 O.2   132  ASP132     -0.2867
     76  CB        90.6830   80.7160   67.8420 C.3   132  ASP132      0.1410
     77  CG        91.4330   81.0870   66.5900 C.2   132  ASP132      0.3668
     78  OD1       92.3440   81.9410   66.6460 O.co2 132  ASP132     -0.2456
     79  OD2       91.1010   80.5200   65.5310 O.co2 132  ASP132     -0.2456
     80  N         95.5590   83.8180   48.0500 N.3   205  ARG205     -0.1245
     81  CA        94.5710   83.4560   49.0420 C.3   205  ARG205      0.1563
     82  C         93.2000   83.7100   48.4710 C.2   205  ARG205      0.2260
     83  O         92.9610   84.7170   47.7970 O.2   205  ARG205     -0.2867
     84  CB        94.7830   84.2580   50.3260 C.3   205  ARG205      0.0307
     85  CG        95.3670   85.6330   50.0910 C.3   205  ARG205      0.0489
     86  CD        95.7070   86.3110   51.3990 C.3   205  ARG205      0.2205
     87  NE        96.1950   85.3740   52.4010 N.pl3 205  ARG205     -0.0865
     88  CZ        96.9700   85.7290   53.4090 C.cat 205  ARG205      0.5346
     89  NH1       97.3370   86.9860   53.5140 N.pl3 205  ARG205      0.1354
     90  NH2       97.3430   84.8460   54.3200 N.pl3 205  ARG205      0.1354
     91  N         95.0710   90.2600   52.7000 N.3   226  ILE226     -0.1231
     92  CA        95.1390   90.7260   54.0690 C.3   226  ILE226      0.1692
     93  C         96.0170   91.9610   54.0470 C.2   226  ILE226      0.2593
     94  O         97.1290   91.9420   53.5050 O.2   226  ILE226     -0.2718
     95  CB        95.7610   89.7010   54.9810 C.3   226  ILE226      0.0266
     96  CG1       94.9600   88.3960   54.8990 C.3   226  ILE226      0.0019
     97  CG2       95.7990   90.2560   56.3830 C.3   226  ILE226      0.0020
     98  CD1       95.4930   87.2580   55.7620 C.3   226  ILE226      0.0001
     99  N         95.5130   93.0460   54.6140 N.am  227  THR227     -0.1939
    100  CA        96.2720   94.2810   54.6120 C.3   227  THR227      0.2028
    101  C         96.2110   94.9470   55.9580 C.2   227  THR227      0.2642
    102  O         95.7990   94.3380   56.9380 O.2   227  THR227     -0.2714
    103  CB        95.7290   95.2730   53.5900 C.3   227  THR227      0.1808
    104  OG1       94.4540   95.7490   54.0320 O.3   227  THR227     -0.2208
    105  CG2       95.5900   94.6170   52.2440 C.3   227  THR227      0.0379
    106  N         96.6190   96.2110   55.9820 N.am  228  ASP228     -0.1971
    107  CA        96.6180   96.9950   57.1980 C.3   228  ASP228      0.1709
    108  C         95.1820   97.2950   57.5970 C.2   228  ASP228      0.2293
    109  O         94.9470   98.0210   58.5610 O.2   228  ASP228     -0.2864
    110  CB        97.4000   98.3080   57.0100 C.3   228  ASP228      0.1436
    111  CG        98.9300   98.1070   56.9600 C.2   228  ASP228      0.3671
    112  OD1       99.5180   97.5190   57.8990 O.co2 228  ASP228     -0.2456
    113  OD2       99.5530   98.5630   55.9760 O.co2 228  ASP228     -0.2456
@<TRIPOS>BOND
     1    83    82    2
     2    80    81    1
     3    82    81    1
     4    81    84    1
     5    85    84    1
     6    85    86    1
     7    86    87    1
     8   105   103    1
     9    87    88    2
    10    91    92    1
    11    88    89    1
    12    88    90    1
    13    94    93    2
    14   103   104    1
    15   103   100    1
    16    93    92    1
    17    93    99   am
    18    92    95    1
    19   100    99    1
    20   100   101    1
    21    96    95    1
    22    96    98    1
    23    95    97    1
    24    14    13    2
    25    17    15    1
    26    15    12    1
    27    15    16    1
    28    12    13    1
    29    12    11    1
    30   101   106   am
    31   101   102    2
    32   113   111   ar
    33   106   107    1
    34    10     9    2
    35    13    18   am
    36     4     3    2
    37     9    11   am
    38     9     8    1
    39   111   110    1
    40   111   112   ar
    41   110   107    1
    42   107   108    1
    43    18    19    1
    44     1     2    1
    45   108   109    2
    46     3     2    1
    47     3     7   am
    48    19    20    1
    49     8     7    1
    50     2     5    1
    51     5     6    1
    52    20    22   am
    53    20    21    2
    54    45    43    1
    55    22    23    1
    56    27    28    1
    57    27    26    1
    58    70    68   ar
    59    70    71   ar
    60    28    29    1
    61    68    66   ar
    62    43    42    1
    63    43    44    1
    64    23    26    1
    65    23    24    1
    66    29    30    1
    67    42    39    1
    68    71    69   ar
    69    66    65    1
    70    66    67   ar
    71    24    25    2
    72    24    31   am
    73    40    39    1
    74    40    41    2
    75    64    63    2
    76    65    62    1
    77    39    38    1
    78    58    57    2
    79    62    63    1
    80    62    61    1
    81    38    33   am
    82    60    59    1
    83    69    67   ar
    84    31    32    1
    85    57    61   am
    86    57    56    1
    87    33    32    1
    88    33    34    2
    89    59    56    1
    90    32    35    1
    91    56    55    1
    92    36    35    1
    93    35    37    1
    94    79    77   ar
    95    77    78   ar
    96    77    76    1
    97    54    52   ar
    98    73    74    1
    99    73    76    1
   100    73    72    1
   101    74    75    2
   102    52    53   ar
   103    52    51    1
   104    51    50    1
   105    50    47    1
   106    46    47    1
   107    47    48    1
   108    48    49    2
