@<TRIPOS>MOLECULE
tmp/3k0hA00.pdb
 137 131 0 0 0
SMALL
GASTEIGER

@<TRIPOS>ATOM
      1  N        -29.8590   44.8590    3.0940 N.3     6  VAL6       -0.1231
      2  CA       -30.6690   45.8350    2.3880 C.3     6  VAL6        0.1692
      3  C        -30.0080   47.1700    2.5450 C.2     6  VAL6        0.2593
      4  O        -29.2920   47.3700    3.5090 O.2     6  VAL6       -0.2718
      5  CB       -32.1110   45.9290    2.9600 C.3     6  VAL6        0.0266
      6  CG1      -32.7210   44.5360    3.1090 C.3     6  VAL6        0.0020
      7  CG2      -32.1280   46.7010    4.2890 C.3     6  VAL6        0.0020
      8  N        -30.2340   48.0840    1.6090 N.am    7  SER7       -0.1938
      9  CA       -29.6670   49.4140    1.7380 C.3     7  SER7        0.2055
     10  C        -30.7010   50.4730    1.3700 C.2     7  SER7        0.2643
     11  O        -31.4460   50.3050    0.4160 O.2     7  SER7       -0.2714
     12  CB       -28.4000   49.5320    0.8770 C.3     7  SER7        0.2130
     13  OG       -28.0040   50.8860    0.6850 O.3     7  SER7       -0.2179
     14  N        -30.7660   51.5460    2.1550 N.am    8  GLY8       -0.1954
     15  CA       -31.6730   52.6660    1.8920 C.3     8  GLY8        0.1869
     16  C        -33.1430   52.4980    2.2410 C.2     8  GLY8        0.2309
     17  O        -33.9510   53.3760    1.9340 O.2     8  GLY8       -0.2863
     18  N        -28.8370   55.1050   -4.8780 N.3    50  GLU50      -0.1231
     19  CA       -27.7580   55.9080   -4.3440 C.3    50  GLU50       0.1699
     20  C        -26.5210   55.0330   -4.1100 C.2    50  GLU50       0.2592
     21  O        -26.6350   53.7990   -4.0330 O.2    50  GLU50      -0.2718
     22  CB       -28.2000   56.6390   -3.0830 C.3    50  GLU50       0.0402
     23  CG       -29.3270   57.6240   -3.3550 C.3    50  GLU50       0.1161
     24  CD       -29.5720   58.5760   -2.1990 C.2    50  GLU50       0.3649
     25  OE1      -29.1620   59.7500   -2.2990 O.co2  50  GLU50      -0.2457
     26  OE2      -30.1620   58.1530   -1.1840 O.co2  50  GLU50      -0.2457
     27  N        -25.3480   55.6670   -4.0530 N.am   51  ARG51      -0.1966
     28  CA       -24.0880   54.9750   -3.7520 C.3    51  ARG51       0.1729
     29  C        -23.8790   54.8720   -2.2520 C.2    51  ARG51       0.2617
     30  O        -23.6870   55.8900   -1.5730 O.2    51  ARG51      -0.2715
     31  CB       -22.8880   55.7140   -4.3560 C.3    51  ARG51       0.0348
     32  CG       -23.0060   56.0140   -5.8470 C.3    51  ARG51       0.0492
     33  CD       -21.6450   56.2530   -6.4620 C.3    51  ARG51       0.2205
     34  NE       -20.9330   57.3100   -5.7660 N.pl3  51  ARG51      -0.0865
     35  CZ       -19.7250   57.7470   -6.1130 C.cat  51  ARG51       0.5346
     36  NH1      -19.0950   57.2160   -7.1570 N.pl3  51  ARG51       0.1354
     37  NH2      -19.1440   58.7160   -5.4120 N.pl3  51  ARG51       0.1354
     38  N        -23.9150   53.6440   -1.7440 N.am   52  THR52      -0.1937
     39  CA       -23.6280   53.3920   -0.3490 C.3    52  THR52       0.2028
     40  C        -22.5810   52.3050   -0.2880 C.2    52  THR52       0.2642
     41  O        -22.3480   51.5880   -1.2670 O.2    52  THR52      -0.2714
     42  CB       -24.8620   52.8760    0.4230 C.3    52  THR52       0.1808
     43  OG1      -25.3290   51.6560   -0.1780 O.3    52  THR52      -0.2208
     44  CG2      -25.9930   53.9200    0.4510 C.3    52  THR52       0.0379
     45  N        -21.9700   52.1650    0.8820 N.am   53  LEU53      -0.1963
     46  CA       -20.9130   51.1980    1.0740 C.3    53  LEU53       0.1728
     47  C        -21.4020   49.8230    0.6360 C.2    53  LEU53       0.2616
     48  O        -20.7360   49.1230   -0.1140 O.2    53  LEU53      -0.2715
     49  CB       -20.4700   51.2090    2.5360 C.3    53  LEU53       0.0311
     50  CG       -19.4030   50.2050    2.9670 C.3    53  LEU53       0.0022
     51  CD1      -18.2240   50.2090    2.0160 C.3    53  LEU53       0.0001
     52  CD2      -18.9510   50.5060    4.3940 C.3    53  LEU53       0.0001
     53  N        -22.5900   49.4380    1.0800 N.am   54  LYS54      -0.1977
     54  CA       -23.1090   48.1270    0.7160 C.3    54  LYS54       0.1596
     55  C        -23.2100   48.0390   -0.8010 C.2    54  LYS54       0.2287
     56  O        -22.9550   46.9910   -1.3910 O.2    54  LYS54      -0.2864
     57  CB       -24.4810   47.8680    1.3510 C.3    54  LYS54       0.0298
     58  CG       -24.5230   47.8150    2.8790 C.3    54  LYS54       0.0038
     59  CD       -25.5220   46.7160    3.3070 C.3    54  LYS54       0.0206
     60  CE       -25.8370   46.6790    4.8220 C.3    54  LYS54       0.1093
     61  NZ       -26.7090   47.8000    5.2200 N.3    54  LYS54      -0.1314
     62  N        -21.2320   49.4510   -2.9830 N.3    56  PHE56      -0.1241
     63  CA       -19.8840   49.1550   -3.4860 C.3    56  PHE56       0.1605
     64  C        -19.4170   47.7550   -3.1760 C.2    56  PHE56       0.2264
     65  O        -18.9060   47.0710   -4.0470 O.2    56  PHE56      -0.2867
     66  CB       -18.8770   50.1190   -2.9010 C.3    56  PHE56       0.0534
     67  CG       -19.0520   51.5110   -3.3690 C.ar   56  PHE56      -0.0203
     68  CD1      -19.2120   52.5420   -2.4600 C.ar   56  PHE56      -0.0042
     69  CD2      -19.0690   51.7890   -4.7160 C.ar   56  PHE56      -0.0042
     70  CE1      -19.3600   53.8420   -2.8790 C.ar   56  PHE56      -0.0003
     71  CE2      -19.2140   53.0840   -5.1560 C.ar   56  PHE56      -0.0003
     72  CZ       -19.3540   54.1200   -4.2290 C.ar   56  PHE56      -0.0000
     73  N        -26.9280   57.8070   -8.8800 N.3    92  VAL92      -0.1231
     74  CA       -27.1620   59.2420   -9.0310 C.3    92  VAL92       0.1692
     75  C        -25.8710   60.0390   -9.1930 C.2    92  VAL92       0.2591
     76  O        -25.8830   61.2690   -9.1620 O.2    92  VAL92      -0.2718
     77  CB       -27.9700   59.8140   -7.8440 C.3    92  VAL92       0.0266
     78  CG1      -29.3500   59.1500   -7.7600 C.3    92  VAL92       0.0020
     79  CG2      -27.1950   59.6550   -6.5370 C.3    92  VAL92       0.0020
     80  N        -24.7580   59.3380   -9.3710 N.am   93  VAL93      -0.1980
     81  CA       -23.4760   60.0040   -9.5450 C.3    93  VAL93       0.1595
     82  C        -22.7750   59.5230  -10.8170 C.2    93  VAL93       0.2287
     83  O        -22.2220   60.3220  -11.5780 O.2    93  VAL93      -0.2864
     84  CB       -22.5720   59.8050   -8.3030 C.3    93  VAL93       0.0276
     85  CG1      -21.1460   60.2570   -8.5890 C.3    93  VAL93       0.0022
     86  CG2      -23.1580   60.5520   -7.0990 C.3    93  VAL93       0.0022
     87  N        -13.7480   59.2770    5.6880 N.3   125  THR125     -0.1203
     88  CA       -15.0360   59.5090    6.3350 C.3   125  THR125      0.1994
     89  C        -16.1500   58.6350    5.7750 C.2   125  THR125      0.2618
     90  O        -16.0940   58.1770    4.6300 O.2   125  THR125     -0.2717
     91  CB       -15.5120   60.9680    6.1870 C.3   125  THR125      0.1784
     92  OG1      -15.8970   61.2090    4.8270 O.3   125  THR125     -0.2211
     93  CG2      -14.4370   61.9590    6.6160 C.3   125  THR125      0.0376
     94  N        -17.1720   58.4210    6.5980 N.am  126  ASN126     -0.1960
     95  CA       -18.3710   57.7260    6.1600 C.3   126  ASN126      0.1819
     96  C        -18.0700   56.3290    5.6830 C.2   126  ASN126      0.2621
     97  O        -18.9770   55.5690    5.3100 O.2   126  ASN126     -0.2715
     98  CB       -19.0200   58.5000    5.0250 C.3   126  ASN126      0.1195
     99  CG       -19.7080   59.7470    5.5120 C.2   126  ASN126      0.2630
    100  OD1      -19.7110   60.7790    4.8350 O.2   126  ASN126     -0.2716
    101  ND2      -20.2970   59.6620    6.7040 N.am  126  ASN126     -0.0877
    102  N        -16.7840   56.0140    5.6680 N.am  127  MET127     -0.1977
    103  CA       -16.3180   54.7440    5.1780 C.3   127  MET127      0.1605
    104  C        -15.0610   54.4000    5.9630 C.2   127  MET127      0.2287
    105  O        -14.0370   55.0510    5.8250 O.2   127  MET127     -0.2864
    106  CB       -16.0370   54.8200    3.6770 C.3   127  MET127      0.0413
    107  CG       -15.7730   53.4730    3.0560 C.3   127  MET127      0.0598
    108  SD       -15.5240   53.4980    1.2660 S.3   127  MET127     -0.1393
    109  CE       -17.1220   54.0970    0.6630 C.3   127  MET127      0.0692
    110  N        -10.0220   58.9860   -3.2300 N.3   187  ARG187     -0.1231
    111  CA       -10.9370   57.8490   -3.1260 C.3   187  ARG187      0.1694
    112  C        -11.8790   57.7570   -4.3290 C.2   187  ARG187      0.2591
    113  O        -12.1910   56.6570   -4.7950 O.2   187  ARG187     -0.2718
    114  CB       -11.7510   57.9340   -1.8360 C.3   187  ARG187      0.0321
    115  CG       -12.6160   56.7160   -1.5780 C.3   187  ARG187      0.0489
    116  CD       -13.2600   56.7620   -0.1870 C.3   187  ARG187      0.2205
    117  NE       -14.1650   57.9020   -0.0190 N.pl3 187  ARG187     -0.0865
    118  CZ       -14.6140   58.3390    1.1540 C.cat 187  ARG187      0.5346
    119  NH1      -14.2730   57.7390    2.2850 N.pl3 187  ARG187      0.1354
    120  NH2      -15.4030   59.3890    1.1970 N.pl3 187  ARG187      0.1354
    121  N        -12.3270   58.9040   -4.8400 N.am  188  GLU188     -0.1979
    122  CA       -13.2750   58.8800   -5.9540 C.3   188  GLU188      0.1602
    123  C        -12.7850   57.9810   -7.0950 C.2   188  GLU188      0.2287
    124  O        -13.6030   57.4450   -7.8500 O.2   188  GLU188     -0.2864
    125  CB       -13.6160   60.2860   -6.4680 C.3   188  GLU188      0.0415
    126  CG       -14.4190   61.1490   -5.5070 C.3   188  GLU188      0.1163
    127  CD       -15.7880   60.5520   -5.1590 C.2   188  GLU188      0.3649
    128  OE1      -16.6270   60.4060   -6.0730 O.co2 188  GLU188     -0.2457
    129  OE2      -16.0280   60.2280   -3.9700 O.co2 188  GLU188     -0.2457
    130  N        -14.0310   54.4810   -5.9070 N.3   191  LEU191     -0.1245
    131  CA       -15.4870   54.3840   -5.8640 C.3   191  LEU191      0.1561
    132  C        -16.0310   54.4530   -7.2830 C.2   191  LEU191      0.2260
    133  O        -16.7940   53.5770   -7.7130 O.2   191  LEU191     -0.2867
    134  CB       -16.0930   55.4650   -4.9590 C.3   191  LEU191      0.0270
    135  CG       -15.4800   55.5170   -3.5440 C.3   191  LEU191      0.0019
    136  CD1      -16.0760   56.6260   -2.6950 C.3   191  LEU191      0.0001
    137  CD2      -15.6080   54.1830   -2.8320 C.3   191  LEU191      0.0001
@<TRIPOS>BOND
     1    83    82    2
     2    82    81    1
     3    81    80    1
     4    81    84    1
     5    80    75   am
     6    75    76    2
     7    75    74    1
     8    74    73    1
     9    74    77    1
    10    85    84    1
    11    84    86    1
    12   124   123    2
    13    77    78    1
    14    77    79    1
    15   133   132    2
    16   132   131    1
    17    36    35    1
    18   123   122    1
    19   125   122    1
    20   125   126    1
    21    33    32    1
    22    33    34    1
    23    35    34    2
    24    35    37    1
    25   128   127   ar
    26   122   121    1
    27   130   131    1
    28   131   134    1
    29    32    31    1
    30   126   127    1
    31   127   129   ar
    32    71    69   ar
    33    71    72   ar
    34   134   135    1
    35    18    19    1
    36   121   112   am
    37   113   112    2
    38    69    67   ar
    39    31    28    1
    40    19    20    1
    41    19    22    1
    42   112   111    1
    43    72    70   ar
    44    20    27   am
    45    20    21    2
    46    27    28    1
    47    65    64    2
    48    28    29    1
    49   135   137    1
    50   135   136    1
    51    63    64    1
    52    63    62    1
    53    63    66    1
    54    67    66    1
    55    67    68   ar
    56    23    22    1
    57    23    24    1
    58   110   111    1
    59   111   114    1
    60    70    68   ar
    61    25    24   ar
    62    29    38   am
    63    29    30    2
    64    24    26   ar
    65   114   115    1
    66    38    39    1
    67   115   116    1
    68    56    55    2
    69    41    40    2
    70    55    54    1
    71    39    40    1
    72    39    42    1
    73    40    45   am
    74   116   117    1
    75    43    42    1
    76    48    47    2
    77   117   118    2
    78    11    10    2
    79    42    44    1
    80    47    46    1
    81    47    53   am
    82   109   108    1
    83    13    12    1
    84    54    53    1
    85    54    57    1
    86    12     9    1
    87    45    46    1
    88    46    49    1
    89   118   120    1
    90   118   119    1
    91   108   107    1
    92    57    58    1
    93    10     9    1
    94    10    14   am
    95     8     9    1
    96     8     3   am
    97    15    14    1
    98    15    16    1
    99    17    16    2
   100    51    50    1
   101     2     3    1
   102     2     5    1
   103     2     1    1
   104    49    50    1
   105     3     4    2
   106    58    59    1
   107     5     6    1
   108     5     7    1
   109    50    52    1
   110   107   106    1
   111    59    60    1
   112   106   103    1
   113    90    89    2
   114    60    61    1
   115    92    91    1
   116   100    99    2
   117    98    99    1
   118    98    95    1
   119   103   102    1
   120   103   104    1
   121    97    96    2
   122    99   101   am
   123   102    96   am
   124    96    95    1
   125    87    88    1
   126    89    88    1
   127    89    94   am
   128   105   104    2
   129    95    94    1
   130    91    88    1
   131    91    93    1
