@<TRIPOS>MOLECULE
tmp/3k0vA00.pdb
 115 115 0 0 0
SMALL
GASTEIGER

@<TRIPOS>ATOM
      1  N        -12.4420   16.3520   10.2690 N.3    89  THR89      -0.1203
      2  CA       -12.9430   14.9820   10.0850 C.3    89  THR89       0.1994
      3  C        -14.3990   14.9660    9.6030 C.2    89  THR89       0.2618
      4  O        -15.1820   15.8590    9.9460 O.2    89  THR89      -0.2717
      5  CB       -12.8550   14.1640   11.3820 C.3    89  THR89       0.1784
      6  OG1      -13.7860   14.6880   12.3360 O.3    89  THR89      -0.2211
      7  CG2      -11.4310   14.1810   11.9630 C.3    89  THR89       0.0376
      8  N        -14.7620   13.9440    8.8260 N.am   90  GLU90      -0.1965
      9  CA       -16.0910   13.8870    8.2080 C.3    90  GLU90       0.1733
     10  C        -17.0160   12.7880    8.7240 C.2    90  GLU90       0.2616
     11  O        -18.1680   12.7040    8.3040 O.2    90  GLU90      -0.2715
     12  CB       -15.9660   13.7860    6.6910 C.3    90  GLU90       0.0429
     13  CG       -15.6650   15.1210    6.0400 C.3    90  GLU90       0.1163
     14  CD       -15.1660   14.9820    4.6240 C.2    90  GLU90       0.3649
     15  OE1      -15.7400   14.1660    3.8640 O.co2  90  GLU90      -0.2457
     16  OE2      -14.1980   15.6990    4.2770 O.co2  90  GLU90      -0.2457
     17  N        -16.5140   11.9390    9.6120 N.am   91  GLY91      -0.1955
     18  CA       -17.3340   10.8940   10.2210 C.3    91  GLY91       0.1869
     19  C        -17.6630    9.7880    9.2390 C.2    91  GLY91       0.2309
     20  O        -17.6850   10.0050    8.0250 O.2    91  GLY91      -0.2863
     21  N        -24.5600    8.7690   10.8640 N.3   250  VAL250     -0.1231
     22  CA       -23.1660    9.1550   10.6630 C.3   250  VAL250      0.1692
     23  C        -22.4650    9.1460   12.0390 C.2   250  VAL250      0.2592
     24  O        -22.9580    9.7300   13.0110 O.2   250  VAL250     -0.2718
     25  CB       -23.0210   10.4900    9.8930 C.3   250  VAL250      0.0266
     26  CG1      -23.8750   11.5860   10.5150 C.3   250  VAL250      0.0020
     27  CG2      -21.5620   10.9060    9.7980 C.3   250  VAL250      0.0020
     28  N        -21.3340    8.4480   12.1060 N.am  251  ALA251     -0.1966
     29  CA       -20.6020    8.2070   13.3600 C.3   251  ALA251      0.1713
     30  C        -19.3980    9.1350   13.5050 C.2   251  ALA251      0.2458
     31  O        -18.7540    9.4660   12.5010 O.2   251  ALA251     -0.2730
     32  CB       -20.1380    6.7710   13.3960 C.3   251  ALA251      0.0333
     33  N        -19.0780    9.5540   14.7520 N.am  252  PRO252     -0.2716
     34  CA       -17.8360   10.3050   14.9450 C.3   252  PRO252      0.1536
     35  C        -16.6640    9.3370   14.7860 C.2   252  PRO252      0.2598
     36  O        -16.7700    8.1720   15.1960 O.2   252  PRO252     -0.2715
     37  CB       -17.9410   10.8210   16.3800 C.3   252  PRO252      0.0310
     38  CG       -18.8760    9.8790   17.0780 C.3   252  PRO252      0.0237
     39  CD       -19.8100    9.3360   16.0170 C.3   252  PRO252      0.0939
     40  N        -15.5910    9.8040   14.1450 N.am  253  ASN253     -0.1973
     41  CA       -14.4190    8.9750   13.8830 C.3   253  ASN253      0.1688
     42  C        -13.8090    8.4030   15.1720 C.2   253  ASN253      0.2292
     43  O        -13.8860    9.0300   16.2360 O.2   253  ASN253     -0.2864
     44  CB       -13.3680    9.7690   13.0880 C.3   253  ASN253      0.1181
     45  CG       -13.6810    9.8500   11.5900 C.2   253  ASN253      0.2629
     46  OD1      -14.4960    9.0940   11.0580 O.2   253  ASN253     -0.2716
     47  ND2      -13.0040   10.7560   10.9020 N.am  253  ASN253     -0.0877
     48  N        -12.3940   19.9340   22.4400 N.3   314  PRO314     -0.2116
     49  CA       -13.7130   19.4350   22.8320 C.3   314  PRO314      0.1372
     50  C        -13.7010   18.4660   24.0010 C.2   314  PRO314      0.2244
     51  O        -12.7810   17.6400   24.1550 O.2   314  PRO314     -0.2868
     52  CB       -14.2280   18.7320   21.5660 C.3   314  PRO314      0.0268
     53  CG       -12.9750   18.3000   20.8380 C.3   314  PRO314      0.0207
     54  CD       -11.9070   19.3120   21.1900 C.3   314  PRO314      0.0892
     55  N        -18.8550   16.9150   23.4170 N.3   318  GLU318     -0.1231
     56  CA       -18.7330   17.7480   22.2160 C.3   318  GLU318      0.1699
     57  C        -18.1700   16.9610   21.0340 C.2   318  GLU318      0.2592
     58  O        -18.6490   17.1150   19.8990 O.2   318  GLU318     -0.2718
     59  CB       -17.8710   18.9800   22.4820 C.3   318  GLU318      0.0402
     60  CG       -18.5530   20.0480   23.3020 C.3   318  GLU318      0.1161
     61  CD       -17.6000   21.2120   23.3340 C.2   318  GLU318      0.3649
     62  OE1      -16.3930   20.9910   23.5790 O.co2 318  GLU318     -0.2457
     63  OE2      -18.0470   22.3490   23.0960 O.co2 318  GLU318     -0.2457
     64  N        -17.1850   16.1000   21.3030 N.am  319  TYR319     -0.1962
     65  CA       -16.6160   15.2440   20.2540 C.3   319  TYR319      0.1771
     66  C        -17.6330   14.2670   19.6610 C.2   319  TYR319      0.2619
     67  O        -17.6760   14.0620   18.4410 O.2   319  TYR319     -0.2715
     68  CB       -15.3670   14.4730   20.7250 C.3   319  TYR319      0.0574
     69  CG       -14.7780   13.6670   19.5830 C.ar  319  TYR319     -0.0198
     70  CD1      -14.0190   14.2910   18.5890 C.ar  319  TYR319     -0.0009
     71  CD2      -15.0420   12.3010   19.4560 C.ar  319  TYR319     -0.0009
     72  CE1      -13.5160   13.5780   17.5120 C.ar  319  TYR319      0.0417
     73  CE2      -14.5500   11.5730   18.3740 C.ar  319  TYR319      0.0417
     74  CZ       -13.7830   12.2190   17.4050 C.ar  319  TYR319      0.1957
     75  OH       -13.2950   11.5190   16.3300 O.3   319  TYR319     -0.2866
     76  N        -18.4260   13.6400   20.5220 N.am  320  LEU320     -0.1963
     77  CA       -19.3470   12.6110   20.0750 C.3   320  LEU320      0.1728
     78  C        -20.5840   13.2540   19.4500 C.2   320  LEU320      0.2617
     79  O        -21.2000   12.6780   18.5400 O.2   320  LEU320     -0.2715
     80  CB       -19.7240   11.6890   21.2360 C.3   320  LEU320      0.0311
     81  CG       -18.6070   10.7740   21.7620 C.3   320  LEU320      0.0022
     82  CD1      -19.0920    9.9880   22.9730 C.3   320  LEU320      0.0001
     83  CD2      -18.1040    9.8210   20.6470 C.3   320  LEU320      0.0001
     84  N        -20.9660   14.4620   19.9900 N.am  321  GLY321     -0.1940
     85  CA       -22.1600   15.2060   19.6020 C.3   321  GLY321      0.2014
     86  C        -23.3370   14.8950   20.5050 C.2   321  GLY321      0.2640
     87  O        -23.5510   13.7400   20.8800 O.2   321  GLY321     -0.2714
     88  N        -24.1030   15.9310   20.8420 N.am  322  THR322     -0.1936
     89  CA       -25.2620   15.8160   21.7340 C.3   322  THR322      0.2028
     90  C        -26.3090   14.8290   21.2020 C.2   322  THR322      0.2645
     91  O        -27.0270   14.1960   21.9800 O.2   322  THR322     -0.2714
     92  CB       -25.9230   17.1970   21.9790 C.3   322  THR322      0.1808
     93  OG1      -24.8480   18.1390   21.8680 O.3   322  THR322     -0.2208
     94  CG2      -26.5700   17.3370   23.3540 C.3   322  THR322      0.0379
     95  N        -26.3780   14.7070   19.8770 N.am  323  GLU323     -0.1917
     96  CA       -27.2830   13.7730   19.1760 C.3   323  GLU323      0.1949
     97  C        -26.9430   12.3150   19.5300 C.2   323  GLU323      0.2658
     98  O        -27.8330   11.5180   19.8370 O.2   323  GLU323     -0.2711
     99  CB       -27.1520   14.0350   17.6290 C.2   323  GLU323      0.0111
    100  CG       -27.9540   13.1810   16.5750 C.2   323  GLU323      0.0838
    101  CD       -27.5380   13.3610   15.0840 C.2   323  GLU323      0.3877
    102  OE1      -28.4310   13.5590   14.2210 O.co2 323  GLU323     -0.2406
    103  OE2      -26.3230   13.2940   14.7950 O.co2 323  GLU323     -0.2406
    104  N        -25.6560   11.9790   19.4620 N.am  324  TYR324     -0.1971
    105  CA       -25.1900   10.6110   19.6910 C.3   324  TYR324      0.1640
    106  C        -25.0760   10.2600   21.1780 C.2   324  TYR324      0.2290
    107  O        -25.3350    9.1200   21.5660 O.2   324  TYR324     -0.2864
    108  CB       -23.8620   10.3640   18.9590 C.3   324  TYR324      0.0560
    109  CG       -23.2510    8.9940   19.1850 C.ar  324  TYR324     -0.0198
    110  CD1      -23.9550    7.8280   18.8730 C.ar  324  TYR324     -0.0009
    111  CD2      -21.9600    8.8650   19.6970 C.ar  324  TYR324     -0.0009
    112  CE1      -23.3940    6.5710   19.0810 C.ar  324  TYR324      0.0417
    113  CE2      -21.3880    7.6120   19.9020 C.ar  324  TYR324      0.0417
    114  CZ       -22.1110    6.4710   19.5940 C.ar  324  TYR324      0.1957
    115  OH       -21.5490    5.2320   19.8000 O.3   324  TYR324     -0.2866
@<TRIPOS>BOND
     1    15    14   ar
     2    16    14   ar
     3    14    13    1
     4    13    12    1
     5    12     9    1
     6    20    19    2
     7     9    10    1
     8     9     8    1
     9    11    10    2
    10    10    17   am
    11     8     3   am
    12    19    18    1
    13     3     4    2
    14     3     2    1
    15    17    18    1
    16    27    25    1
    17    25    26    1
    18    25    22    1
    19     2     1    1
    20     2     5    1
    21    22    21    1
    22    22    23    1
    23    47    45   am
    24    46    45    2
    25     5     7    1
    26     5     6    1
    27    45    44    1
    28    23    28   am
    29    23    24    2
    30    28    29    1
    31    31    30    2
    32    44    41    1
    33    29    32    1
    34    29    30    1
    35    30    33   am
    36    41    40    1
    37    41    42    1
    38    40    35   am
    39   102   101   ar
    40    33    34    1
    41    33    39    1
    42    35    34    1
    43    35    36    2
    44   103   101   ar
    45    34    37    1
    46   101   100    1
    47    42    43    2
    48    39    38    1
    49    75    74    1
    50    37    38    1
    51   100    99    2
    52    74    72   ar
    53    74    73   ar
    54    72    70   ar
    55    99    96    1
    56    73    71   ar
    57    67    66    2
    58    79    78    2
    59    70    69   ar
    60   110   112   ar
    61   110   109   ar
    62   108   109    1
    63   108   105    1
    64   112   114   ar
    65    96    97    1
    66    96    95    1
    67   109   111   ar
    68    78    84   am
    69    78    77    1
    70    71    69   ar
    71   104    97   am
    72   104   105    1
    73    97    98    2
    74    69    68    1
    75   114   115    1
    76   114   113   ar
    77    85    84    1
    78    85    86    1
    79    66    65    1
    80    66    76   am
    81   105   106    1
    82   111   113   ar
    83    95    90   am
    84    58    57    2
    85    77    76    1
    86    77    80    1
    87    65    68    1
    88    65    64    1
    89    86    88   am
    90    86    87    2
    91    83    81    1
    92    53    54    1
    93    53    52    1
    94    88    89    1
    95    57    64   am
    96    57    56    1
    97   106   107    2
    98    54    48    1
    99    90    89    1
   100    90    91    2
   101    80    81    1
   102    52    49    1
   103    89    92    1
   104    81    82    1
   105    93    92    1
   106    92    94    1
   107    56    59    1
   108    56    55    1
   109    48    49    1
   110    59    60    1
   111    49    50    1
   112    63    61   ar
   113    60    61    1
   114    61    62   ar
   115    50    51    2
