@<TRIPOS>MOLECULE
tmp/3k0vA03.pdb
 135 128 0 0 0
SMALL
GASTEIGER

@<TRIPOS>ATOM
      1  N         -9.6430    9.7410    7.6370 N.3    74  ARG74      -0.1231
      2  CA        -9.4750    8.9700    6.4090 C.3    74  ARG74       0.1694
      3  C         -9.3750    9.9270    5.2190 C.2    74  ARG74       0.2592
      4  O         -9.5440   11.1440    5.3700 O.2    74  ARG74      -0.2718
      5  CB       -10.6230    7.9700    6.2210 C.3    74  ARG74       0.0321
      6  CG       -12.0030    8.5490    6.4450 C.3    74  ARG74       0.0489
      7  CD       -13.0750    7.7340    5.7400 C.3    74  ARG74       0.2205
      8  NE       -14.3820    8.3860    5.8130 N.pl3  74  ARG74      -0.0865
      9  CZ       -15.3710    8.1820    4.9440 C.cat  74  ARG74       0.5346
     10  NH1      -16.5310    8.8170    5.0960 N.pl3  74  ARG74       0.1354
     11  NH2      -15.2040    7.3490    3.9180 N.pl3  74  ARG74       0.1354
     12  N         -9.0990    9.3860    4.0370 N.am   75  LYS75      -0.1966
     13  CA        -9.0780   10.2130    2.8370 C.3    75  LYS75       0.1728
     14  C        -10.4760   10.7340    2.4960 C.2    75  LYS75       0.2617
     15  O        -11.4740   10.0610    2.7560 O.2    75  LYS75      -0.2715
     16  CB        -8.4240    9.4640    1.6740 C.3    75  LYS75       0.0311
     17  CG        -6.9030    9.4340    1.8090 C.3    75  LYS75       0.0038
     18  CD        -6.2010    8.9100    0.5720 C.3    75  LYS75       0.0206
     19  CE        -5.9140    7.4180    0.6860 C.3    75  LYS75       0.1093
     20  NZ        -7.0070    6.5730    0.1210 N.3    75  LYS75      -0.1314
     21  N        -10.5460   11.9490    1.9560 N.am   76  SER76      -0.1936
     22  CA       -11.8350   12.5620    1.6250 C.3    76  SER76       0.2055
     23  C        -11.8380   13.1880    0.2290 C.2    76  SER76       0.2643
     24  O        -11.0800   12.7710   -0.6480 O.2    76  SER76      -0.2714
     25  CB       -12.2110   13.6080    2.6790 C.3    76  SER76       0.2130
     26  OG       -11.5290   14.8320    2.4480 O.3    76  SER76      -0.2179
     27  N        -12.6970   14.1910    0.0420 N.am   77  SER77      -0.1949
     28  CA       -12.7990   14.9420   -1.2120 C.3    77  SER77       0.1924
     29  C        -13.1840   16.4120   -0.9730 C.2    77  SER77       0.2314
     30  O        -13.3520   17.1860   -1.9220 O.2    77  SER77      -0.2863
     31  CB       -13.7800   14.2560   -2.1730 C.3    77  SER77       0.2116
     32  OG       -14.9550   13.8460   -1.4960 O.3    77  SER77      -0.2180
     33  N        -20.0720    6.2920    7.8860 N.3    93  LEU93      -0.1245
     34  CA       -21.4590    5.8910    7.6990 C.3    93  LEU93       0.1561
     35  C        -21.7620    4.5130    8.2860 C.2    93  LEU93       0.2260
     36  O        -21.3110    3.4910    7.7700 O.2    93  LEU93      -0.2867
     37  CB       -21.8280    5.9300    6.2100 C.3    93  LEU93       0.0270
     38  CG       -21.7270    7.3030    5.5330 C.3    93  LEU93       0.0019
     39  CD1      -21.9920    7.1860    4.0320 C.3    93  LEU93       0.0001
     40  CD2      -22.6860    8.2980    6.1740 C.3    93  LEU93       0.0001
     41  N        -19.7570    1.8120    5.9490 N.3   204  ASN204     -0.1225
     42  CA       -19.6670    1.8100    4.4870 C.3   204  ASN204      0.1785
     43  C        -18.2970    1.3430    4.0000 C.2   204  ASN204      0.2597
     44  O        -18.1990    0.4640    3.1290 O.2   204  ASN204     -0.2718
     45  CB       -19.9990    3.2060    3.9300 C.3   204  ASN204      0.1169
     46  CG       -19.5090    3.3960    2.5140 C.2   204  ASN204      0.2627
     47  OD1      -20.0320    2.7760    1.5760 O.2   204  ASN204     -0.2716
     48  ND2      -18.5010    4.2660    2.3520 N.am  204  ASN204     -0.0877
     49  N        -17.2400    1.9040    4.5850 N.am  205  ASP205     -0.1974
     50  CA       -15.8660    1.6020    4.1600 C.3   205  ASP205      0.1709
     51  C        -15.5480    0.1080    4.1780 C.2   205  ASP205      0.2293
     52  O        -14.8540   -0.3960    3.2930 O.2   205  ASP205     -0.2864
     53  CB       -14.8560    2.3520    5.0250 C.3   205  ASP205      0.1436
     54  CG       -15.1070    3.8460    5.0400 C.2   205  ASP205      0.3671
     55  OD1      -15.8140    4.3170    5.9540 O.co2 205  ASP205     -0.2456
     56  OD2      -14.6220    4.5410    4.1200 O.co2 205  ASP205     -0.2456
     57  N        -16.5850   -1.7820    0.9670 N.3   208  TRP208     -0.1227
     58  CA       -15.7000   -1.4380   -0.1430 C.3   208  TRP208      0.1737
     59  C        -14.3190   -2.0660    0.0060 C.2   208  TRP208      0.2595
     60  O        -13.7880   -2.6430   -0.9460 O.2   208  TRP208     -0.2718
     61  CB       -15.6290    0.0830   -0.2940 C.3   208  TRP208      0.0564
     62  CG       -16.8870    0.6090   -0.8960 C.ar  208  TRP208      0.0003
     63  CD1      -18.0830    0.7920   -0.2690 C.ar  208  TRP208      0.0946
     64  CD2      -17.0910    0.9640   -2.2680 C.ar  208  TRP208      0.0152
     65  NE1      -19.0210    1.2630   -1.1640 N.ar  208  TRP208     -0.2442
     66  CE2      -18.4350    1.3770   -2.3980 C.ar  208  TRP208      0.0810
     67  CE3      -16.2630    0.9880   -3.3980 C.ar  208  TRP208      0.0012
     68  CZ2      -18.9760    1.8040   -3.6210 C.ar  208  TRP208      0.0191
     69  CZ3      -16.7960    1.4240   -4.6090 C.ar  208  TRP208      0.0001
     70  CH2      -18.1390    1.8170   -4.7140 C.ar  208  TRP208      0.0015
     71  N        -13.7780   -2.0000    1.2190 N.am  209  GLU209     -0.1979
     72  CA       -12.4210   -2.4570    1.5260 C.3   209  GLU209      0.1602
     73  C        -12.2310   -3.9760    1.4990 C.2   209  GLU209      0.2287
     74  O        -11.0950   -4.4540    1.4920 O.2   209  GLU209     -0.2864
     75  CB       -11.9510   -1.8640    2.8640 C.3   209  GLU209      0.0415
     76  CG       -11.6000   -0.3850    2.7450 C.3   209  GLU209      0.1163
     77  CD       -11.4300    0.3420    4.0750 C.2   209  GLU209      0.3649
     78  OE1      -11.1680   -0.3020    5.1210 O.co2 209  GLU209     -0.2457
     79  OE2      -11.5560    1.5880    4.0530 O.co2 209  GLU209     -0.2457
     80  N        -10.0570   -5.8930   -3.1510 N.3   214  GLU214     -0.1245
     81  CA        -9.4310   -4.9500   -2.2160 C.3   214  GLU214      0.1567
     82  C         -8.7340   -5.6140   -1.0220 C.2   214  GLU214      0.2260
     83  O         -7.8990   -4.9800   -0.3820 O.2   214  GLU214     -0.2867
     84  CB       -10.4230   -3.8740   -1.7340 C.3   214  GLU214      0.0388
     85  CG       -10.8830   -2.8770   -2.8040 C.3   214  GLU214      0.1160
     86  CD        -9.7920   -1.9180   -3.2700 C.2   214  GLU214      0.3649
     87  OE1       -9.0490   -1.3640   -2.4260 O.co2 214  GLU214     -0.2457
     88  OE2       -9.6910   -1.7060   -4.4970 O.co2 214  GLU214     -0.2457
     89  N        -18.9770   -6.7070   -4.8480 N.3   225  ARG225     -0.1245
     90  CA       -19.8450   -5.6520   -4.3110 C.3   225  ARG225      0.1563
     91  C        -21.3250   -5.7750   -4.6750 C.2   225  ARG225      0.2260
     92  O        -22.1950   -5.4620   -3.8600 O.2   225  ARG225     -0.2867
     93  CB       -19.3440   -4.2770   -4.7530 C.3   225  ARG225      0.0307
     94  CG       -18.5750   -3.5480   -3.6970 C.3   225  ARG225      0.0489
     95  CD       -17.7500   -2.4470   -4.2990 C.3   225  ARG225      0.2205
     96  NE       -16.3780   -2.5150   -3.8040 N.pl3 225  ARG225     -0.0865
     97  CZ       -15.3150   -2.0770   -4.4660 C.cat 225  ARG225      0.5346
     98  NH1      -15.4480   -1.5230   -5.6650 N.pl3 225  ARG225      0.1354
     99  NH2      -14.1130   -2.1900   -3.9210 N.pl3 225  ARG225      0.1354
    100  N        -24.4670   -0.9000   -2.6600 N.3   240  VAL240     -0.1231
    101  CA       -23.5330   -0.3820   -1.6560 C.3   240  VAL240      0.1692
    102  C        -22.8500    0.9220   -2.0860 C.2   240  VAL240      0.2592
    103  O        -22.0970    1.5140   -1.3100 O.2   240  VAL240     -0.2718
    104  CB       -22.5070   -1.4620   -1.2180 C.3   240  VAL240      0.0266
    105  CG1      -23.2320   -2.6780   -0.6470 C.3   240  VAL240      0.0020
    106  CG2      -21.6140   -1.8790   -2.3790 C.3   240  VAL240      0.0020
    107  N        -23.1440    1.3620   -3.3140 N.am  241  THR241     -0.1953
    108  CA       -22.7390    2.6760   -3.8370 C.3   241  THR241      0.1897
    109  C        -23.6180    3.8130   -3.3000 C.2   241  THR241      0.2313
    110  O        -23.2770    4.9980   -3.4320 O.2   241  THR241     -0.2863
    111  CB       -22.8160    2.7140   -5.3870 C.3   241  THR241      0.1794
    112  OG1      -24.1320    2.3400   -5.8110 O.3   241  THR241     -0.2208
    113  CG2      -21.8050    1.7570   -6.0110 C.3   241  THR241      0.0378
    114  N        -24.4960    4.6970   -0.2060 N.3   243  ALA243     -0.1231
    115  CA       -24.3230    4.6850    1.2460 C.3   243  ALA243      0.1694
    116  C        -24.7130    6.0200    1.8780 C.2   243  ALA243      0.2591
    117  O        -25.0930    6.0720    3.0500 O.2   243  ALA243     -0.2718
    118  CB       -22.8900    4.3230    1.6060 C.3   243  ALA243      0.0304
    119  N        -24.6590    7.0560    1.0650 N.am  244  GLN244     -0.1979
    120  CA       -24.9680    8.4180    1.4910 C.3   244  GLN244      0.1601
    121  C        -26.4730    8.6680    1.6030 C.2   244  GLN244      0.2287
    122  O        -26.8950    9.6240    2.2480 O.2   244  GLN244     -0.2864
    123  CB       -24.3110    9.4500    0.5760 C.3   244  GLN244      0.0394
    124  CG       -24.2880   10.8650    1.1520 C.3   244  GLN244      0.0908
    125  CD       -23.5110   10.9710    2.4480 C.2   244  GLN244      0.2608
    126  OE1      -24.0730   11.3110    3.4870 O.2   244  GLN244     -0.2717
    127  NE2      -22.2140   10.6750    2.3960 N.am  244  GLN244     -0.0878
    128  N         -7.4600    2.2420    7.1320 N.3   303  ASN303     -0.1240
    129  CA        -7.7560    3.3440    6.2160 C.3   303  ASN303      0.1653
    130  C         -7.4310    4.7440    6.7560 C.2   303  ASN303      0.2266
    131  O         -7.7150    5.7470    6.0990 O.2   303  ASN303     -0.2867
    132  CB        -9.1970    3.2580    5.6760 C.3   303  ASN303      0.1155
    133  CG       -10.2530    3.5910    6.7280 C.2   303  ASN303      0.2627
    134  OD1       -9.9590    3.7320    7.9190 O.2   303  ASN303     -0.2716
    135  ND2      -11.4920    3.6980    6.2850 N.am  303  ASN303     -0.0877
@<TRIPOS>BOND
     1   113   111    1
     2   112   111    1
     3    98    97    1
     4   111   108    1
     5    89    90    1
     6    93    90    1
     7    93    94    1
     8    70    69   ar
     9    70    68   ar
    10    91    90    1
    11    91    92    2
    12    69    67   ar
    13    88    86   ar
    14    97    99    1
    15    97    96    2
    16    95    96    1
    17    95    94    1
    18   108   107    1
    19   108   109    1
    20    68    66   ar
    21   110   109    2
    22    67    64   ar
    23   107   102   am
    24    86    85    1
    25    86    87   ar
    26    80    81    1
    27    85    84    1
    28   100   101    1
    29    66    64   ar
    30    66    65   ar
    31   106   104    1
    32    64    62   ar
    33    81    84    1
    34    81    82    1
    35    31    32    1
    36    31    28    1
    37   102   101    1
    38   102   103    2
    39    30    29    2
    40   101   104    1
    41   104   105    1
    42    28    29    1
    43    28    27    1
    44    65    63   ar
    45    82    83    2
    46    60    59    2
    47    62    61    1
    48    62    63   ar
    49    24    23    2
    50    61    58    1
    51   114   115    1
    52    58    59    1
    53    58    57    1
    54    59    71   am
    55    27    23   am
    56    20    19    1
    57    23    22    1
    58    18    19    1
    59    18    17    1
    60   123   124    1
    61   123   120    1
    62   119   120    1
    63   119   116   am
    64   124   125    1
    65    71    72    1
    66   115   118    1
    67   115   116    1
    68   120   121    1
    69    74    73    2
    70    73    72    1
    71    72    75    1
    72    47    46    2
    73   121   122    2
    74    22    21    1
    75    22    25    1
    76    16    17    1
    77    16    13    1
    78   116   117    2
    79    21    14   am
    80    48    46   am
    81   127   125   am
    82    26    25    1
    83   125   126    2
    84    14    15    2
    85    14    13    1
    86    46    45    1
    87    76    75    1
    88    76    77    1
    89    13    12    1
    90    44    43    2
    91    52    51    2
    92    11     9    1
    93    45    42    1
    94    43    42    1
    95    43    49   am
    96    39    38    1
    97    12     3   am
    98    79    77   ar
    99    77    78   ar
   100    56    54   ar
   101    50    51    1
   102    50    49    1
   103    50    53    1
   104    42    41    1
   105     9    10    1
   106     9     8    2
   107    53    54    1
   108    54    55   ar
   109     3     4    2
   110     3     2    1
   111    38    40    1
   112    38    37    1
   113   132   129    1
   114   132   133    1
   115     7     8    1
   116     7     6    1
   117   131   130    2
   118    37    34    1
   119   129   130    1
   120   129   128    1
   121     5     2    1
   122     5     6    1
   123   135   133   am
   124     2     1    1
   125   133   134    2
   126    34    33    1
   127    34    35    1
   128    36    35    2
