@<TRIPOS>MOLECULE
tmp/3k0zA00.pdb
 131 125 0 0 0
SMALL
GASTEIGER

@<TRIPOS>ATOM
      1  N          1.4480   68.7050    7.1630 N.3    58  PRO58      -0.2102
      2  CA         1.2930   69.0680    5.7450 C.3    58  PRO58       0.1504
      3  C          0.0020   68.5250    5.1220 C.2    58  PRO58       0.2576
      4  O         -0.5110   67.4820    5.5670 O.2    58  PRO58      -0.2718
      5  CB         2.5220   68.4380    5.0980 C.3    58  PRO58       0.0282
      6  CG         3.5300   68.4120    6.1600 C.3    58  PRO58       0.0208
      7  CD         2.7620   68.0890    7.4020 C.3    58  PRO58       0.0893
      8  N         -0.5770   69.2590    4.1570 N.am   59  LYS59      -0.1966
      9  CA        -1.8410   68.7910    3.5610 C.3    59  LYS59       0.1728
     10  C         -1.5190   67.4540    2.9110 C.2    59  LYS59       0.2617
     11  O         -0.4800   67.3250    2.2310 O.2    59  LYS59      -0.2715
     12  CB        -2.4270   69.7550    2.5120 C.3    59  LYS59       0.0311
     13  CG        -2.8790   71.0600    3.0660 C.3    59  LYS59       0.0038
     14  CD        -4.1570   70.9680    3.8410 C.3    59  LYS59       0.0206
     15  CE        -4.5990   72.3510    4.3800 C.3    59  LYS59       0.1093
     16  NZ        -3.8640   72.8000    5.5710 N.3    59  LYS59      -0.1314
     17  N         -2.3730   66.4690    3.1750 N.am   60  GLY60      -0.1940
     18  CA        -2.2080   65.1360    2.6150 C.3    60  GLY60       0.2014
     19  C         -1.4560   64.1600    3.5130 C.2    60  GLY60       0.2638
     20  O         -1.5390   62.9440    3.3090 O.2    60  GLY60      -0.2714
     21  N         -0.7090   64.6640    4.4910 N.am   61  ARG61      -0.1977
     22  CA         0.0220   63.7700    5.3690 C.3    61  ARG61       0.1597
     23  C         -0.9180   63.2780    6.4710 C.2    61  ARG61       0.2287
     24  O         -1.5530   64.0780    7.1240 O.2    61  ARG61      -0.2864
     25  CB         1.2130   64.4620    6.0080 C.3    61  ARG61       0.0334
     26  CG         2.0230   63.4890    6.7940 C.3    61  ARG61       0.0492
     27  CD         3.1090   64.1560    7.5060 C.3    61  ARG61       0.2205
     28  NE         4.1250   64.5790    6.5620 N.pl3  61  ARG61      -0.0865
     29  CZ         5.2930   65.0950    6.8900 C.cat  61  ARG61       0.5346
     30  NH1        5.6390   65.2330    8.1560 N.pl3  61  ARG61       0.1354
     31  NH2        6.1420   65.4570    5.9260 N.pl3  61  ARG61       0.1354
     32  N          4.3620   57.3550    5.7390 N.3    70  PHE70      -0.1227
     33  CA         3.7930   57.8340    4.4790 C.3    70  PHE70       0.1736
     34  C          4.6960   58.8500    3.8030 C.2    70  PHE70       0.2595
     35  O          5.0220   58.7070    2.6370 O.2    70  PHE70      -0.2718
     36  CB         2.4090   58.4330    4.6850 C.3    70  PHE70       0.0547
     37  CG         1.8180   59.0130    3.4230 C.ar   70  PHE70      -0.0202
     38  CD1        1.2130   58.1900    2.4990 C.ar   70  PHE70      -0.0042
     39  CD2        1.8930   60.3780    3.1500 C.ar   70  PHE70      -0.0042
     40  CE1        0.6850   58.7180    1.3120 C.ar   70  PHE70      -0.0003
     41  CE2        1.3730   60.8980    1.9640 C.ar   70  PHE70      -0.0003
     42  CZ         0.7900   60.0560    1.0460 C.ar   70  PHE70      -0.0000
     43  N          5.1210   59.8550    4.5560 N.am   71  ALA71      -0.1980
     44  CA         5.9130   60.9670    4.0500 C.3    71  ALA71       0.1597
     45  C          7.2700   60.5520    3.4720 C.2    71  ALA71       0.2287
     46  O          7.6900   61.0640    2.4070 O.2    71  ALA71      -0.2864
     47  CB         6.0930   62.0640    5.1940 C.3    71  ALA71       0.0319
     48  N          6.5220   58.6820    0.2220 N.3    74  ASN74      -0.1225
     49  CA         5.8700   59.5450   -0.7480 C.3    74  ASN74       0.1785
     50  C          6.9200   60.4770   -1.3720 C.2    74  ASN74       0.2597
     51  O          6.9890   60.6120   -2.5730 O.2    74  ASN74      -0.2718
     52  CB         4.7370   60.3280   -0.0600 C.3    74  ASN74       0.1169
     53  CG         3.9290   61.2020   -1.0190 C.2    74  ASN74       0.2627
     54  OD1        3.3590   60.7180   -1.9940 O.2    74  ASN74      -0.2716
     55  ND2        3.8740   62.5040   -0.7260 N.am   74  ASN74      -0.0877
     56  N          7.7710   61.0720   -0.5450 N.am   75  PHE75      -0.1976
     57  CA         8.8120   61.9410   -1.0520 C.3    75  PHE75       0.1639
     58  C          9.7430   61.2370   -2.0710 C.2    75  PHE75       0.2290
     59  O         10.0440   61.7830   -3.1350 O.2    75  PHE75      -0.2864
     60  CB         9.6220   62.4990    0.1100 C.3    75  PHE75       0.0560
     61  CG        10.4470   63.6810   -0.2720 C.ar   75  PHE75      -0.0200
     62  CD1       11.7300   63.5240   -0.7670 C.ar   75  PHE75      -0.0042
     63  CD2        9.9190   64.9430   -0.1840 C.ar   75  PHE75      -0.0042
     64  CE1       12.4860   64.6360   -1.1330 C.ar   75  PHE75      -0.0003
     65  CE2       10.6670   66.0370   -0.5230 C.ar   75  PHE75      -0.0003
     66  CZ        11.9560   65.8850   -0.9910 C.ar   75  PHE75      -0.0000
     67  N          9.1740   60.9590   -6.0290 N.3    78  ILE78      -0.1231
     68  CA         9.5500   62.0800   -6.8860 C.3    78  ILE78       0.1692
     69  C         11.0450   62.4290   -6.7980 C.2    78  ILE78       0.2591
     70  O         11.6510   62.7390   -7.8190 O.2    78  ILE78      -0.2718
     71  CB         8.7960   63.3770   -6.5390 C.3    78  ILE78       0.0266
     72  CG1        7.2980   63.1390   -6.3460 C.3    78  ILE78       0.0019
     73  CG2        8.9690   64.4020   -7.7110 C.3    78  ILE78       0.0020
     74  CD1        6.5940   62.7110   -7.6560 C.3    78  ILE78       0.0001
     75  N         11.6110   62.4060   -5.5890 N.am   79  VAL79      -0.1980
     76  CA        13.0330   62.7400   -5.3550 C.3    79  VAL79       0.1595
     77  C         13.6940   61.6400   -4.5360 C.2    79  VAL79       0.2287
     78  O         13.9340   61.8190   -3.3540 O.2    79  VAL79      -0.2864
     79  CB        13.2090   64.0880   -4.5680 C.3    79  VAL79       0.0276
     80  CG1       14.6920   64.5150   -4.4630 C.3    79  VAL79       0.0022
     81  CG2       12.4060   65.2190   -5.2460 C.3    79  VAL79       0.0022
     82  N          8.9220   73.0510    6.2320 N.3   133  GLU133     -0.1245
     83  CA         9.9190   72.7760    5.1940 C.3   133  GLU133      0.1567
     84  C          9.6790   73.8420    4.1780 C.2   133  GLU133      0.2260
     85  O          8.5290   74.2670    4.0000 O.2   133  GLU133     -0.2867
     86  CB         9.6980   71.4030    4.5660 C.3   133  GLU133      0.0388
     87  CG         9.9680   70.2250    5.5000 C.3   133  GLU133      0.1160
     88  CD         8.8820   69.9960    6.5470 C.2   133  GLU133      0.3649
     89  OE1        7.7370   69.7280    6.1460 O.co2 133  GLU133     -0.2457
     90  OE2        9.2130   70.0570    7.7610 O.co2 133  GLU133     -0.2457
     91  N          8.7560   74.3930    1.2030 N.3   135  ASN135     -0.1240
     92  CA         8.1440   73.6570    0.0940 C.3   135  ASN135      0.1653
     93  C          7.9670   74.4830   -1.1770 C.2   135  ASN135      0.2266
     94  O          8.0050   73.9360   -2.2630 O.2   135  ASN135     -0.2867
     95  CB         6.8000   73.0280    0.5070 C.3   135  ASN135      0.1155
     96  CG         6.9470   71.9400    1.5870 C.2   135  ASN135      0.2627
     97  OD1        6.3170   72.0440    2.6490 O.2   135  ASN135     -0.2716
     98  ND2        7.7860   70.9220    1.3330 N.am  135  ASN135     -0.0877
     99  N         11.3330   74.1950   -2.8260 N.3   138  LEU138     -0.1231
    100  CA        11.3270   72.8640   -3.4780 C.3   138  LEU138      0.1693
    101  C         10.4830   72.7640   -4.7640 C.2   138  LEU138      0.2591
    102  O         10.9490   72.2680   -5.7590 O.2   138  LEU138     -0.2718
    103  CB        10.8640   71.7700   -2.5190 C.3   138  LEU138      0.0284
    104  CG        10.8340   70.3490   -3.1360 C.3   138  LEU138      0.0019
    105  CD1       12.1390   69.9110   -3.8160 C.3   138  LEU138      0.0001
    106  CD2       10.4640   69.3610   -2.0320 C.3   138  LEU138      0.0001
    107  N          9.2290   73.1920   -4.7190 N.am  139  LYS139     -0.1980
    108  CA         8.3510   73.1030   -5.8830 C.3   139  LYS139      0.1596
    109  C          8.9170   73.9250   -7.0480 C.2   139  LYS139      0.2287
    110  O          8.7790   73.5690   -8.2320 O.2   139  LYS139     -0.2864
    111  CB         6.9340   73.5550   -5.5060 C.3   139  LYS139      0.0298
    112  CG         6.2290   72.5820   -4.5680 C.3   139  LYS139      0.0038
    113  CD         5.0030   73.1920   -3.9510 C.3   139  LYS139      0.0206
    114  CE         4.1290   72.1500   -3.2900 C.3   139  LYS139      0.1093
    115  NZ         3.4250   71.3120   -4.3060 N.3   139  LYS139     -0.1314
    116  N         11.6830   71.9170   -8.4460 N.3   142  LEU142     -0.1245
    117  CA        11.1080   70.7860   -9.1730 C.3   142  LEU142      0.1561
    118  C         10.4500   71.2300  -10.4620 C.2   142  LEU142      0.2260
    119  O          9.9620   70.4060  -11.2210 O.2   142  LEU142     -0.2867
    120  CB        10.0730   70.0450   -8.3240 C.3   142  LEU142      0.0270
    121  CG        10.5440   69.2950   -7.0800 C.3   142  LEU142      0.0019
    122  CD1        9.3340   68.7260   -6.2940 C.3   142  LEU142      0.0001
    123  CD2       11.5550   68.1720   -7.4010 C.3   142  LEU142      0.0001
    124  N          7.7040   72.8730  -10.6700 N.3   144  LEU144     -0.1245
    125  CA         6.2470   72.8210  -10.5420 C.3   144  LEU144      0.1561
    126  C          5.6200   74.2160  -10.4390 C.2   144  LEU144      0.2260
    127  O          4.5750   74.4670  -11.0410 O.2   144  LEU144     -0.2867
    128  CB         5.8420   72.0070   -9.3200 C.3   144  LEU144      0.0270
    129  CG         6.1850   70.5260   -9.3500 C.3   144  LEU144      0.0019
    130  CD1        5.9900   69.9670   -7.9360 C.3   144  LEU144      0.0001
    131  CD2        5.3470   69.8000  -10.4050 C.3   144  LEU144      0.0001
@<TRIPOS>BOND
     1   119   118    2
     2   127   126    2
     3   124   125    1
     4   125   126    1
     5   125   128    1
     6   118   117    1
     7   131   129    1
     8   129   128    1
     9   129   130    1
    10   117   116    1
    11   117   120    1
    12   120   121    1
    13   110   109    2
    14    70    69    2
    15    73    71    1
    16    74    72    1
    17   123   121    1
    18   121   122    1
    19   109   108    1
    20    68    69    1
    21    68    71    1
    22    68    67    1
    23    69    75   am
    24    71    72    1
    25   108   111    1
    26   108   107    1
    27   102   101    2
    28    75    76    1
    29   111   112    1
    30    76    79    1
    31    76    77    1
    32    81    79    1
    33   101   107   am
    34   101   100    1
    35   112   113    1
    36    79    80    1
    37    77    78    2
    38   115   114    1
    39   113   114    1
    40   105   104    1
    41   100    99    1
    42   100   103    1
    43   104   103    1
    44   104   106    1
    45    59    58    2
    46    51    50    2
    47    94    93    2
    48    58    57    1
    49    54    53    2
    50    50    49    1
    51    50    56   am
    52    93    92    1
    53    64    66   ar
    54    64    62   ar
    55    57    56    1
    56    57    60    1
    57    53    55   am
    58    53    52    1
    59    66    65   ar
    60    62    61   ar
    61    49    52    1
    62    49    48    1
    63    65    63   ar
    64    61    63   ar
    65    61    60    1
    66    92    95    1
    67    92    91    1
    68    95    96    1
    69    42    40   ar
    70    42    41   ar
    71    40    38   ar
    72    98    96   am
    73    96    97    2
    74    41    39   ar
    75    11    10    2
    76    46    45    2
    77    38    37   ar
    78    12    13    1
    79    12     9    1
    80    18    17    1
    81    18    19    1
    82    35    34    2
    83    10    17   am
    84    10     9    1
    85    13    14    1
    86    39    37   ar
    87    20    19    2
    88    37    36    1
    89    45    44    1
    90    19    21   am
    91     9     8    1
    92    34    33    1
    93    34    43   am
    94    14    15    1
    95    85    84    2
    96    44    43    1
    97    44    47    1
    98     8     3   am
    99    84    83    1
   100    15    16    1
   101    33    36    1
   102    33    32    1
   103    21    22    1
   104    86    83    1
   105    86    87    1
   106     5     2    1
   107     5     6    1
   108     3     4    2
   109     3     2    1
   110    83    82    1
   111    22    25    1
   112    22    23    1
   113    87    88    1
   114     2     1    1
   115    31    29    1
   116    25    26    1
   117    89    88   ar
   118     6     7    1
   119    23    24    2
   120    88    90   ar
   121    28    29    2
   122    28    27    1
   123    26    27    1
   124    29    30    1
   125     1     7    1
