@<TRIPOS>MOLECULE
tmp/3k13C00.pdb
 196 180 0 0 0
SMALL
GASTEIGER

@<TRIPOS>ATOM
      1  N         88.4910   29.6360   60.7570 N.3     9  GLU9       -0.1231
      2  CA        88.5970   28.5260   61.7010 C.3     9  GLU9        0.1699
      3  C         87.7020   28.6610   62.9130 C.2     9  GLU9        0.2592
      4  O         87.5660   27.6940   63.6680 O.2     9  GLU9       -0.2718
      5  CB        90.0260   28.4120   62.2240 C.3     9  GLU9        0.0402
      6  CG        90.3720   29.5000   63.2890 C.3     9  GLU9        0.1161
      7  CD        91.7850   29.3880   63.8910 C.2     9  GLU9        0.3649
      8  OE1       92.6950   28.7940   63.2630 O.co2   9  GLU9       -0.2457
      9  OE2       91.9800   29.9520   64.9950 O.co2   9  GLU9       -0.2457
     10  N         87.1570   29.8480   63.1480 N.am   10  ARG10      -0.1980
     11  CA        86.6480   30.1760   64.4780 C.3    10  ARG10       0.1597
     12  C         85.3030   29.5620   64.8870 C.2    10  ARG10       0.2287
     13  O         85.0100   29.5200   66.0800 O.2    10  ARG10      -0.2864
     14  CB        86.5540   31.6970   64.6700 C.3    10  ARG10       0.0334
     15  CG        87.8850   32.4130   64.3460 C.3    10  ARG10       0.0492
     16  CD        88.2490   33.5620   65.2810 C.3    10  ARG10       0.2205
     17  NE        87.2810   34.6400   65.3960 N.pl3  10  ARG10      -0.0865
     18  CZ        86.7080   35.0400   66.5480 C.cat  10  ARG10       0.5346
     19  NH1       85.8410   36.0430   66.5300 N.pl3  10  ARG10       0.1354
     20  NH2       86.9710   34.4470   67.7240 N.pl3  10  ARG10       0.1354
     21  N         84.2200   26.8120   65.6590 N.3    12  ASN12      -0.1240
     22  CA        84.7290   25.4990   66.0380 C.3    12  ASN12       0.1653
     23  C         84.7280   25.4350   67.5580 C.2    12  ASN12       0.2266
     24  O         85.4820   26.1520   68.1860 O.2    12  ASN12      -0.2867
     25  CB        86.1530   25.3230   65.4810 C.3    12  ASN12       0.1155
     26  CG        86.8050   24.0090   65.9130 C.2    12  ASN12       0.2627
     27  OD1       86.3490   23.3370   66.8590 O.2    12  ASN12      -0.2716
     28  ND2       87.8780   23.6450   65.2350 N.am   12  ASN12      -0.0877
     29  N         85.7080   23.1530   69.6140 N.3    14  ALA14      -0.1231
     30  CA        86.9290   22.6050   70.2230 C.3    14  ALA14       0.1694
     31  C         88.0850   23.5940   70.0310 C.2    14  ALA14       0.2593
     32  O         89.0830   23.4950   70.7150 O.2    14  ALA14      -0.2718
     33  CB        87.2860   21.2050   69.6130 C.3    14  ALA14       0.0304
     34  N         87.9330   24.5580   69.1210 N.am   15  GLY15      -0.1942
     35  CA        88.9950   25.5200   68.8230 C.3    15  GLY15       0.2014
     36  C         88.7550   26.9350   69.2800 C.2    15  GLY15       0.2640
     37  O         89.6590   27.7670   69.1940 O.2    15  GLY15      -0.2714
     38  N         87.5380   27.2430   69.7540 N.am   16  SER16      -0.1935
     39  CA        87.2400   28.5640   70.2950 C.3    16  SER16       0.2055
     40  C         86.3600   28.4520   71.5270 C.2    16  SER16       0.2643
     41  O         85.2460   27.9150   71.4820 O.2    16  SER16      -0.2714
     42  CB        86.5560   29.4690   69.2990 C.3    16  SER16       0.2130
     43  OG        86.0170   30.5810   70.0010 O.3    16  SER16      -0.2179
     44  N         86.8660   28.9420   72.6490 N.am   17  ARG17      -0.1963
     45  CA        86.1330   28.7750   73.8890 C.3    17  ARG17       0.1729
     46  C         84.8760   29.6330   73.8370 C.2    17  ARG17       0.2616
     47  O         83.8550   29.2400   74.3710 O.2    17  ARG17      -0.2715
     48  CB        87.0300   29.1020   75.1100 C.3    17  ARG17       0.0348
     49  CG        87.4370   27.8100   75.8830 C.3    17  ARG17       0.0492
     50  CD        88.5380   28.0340   76.9640 C.3    17  ARG17       0.2205
     51  NE        89.8660   28.0920   76.3400 N.pl3  17  ARG17      -0.0865
     52  CZ        90.4840   29.2030   75.9320 C.cat  17  ARG17       0.5346
     53  NH1       89.9240   30.4100   76.0940 N.pl3  17  ARG17       0.1354
     54  NH2       91.6770   29.1010   75.3540 N.pl3  17  ARG17       0.1354
     55  N         84.9620   30.7860   73.1800 N.am   18  LYS18      -0.1977
     56  CA        83.8300   31.6430   73.0270 C.3    18  LYS18       0.1596
     57  C         82.7400   30.9370   72.1970 C.2    18  LYS18       0.2287
     58  O         81.5810   30.8590   72.6260 O.2    18  LYS18      -0.2864
     59  CB        84.2230   32.9670   72.4090 C.3    18  LYS18       0.0298
     60  CG        83.1020   34.0120   72.3740 C.3    18  LYS18       0.0038
     61  CD        83.6910   35.3910   72.0900 C.3    18  LYS18       0.0206
     62  CE        82.8300   36.2700   71.1980 C.3    18  LYS18       0.1093
     63  NZ        81.9270   37.1140   71.9890 N.3    18  LYS18      -0.1314
     64  N         84.6780   27.1380   58.1830 N.3    47  ASP47      -0.1239
     65  CA        84.7340   25.8190   58.7890 C.3    47  ASP47       0.1674
     66  C         83.7970   25.7850   59.9900 C.2    47  ASP47       0.2266
     67  O         83.8570   26.6780   60.8530 O.2    47  ASP47      -0.2867
     68  CB        86.1690   25.4950   59.2360 C.3    47  ASP47       0.1410
     69  CG        86.3490   24.0460   59.6580 C.2    47  ASP47       0.3668
     70  OD1       86.2440   23.1390   58.7810 O.co2  47  ASP47      -0.2456
     71  OD2       86.6240   23.8280   60.8660 O.co2  47  ASP47      -0.2456
     72  N         82.5860   23.3080   63.2170 N.3    49  ASN49      -0.1240
     73  CA        82.8550   22.0930   63.9830 C.3    49  ASN49       0.1653
     74  C         82.0900   22.1550   65.2960 C.2    49  ASN49       0.2266
     75  O         82.3020   23.0590   66.1230 O.2    49  ASN49      -0.2867
     76  CB        84.3720   21.9700   64.2150 C.3    49  ASN49       0.1155
     77  CG        84.7960   20.6660   64.8990 C.2    49  ASN49       0.2627
     78  OD1       84.0650   20.0800   65.6680 O.2    49  ASN49      -0.2716
     79  ND2       86.0040   20.1950   64.5610 N.am   49  ASN49      -0.0877
     80  N         82.8900   20.1990   59.4150 N.3    78  ASP78      -0.1239
     81  CA        84.0400   19.6730   60.1360 C.3    78  ASP78       0.1674
     82  C         83.5820   18.8130   61.2900 C.2    78  ASP78       0.2266
     83  O         83.1370   19.3190   62.3330 O.2    78  ASP78      -0.2867
     84  CB        84.9120   20.8680   60.5930 C.3    78  ASP78       0.1410
     85  CG        86.2200   20.4780   61.2840 C.2    78  ASP78       0.3668
     86  OD1       86.4880   19.2900   61.5400 O.co2  78  ASP78      -0.2456
     87  OD2       86.9860   21.4300   61.5960 O.co2  78  ASP78      -0.2456
     88  N         84.9610   18.0310   55.6130 N.3    99  ASN99      -0.1225
     89  CA        86.2000   18.0260   56.3570 C.3    99  ASN99       0.1785
     90  C         86.0800   16.9700   57.4840 C.2    99  ASN99       0.2597
     91  O         85.6720   17.2990   58.5770 O.2    99  ASN99      -0.2718
     92  CB        86.4680   19.4180   56.9640 C.3    99  ASN99       0.1169
     93  CG        87.7850   19.4790   57.7150 C.2    99  ASN99       0.2627
     94  OD1       88.6080   18.5880   57.5580 O.2    99  ASN99      -0.2716
     95  ND2       87.9790   20.5170   58.5680 N.am   99  ASN99      -0.0877
     96  N         86.4160   15.7110   57.2290 N.am  100  SER100     -0.1952
     97  CA        87.1650   15.2430   56.0880 C.3   100  SER100      0.1924
     98  C         86.9060   13.7140   55.9380 C.2   100  SER100      0.2314
     99  O         86.2180   13.1220   56.7740 O.2   100  SER100     -0.2863
    100  CB        88.6540   15.4370   56.3870 C.3   100  SER100      0.2116
    101  OG        89.0300   14.7410   57.5960 O.3   100  SER100     -0.2180
    102  N         87.9790   17.4540   51.7840 N.3   125  VAL125     -0.1245
    103  CA        89.3010   17.3060   52.3460 C.3   125  VAL125      0.1561
    104  C         89.6020   15.8260   52.5830 C.2   125  VAL125      0.2260
    105  O         88.7680   15.0660   53.0400 O.2   125  VAL125     -0.2867
    106  CB        89.4170   18.0770   53.6810 C.3   125  VAL125      0.0252
    107  CG1       90.8480   17.9540   54.2690 C.3   125  VAL125      0.0019
    108  CG2       88.9900   19.5610   53.4610 C.3   125  VAL125      0.0019
    109  N         95.0280   17.3620   52.9320 N.3   165  ASP165     -0.1239
    110  CA        95.5460   17.9600   54.1340 C.3   165  ASP165      0.1674
    111  C         96.6440   17.0420   54.6330 C.2   165  ASP165      0.2266
    112  O         96.3560   16.0310   55.2420 O.2   165  ASP165     -0.2867
    113  CB        94.4240   18.1040   55.1600 C.3   165  ASP165      0.1410
    114  CG        94.8670   18.8630   56.3970 C.2   165  ASP165      0.3668
    115  OD1       96.0720   18.8040   56.7440 O.co2 165  ASP165     -0.2456
    116  OD2       94.0160   19.5090   57.0320 O.co2 165  ASP165     -0.2456
    117  N         98.5630   17.3310   57.0160 N.3   167  ASN167     -0.1225
    118  CA        98.6420   17.4090   58.4810 C.3   167  ASN167      0.1785
    119  C         99.6640   18.4480   58.9670 C.2   167  ASN167      0.2597
    120  O        100.8790   18.2070   58.8880 O.2   167  ASN167     -0.2718
    121  CB        99.0180   16.0830   59.1170 C.3   167  ASN167      0.1169
    122  CG        98.1090   14.9540   58.7460 C.2   167  ASN167      0.2627
    123  OD1       96.9230   15.0960   58.8130 O.2   167  ASN167     -0.2716
    124  ND2       98.6850   13.7760   58.4390 N.am  167  ASN167     -0.0877
    125  N         99.1790   19.5860   59.4480 N.am  168  VAL168     -0.1980
    126  CA       100.0150   20.5670   60.1230 C.3   168  VAL168      0.1595
    127  C        100.0530   20.1030   61.5740 C.2   168  VAL168      0.2287
    128  O         99.0010   20.0360   62.2560 O.2   168  VAL168     -0.2864
    129  CB        99.4260   21.9780   60.0660 C.3   168  VAL168      0.0276
    130  CG1      100.2790   22.9800   60.8910 C.3   168  VAL168      0.0022
    131  CG2       99.2890   22.4420   58.5950 C.3   168  VAL168      0.0022
    132  N         95.5280   22.0950   51.6640 N.3   202  SER202     -0.1217
    133  CA        95.1460   22.8930   52.7650 C.3   202  SER202      0.1889
    134  C         95.7740   22.3220   54.0250 C.2   202  SER202      0.2288
    135  O         96.3940   21.2450   54.0300 O.2   202  SER202     -0.2866
    136  CB        93.6110   22.8410   52.9140 C.3   202  SER202      0.2089
    137  OG        93.1360   23.6670   53.9730 O.3   202  SER202     -0.2183
    138  N         95.4520   22.8310   58.7400 N.3   204  GLY204     -0.1225
    139  CA        94.9980   23.5410   59.9380 C.3   204  GLY204      0.1811
    140  C         96.1560   24.3220   60.5520 C.2   204  GLY204      0.2280
    141  O         96.8800   23.8150   61.4030 O.2   204  GLY204     -0.2866
    142  N         96.7390   26.8120   62.6460 N.3   206  SER206     -0.1202
    143  CA        96.8880   27.1230   64.0670 C.3   206  SER206      0.2020
    144  C         97.4170   25.9760   64.9380 C.2   206  SER206      0.2618
    145  O         97.8910   26.2190   66.0570 O.2   206  SER206     -0.2717
    146  CB        95.5570   27.6290   64.6280 C.3   206  SER206      0.2103
    147  OG        95.1990   28.8830   64.0290 O.3   206  SER206     -0.2182
    148  N         97.2940   24.7370   64.4530 N.am  207  ASN207     -0.1974
    149  CA        97.8850   23.5840   65.1360 C.3   207  ASN207      0.1688
    150  C         99.4120   23.6840   65.2160 C.2   207  ASN207      0.2292
    151  O        100.0180   23.1500   66.1360 O.2   207  ASN207     -0.2864
    152  CB        97.5210   22.2570   64.4280 C.3   207  ASN207      0.1181
    153  CG        96.0160   22.0200   64.3430 C.2   207  ASN207      0.2629
    154  OD1       95.4200   21.9810   63.2360 O.2   207  ASN207     -0.2716
    155  ND2       95.3980   21.8990   65.4670 N.am  207  ASN207     -0.0877
    156  N        100.7610   25.3510   68.6460 N.3   210  PHE210     -0.1241
    157  CA       100.1230   24.9110   69.8890 C.3   210  PHE210      0.1605
    158  C        101.0750   25.0180   71.0980 C.2   210  PHE210      0.2264
    159  O        100.6320   25.3210   72.1900 O.2   210  PHE210     -0.2867
    160  CB        99.5120   23.4900   69.6810 C.3   210  PHE210      0.0534
    161  CG        99.0760   22.7840   70.9460 C.ar  210  PHE210     -0.0203
    162  CD1      100.0030   22.1000   71.7390 C.ar  210  PHE210     -0.0042
    163  CD2       97.7450   22.7570   71.3130 C.ar  210  PHE210     -0.0042
    164  CE1       99.6090   21.4330   72.8890 C.ar  210  PHE210     -0.0003
    165  CE2       97.3410   22.0920   72.4680 C.ar  210  PHE210     -0.0003
    166  CZ        98.2720   21.4280   73.2520 C.ar  210  PHE210     -0.0000
    167  N        100.7480   28.5260   73.0980 N.3   213  ARG213     -0.1245
    168  CA        99.4810   28.9680   73.6890 C.3   213  ARG213      0.1563
    169  C         99.7580   30.0630   74.7000 C.2   213  ARG213      0.2260
    170  O        100.6430   29.9070   75.5260 O.2   213  ARG213     -0.2867
    171  CB        98.7880   27.8100   74.4140 C.3   213  ARG213      0.0307
    172  CG        97.4900   27.3730   73.7940 C.3   213  ARG213      0.0489
    173  CD        96.9980   26.0900   74.4640 C.3   213  ARG213      0.2205
    174  NE        95.8850   25.4720   73.7490 N.pl3 213  ARG213     -0.0865
    175  CZ        94.6650   25.3520   74.2620 C.cat 213  ARG213      0.5346
    176  NH1       94.4150   25.8120   75.4820 N.pl3 213  ARG213      0.1354
    177  NH2       93.7060   24.7760   73.5670 N.pl3 213  ARG213      0.1354
    178  N        102.5450   33.0470   68.0350 N.3   219  ARG219     -0.1245
    179  CA       101.7090   32.1650   67.2290 C.3   219  ARG219      0.1563
    180  C        101.4260   32.7570   65.8720 C.2   219  ARG219      0.2260
    181  O        101.6110   32.0920   64.8650 O.2   219  ARG219     -0.2867
    182  CB       100.3840   31.8690   67.9200 C.3   219  ARG219      0.0307
    183  CG       100.5670   31.1930   69.2980 C.3   219  ARG219      0.0489
    184  CD        99.2420   30.6140   69.7920 C.3   219  ARG219      0.2205
    185  NE        98.7850   29.4910   68.9860 N.pl3 219  ARG219     -0.0865
    186  CZ        97.6960   28.7760   69.2400 C.cat 219  ARG219      0.5346
    187  NH1       96.9310   29.0540   70.3000 N.pl3 219  ARG219      0.1354
    188  NH2       97.3970   27.7600   68.4610 N.pl3 219  ARG219      0.1354
    189  N         93.0660   26.5890   56.8500 N.3   236  ILE236     -0.1245
    190  CA        92.1620   26.9380   57.9370 C.3   236  ILE236      0.1561
    191  C         92.9460   27.8560   58.8400 C.2   236  ILE236      0.2260
    192  O         93.9780   27.4560   59.4040 O.2   236  ILE236     -0.2867
    193  CB        91.6360   25.7220   58.7060 C.3   236  ILE236      0.0252
    194  CG1       90.9590   24.7380   57.7460 C.3   236  ILE236      0.0019
    195  CG2       90.6590   26.1570   59.8180 C.3   236  ILE236      0.0019
    196  CD1       90.6880   23.3580   58.3360 C.3   236  ILE236      0.0001
@<TRIPOS>BOND
     1   132   133    1
     2   102   103    1
     3   103   104    1
     4   103   106    1
     5   104   105    2
     6   133   136    1
     7   133   134    1
     8   136   137    1
     9   109   110    1
    10   108   106    1
    11   106   107    1
    12   134   135    2
    13   110   111    1
    14   110   113    1
    15   111   112    2
    16   113   114    1
    17    88    89    1
    18    98    97    1
    19    98    99    2
    20    97   100    1
    21    97    96    1
    22    89    92    1
    23    89    90    1
    24   100   101    1
    25   114   115   ar
    26   114   116   ar
    27   189   190    1
    28    92    93    1
    29   117   118    1
    30    96    90   am
    31    90    91    2
    32    94    93    2
    33    93    95   am
    34   194   196    1
    35   194   193    1
    36   190   193    1
    37   190   191    1
    38    64    65    1
    39   124   122   am
    40   118   119    1
    41   118   121    1
    42   131   129    1
    43   193   195    1
    44   138   139    1
    45   122   123    2
    46   122   121    1
    47    70    69   ar
    48    65    68    1
    49    65    66    1
    50   191   192    2
    51   120   119    2
    52   119   125   am
    53    68    69    1
    54    80    81    1
    55   125   126    1
    56    69    71   ar
    57   139   140    1
    58    66    67    2
    59   129   126    1
    60   129   130    1
    61   126   127    1
    62    81    84    1
    63    81    82    1
    64   140   141    2
    65    84    85    1
    66     1     2    1
    67    85    86   ar
    68    85    87   ar
    69    82    83    2
    70   127   128    2
    71     2     5    1
    72     2     3    1
    73     5     6    1
    74   142   143    1
    75     3    10   am
    76     3     4    2
    77    10    11    1
    78    72    73    1
    79   154   153    2
    80     8     7   ar
    81     6     7    1
    82     7     9   ar
    83    73    76    1
    84    73    74    1
    85   147   146    1
    86   143   146    1
    87   143   144    1
    88    76    77    1
    89   153   152    1
    90   153   155   am
    91    15    14    1
    92    15    16    1
    93   152   149    1
    94   148   144   am
    95   148   149    1
    96    11    14    1
    97    11    12    1
    98    79    77   am
    99   181   180    2
   100    12    13    2
   101    77    78    2
   102   144   145    2
   103   149   150    1
   104   150   151    2
   105    28    26   am
   106    16    17    1
   107    74    75    2
   108    17    18    2
   109    25    26    1
   110    25    22    1
   111    21    22    1
   112   180   179    1
   113    26    27    2
   114    22    23    1
   115    19    18    1
   116    18    20    1
   117   179   182    1
   118   179   178    1
   119    23    24    2
   120   182   183    1
   121   188   186    1
   122   156   157    1
   123    35    34    1
   124    35    36    1
   125   185   186    2
   126   185   184    1
   127    34    31   am
   128    37    36    2
   129   186   187    1
   130    36    38   am
   131   183   184    1
   132    42    43    1
   133    42    39    1
   134    33    30    1
   135    29    30    1
   136   160   157    1
   137   160   161    1
   138    38    39    1
   139   157   158    1
   140    31    30    1
   141    31    32    2
   142    39    40    1
   143   161   163   ar
   144   161   162   ar
   145   158   159    2
   146    62    63    1
   147    62    61    1
   148   163   165   ar
   149    41    40    2
   150    40    44   am
   151   162   164   ar
   152    61    60    1
   153    57    58    2
   154    57    56    1
   155    60    59    1
   156    59    56    1
   157   165   166   ar
   158    44    45    1
   159   164   166   ar
   160    56    55    1
   161   167   168    1
   162    55    46   am
   163   177   175    1
   164   168   171    1
   165   168   169    1
   166   174   175    2
   167   174   173    1
   168   172   171    1
   169   172   173    1
   170    46    45    1
   171    46    47    2
   172    45    48    1
   173   175   176    1
   174   169   170    2
   175    48    49    1
   176    54    52    1
   177    49    50    1
   178    52    53    1
   179    52    51    2
   180    51    50    1
