@<TRIPOS>MOLECULE
tmp/3k14A00.pdb
 107 105 0 0 0
SMALL
GASTEIGER

@<TRIPOS>ATOM
      1  N         14.7460  -32.3490  -13.7660 N.3    10  ASP10      -0.1225
      2  CA        14.0450  -31.0650  -13.6430 C.3    10  ASP10       0.1805
      3  C         14.7990  -30.1110  -12.7340 C.2    10  ASP10       0.2598
      4  O         15.5400  -30.5370  -11.8660 O.2    10  ASP10      -0.2718
      5  CB        12.6180  -31.2640  -13.1320 C.3    10  ASP10       0.1424
      6  CG        11.7150  -30.0730  -13.4180 C.2    10  ASP10       0.3668
      7  OD1       12.0480  -29.2430  -14.3040 O.co2  10  ASP10      -0.2456
      8  OD2       10.6630  -29.9480  -12.7490 O.co2  10  ASP10      -0.2456
      9  N         14.6240  -28.8150  -12.9530 N.am   11  VAL11      -0.1966
     10  CA        15.1770  -27.8160  -12.0380 C.3    11  VAL11       0.1727
     11  C         14.2140  -26.6370  -11.9780 C.2    11  VAL11       0.2616
     12  O         13.5860  -26.2990  -12.9880 O.2    11  VAL11      -0.2715
     13  CB        16.6270  -27.3590  -12.4350 C.3    11  VAL11       0.0290
     14  CG1       16.6600  -26.5780  -13.7560 C.3    11  VAL11       0.0023
     15  CG2       17.2580  -26.4990  -11.3290 C.3    11  VAL11       0.0023
     16  N         14.0980  -26.0230  -10.8000 N.am   12  HIS12      -0.1973
     17  CA        13.3080  -24.7960  -10.6530 C.3    12  HIS12       0.1656
     18  C         14.0610  -23.8260   -9.7780 C.2    12  HIS12       0.2291
     19  O         14.7680  -24.2270   -8.8650 O.2    12  HIS12      -0.2864
     20  CB        11.9800  -25.0750   -9.9610 C.3    12  HIS12       0.0771
     21  CG        10.9640  -25.7290  -10.8390 C.ar   12  HIS12       0.0820
     22  ND1        9.9870  -25.0120  -11.4940 N.ar   12  HIS12      -0.2267
     23  CD2       10.7720  -27.0270  -11.1720 C.ar   12  HIS12       0.1154
     24  CE1        9.2340  -25.8440  -12.1960 C.ar   12  HIS12       0.1986
     25  NE2        9.6910  -27.0710  -12.0180 N.ar   12  HIS12      -0.2212
     26  N          4.9060  -22.5820  -13.3000 N.3    36  HIS36      -0.1226
     27  CA         3.5130  -22.3850  -13.6990 C.3    36  HIS36       0.1752
     28  C          2.5820  -23.2130  -12.8020 C.2    36  HIS36       0.2596
     29  O          1.5680  -22.7090  -12.3010 O.2    36  HIS36      -0.2718
     30  CB         3.3530  -22.7640  -15.1750 C.3    36  HIS36       0.0759
     31  CG         1.9590  -22.6160  -15.7000 C.ar   36  HIS36       0.0818
     32  ND1        1.3850  -21.3900  -15.9620 N.ar   36  HIS36      -0.2268
     33  CD2        1.0320  -23.5460  -16.0340 C.ar   36  HIS36       0.1154
     34  CE1        0.1580  -21.5690  -16.4230 C.ar   36  HIS36       0.1986
     35  NE2       -0.0790  -22.8680  -16.4810 N.ar   36  HIS36      -0.2212
     36  N          2.9650  -24.4670  -12.5750 N.am   37  SER37      -0.1952
     37  CA         2.2480  -25.3560  -11.6610 C.3    37  SER37       0.1924
     38  C          2.7360  -25.0900  -10.2380 C.2    37  SER37       0.2314
     39  O          3.3210  -24.0450   -9.9680 O.2    37  SER37      -0.2863
     40  CB         2.4910  -26.8140  -12.0450 C.3    37  SER37       0.2116
     41  OG         3.8270  -27.2220  -11.7660 O.3    37  SER37      -0.2180
     42  N          7.9160  -33.7360  -11.1950 N.3    44  HIS44      -0.1241
     43  CA         8.1210  -33.4930  -12.6290 C.3    44  HIS44       0.1621
     44  C          9.1750  -34.4210  -13.2170 C.2    44  HIS44       0.2264
     45  O          8.9640  -35.0060  -14.2930 O.2    44  HIS44      -0.2867
     46  CB         8.4780  -32.0260  -12.9090 C.3    44  HIS44       0.0745
     47  CG         7.3780  -31.0760  -12.5610 C.ar   44  HIS44       0.0817
     48  ND1        7.5460  -29.7080  -12.5940 N.ar   44  HIS44      -0.2268
     49  CD2        6.1080  -31.2900  -12.1450 C.ar   44  HIS44       0.1154
     50  CE1        6.4240  -29.1190  -12.2140 C.ar   44  HIS44       0.1986
     51  NE2        5.5340  -30.0560  -11.9420 N.ar   44  HIS44      -0.2212
     52  N          6.6040  -34.2260  -20.2820 N.3    59  ILE59      -0.1231
     53  CA         5.5930  -33.5320  -19.4980 C.3    59  ILE59       0.1692
     54  C          5.0220  -32.3060  -20.2420 C.2    59  ILE59       0.2592
     55  O          3.8360  -32.0400  -20.1650 O.2    59  ILE59      -0.2718
     56  CB         6.1560  -33.2210  -18.0570 C.3    59  ILE59       0.0266
     57  CG1        5.0200  -32.8550  -17.0970 C.3    59  ILE59       0.0019
     58  CG2        7.3570  -32.2250  -18.1330 C.3    59  ILE59       0.0020
     59  CD1        5.4520  -32.7090  -15.6310 C.3    59  ILE59       0.0001
     60  N          5.8740  -31.5940  -20.9810 N.am   60  GLY60      -0.1957
     61  CA         5.4480  -30.4660  -21.8260 C.3    60  GLY60       0.1869
     62  C          4.4400  -30.8500  -22.8970 C.2    60  GLY60       0.2309
     63  O          3.4940  -30.0980  -23.1700 O.2    60  GLY60      -0.2863
     64  N          1.1380  -31.8920  -20.6830 N.3    63  PHE63      -0.1227
     65  CA         0.6120  -30.8630  -19.7770 C.3    63  PHE63       0.1736
     66  C          1.3330  -29.5220  -20.0100 C.2    63  PHE63       0.2596
     67  O          2.2930  -29.2020  -19.3020 O.2    63  PHE63      -0.2718
     68  CB         0.8250  -31.2610  -18.3060 C.3    63  PHE63       0.0547
     69  CG         0.4260  -32.6840  -17.9640 C.ar   63  PHE63      -0.0202
     70  CD1       -0.8980  -33.1010  -18.0750 C.ar   63  PHE63      -0.0042
     71  CD2        1.3750  -33.5860  -17.4730 C.ar   63  PHE63      -0.0042
     72  CE1       -1.2670  -34.4090  -17.7480 C.ar   63  PHE63      -0.0003
     73  CE2        1.0140  -34.8980  -17.1260 C.ar   63  PHE63      -0.0003
     74  CZ        -0.3130  -35.3020  -17.2650 C.ar   63  PHE63      -0.0000
     75  N          0.8630  -28.7460  -20.9780 N.am   64  SER64      -0.1938
     76  CA         1.5420  -27.5060  -21.4240 C.3    64  SER64       0.2055
     77  C          1.6860  -26.4010  -20.3540 C.2    64  SER64       0.2643
     78  O          0.7070  -26.0250  -19.7000 O.2    64  SER64      -0.2714
     79  CB         0.8350  -26.9450  -22.6630 C.3    64  SER64       0.2130
     80  OG         1.5830  -25.8990  -23.2780 O.3    64  SER64      -0.2179
     81  N          2.9100  -25.8860  -20.2000 N.am   65  ASP65      -0.1971
     82  CA         3.2040  -24.7780  -19.2730 C.3    65  ASP65       0.1709
     83  C          2.6340  -23.4360  -19.7250 C.2    65  ASP65       0.2293
     84  O          2.6970  -22.4440  -18.9870 O.2    65  ASP65      -0.2864
     85  CB         4.7070  -24.6210  -19.0750 C.3    65  ASP65       0.1436
     86  CG         5.3550  -25.7350  -18.3430 C.2    65  ASP65       0.3671
     87  OD1        4.6570  -26.5030  -17.6130 O.co2  65  ASP65      -0.2456
     88  OD2        6.6250  -25.8390  -18.4110 O.co2  65  ASP65      -0.2456
     89  N         -3.3080  -25.4350  -15.9970 N.3    70  PHE70      -0.1241
     90  CA        -2.2810  -25.9950  -15.1280 C.3    70  PHE70       0.1605
     91  C         -1.6200  -24.9430  -14.2290 C.2    70  PHE70       0.2264
     92  O         -0.5720  -25.2050  -13.6390 O.2    70  PHE70      -0.2867
     93  CB        -1.2180  -26.7520  -15.9460 C.3    70  PHE70       0.0534
     94  CG        -1.7790  -27.8420  -16.8300 C.ar   70  PHE70      -0.0203
     95  CD1       -2.4740  -28.9190  -16.2830 C.ar   70  PHE70      -0.0042
     96  CD2       -1.5960  -27.7950  -18.2110 C.ar   70  PHE70      -0.0042
     97  CE1       -2.9910  -29.9240  -17.0960 C.ar   70  PHE70      -0.0003
     98  CE2       -2.1110  -28.7990  -19.0360 C.ar   70  PHE70      -0.0003
     99  CZ        -2.8050  -29.8660  -18.4770 C.ar   70  PHE70      -0.0000
    100  N         -1.0000  -34.4110  -11.7380 N.3    78  LEU78      -0.1245
    101  CA        -0.2740  -34.6340  -12.9940 C.3    78  LEU78       0.1561
    102  C          0.4290  -35.9970  -13.0290 C.2    78  LEU78       0.2260
    103  O          0.3650  -36.7240  -14.0310 O.2    78  LEU78      -0.2867
    104  CB         0.7150  -33.4870  -13.2700 C.3    78  LEU78       0.0270
    105  CG         0.1140  -32.0690  -13.3340 C.3    78  LEU78       0.0019
    106  CD1        1.2260  -31.0440  -13.5710 C.3    78  LEU78       0.0001
    107  CD2       -0.9630  -31.9430  -14.3780 C.3    78  LEU78       0.0001
@<TRIPOS>BOND
     1    80    79    1
     2    63    62    2
     3    62    61    1
     4    79    76    1
     5    61    60    1
     6    76    75    1
     7    76    77    1
     8    60    54   am
     9    75    66   am
    10    64    65    1
    11    77    81   am
    12    77    78    2
    13    52    53    1
    14    54    55    2
    15    54    53    1
    16    81    82    1
    17    66    65    1
    18    66    67    2
    19    65    68    1
    20    83    82    1
    21    83    84    2
    22    53    56    1
    23    82    85    1
    24    85    86    1
    25    98    99   ar
    26    98    96   ar
    27    99    97   ar
    28    88    86   ar
    29    86    87   ar
    30    68    69    1
    31    96    94   ar
    32    58    56    1
    33    70    69   ar
    34    70    72   ar
    35    56    57    1
    36    69    71   ar
    37    72    74   ar
    38    71    73   ar
    39    74    73   ar
    40    57    59    1
    41    97    95   ar
    42    94    95   ar
    43    94    93    1
    44    35    34   ar
    45    35    33   ar
    46    34    32   ar
    47    33    31   ar
    48    89    90    1
    49    32    31   ar
    50    93    90    1
    51    31    30    1
    52    30    27    1
    53    90    91    1
    54   107   105    1
    55     7     6   ar
    56    45    44    2
    57    91    92    2
    58   103   102    2
    59     1     2    1
    60    14    13    1
    61    27    26    1
    62    27    28    1
    63     2     5    1
    64     2     3    1
    65   106   105    1
    66     6     5    1
    67     6     8   ar
    68   105   104    1
    69   104   101    1
    70    44    43    1
    71   102   101    1
    72   101   100    1
    73    12    11    2
    74     9     3   am
    75     9    10    1
    76    46    43    1
    77    46    47    1
    78    28    36   am
    79    28    29    2
    80     3     4    2
    81    43    42    1
    82    48    47   ar
    83    48    50   ar
    84    36    37    1
    85    47    49   ar
    86    13    10    1
    87    13    15    1
    88    50    51   ar
    89    24    25   ar
    90    24    22   ar
    91    49    51   ar
    92    40    41    1
    93    40    37    1
    94    10    11    1
    95    25    23   ar
    96    11    16   am
    97    37    38    1
    98    22    21   ar
    99    23    21   ar
   100    21    20    1
   101    16    17    1
   102    17    20    1
   103    17    18    1
   104    38    39    2
   105    18    19    2
