@<TRIPOS>MOLECULE
tmp/3k1eA00.pdb
 244 237 0 0 0
SMALL
GASTEIGER

@<TRIPOS>ATOM
      1  N         16.6290   49.6270   29.1260 N.3    14  PHE14      -0.1241
      2  CA        15.8700   49.1550   27.9810 C.3    14  PHE14       0.1605
      3  C         14.4860   49.7890   27.9090 C.2    14  PHE14       0.2264
      4  O         14.0470   50.1970   26.8380 O.2    14  PHE14      -0.2867
      5  CB        15.7200   47.6350   28.0580 C.3    14  PHE14       0.0534
      6  CG        15.1060   47.0220   26.8390 C.ar   14  PHE14      -0.0203
      7  CD1       15.7210   47.1360   25.6050 C.ar   14  PHE14      -0.0042
      8  CD2       13.9150   46.3240   26.9240 C.ar   14  PHE14      -0.0042
      9  CE1       15.1510   46.5680   24.4790 C.ar   14  PHE14      -0.0003
     10  CE2       13.3490   45.7530   25.8070 C.ar   14  PHE14      -0.0003
     11  CZ        13.9650   45.8750   24.5820 C.ar   14  PHE14      -0.0000
     12  N         14.8660   53.3940   27.0050 N.3    17  ALA17      -0.1231
     13  CA        15.3150   53.4330   25.6140 C.3    17  ALA17       0.1694
     14  C         14.1970   53.1610   24.5960 C.2    17  ALA17       0.2591
     15  O         14.2450   53.6700   23.4720 O.2    17  ALA17      -0.2718
     16  CB        16.4460   52.4410   25.4070 C.3    17  ALA17       0.0304
     17  N         13.2060   52.3580   24.9810 N.am   18  MET18      -0.1979
     18  CA        12.0830   52.0450   24.0940 C.3    18  MET18       0.1605
     19  C         10.9360   53.0590   24.1680 C.2    18  MET18       0.2287
     20  O         10.0130   52.9970   23.3530 O.2    18  MET18      -0.2864
     21  CB        11.5570   50.6390   24.3900 C.3    18  MET18       0.0413
     22  CG        12.5630   49.5360   24.0510 C.3    18  MET18       0.0598
     23  SD        12.9030   49.4520   22.2820 S.3    18  MET18      -0.1393
     24  CE        11.3870   48.7250   21.6600 C.3    18  MET18       0.0692
     25  N          9.9880   54.8940   20.9770 N.3    21  LEU21      -0.1245
     26  CA         9.4860   53.9700   19.9620 C.3    21  LEU21       0.1561
     27  C          8.0510   53.5700   20.2650 C.2    21  LEU21       0.2260
     28  O          7.2290   53.4550   19.3530 O.2    21  LEU21      -0.2867
     29  CB        10.3480   52.7090   19.8660 C.3    21  LEU21       0.0270
     30  CG        11.8530   52.8850   19.6560 C.3    21  LEU21       0.0019
     31  CD1       12.4390   51.5500   19.1440 C.3    21  LEU21       0.0001
     32  CD2       12.1820   54.0230   18.7160 C.3    21  LEU21       0.0001
     33  N          7.1500   48.0520   16.6830 N.3    57  LEU57      -0.1231
     34  CA         8.3350   48.1260   17.5510 C.3    57  LEU57       0.1693
     35  C          9.5600   47.4600   16.9450 C.2    57  LEU57       0.2592
     36  O         10.6740   47.9750   17.0730 O.2    57  LEU57      -0.2718
     37  CB         8.0490   47.4990   18.9120 C.3    57  LEU57       0.0284
     38  CG         7.1230   48.2170   19.8830 C.3    57  LEU57       0.0019
     39  CD1        6.9860   47.3300   21.1150 C.3    57  LEU57       0.0001
     40  CD2        7.5880   49.6500   20.2380 C.3    57  LEU57       0.0001
     41  N          9.3640   46.3150   16.2940 N.am   58  PHE58      -0.1976
     42  CA        10.4590   45.6320   15.6100 C.3    58  PHE58       0.1639
     43  C         11.0330   46.5280   14.5290 C.2    58  PHE58       0.2290
     44  O         12.2510   46.6510   14.3990 O.2    58  PHE58      -0.2864
     45  CB        10.0050   44.3000   15.0050 C.3    58  PHE58       0.0560
     46  CG         9.6850   43.2240   16.0290 C.ar   58  PHE58      -0.0200
     47  CD1       10.5840   42.9050   17.0430 C.ar   58  PHE58      -0.0042
     48  CD2        8.5010   42.5030   15.9410 C.ar   58  PHE58      -0.0042
     49  CE1       10.2980   41.8940   17.9700 C.ar   58  PHE58      -0.0003
     50  CE2        8.1980   41.4840   16.8590 C.ar   58  PHE58      -0.0003
     51  CZ         9.1090   41.1800   17.8770 C.ar   58  PHE58      -0.0000
     52  N         12.8100   49.7190   16.0410 N.3    61  ALA61      -0.1231
     53  CA        14.0330   49.2620   16.7120 C.3    61  ALA61       0.1694
     54  C         15.1130   48.7940   15.7420 C.2    61  ALA61       0.2592
     55  O         16.2170   48.4680   16.1720 O.2    61  ALA61      -0.2718
     56  CB        13.7060   48.1150   17.6940 C.3    61  ALA61       0.0304
     57  N         14.7960   48.7480   14.4500 N.am   62  LYS62      -0.1966
     58  CA        15.7420   48.3170   13.4270 C.3    62  LYS62       0.1728
     59  C         16.2800   46.9160   13.7260 C.2    62  LYS62       0.2616
     60  O         17.4880   46.6780   13.6750 O.2    62  LYS62      -0.2715
     61  CB        16.8820   49.3380   13.2790 C.3    62  LYS62       0.0311
     62  CG        16.4530   50.7670   12.8300 C.3    62  LYS62       0.0038
     63  CD        17.5230   51.8470   13.1280 C.3    62  LYS62       0.0206
     64  CE        17.5830   52.4030   14.5610 C.3    62  LYS62       0.1093
     65  NZ        17.9170   51.4710   15.6450 N.3    62  LYS62      -0.1314
     66  N         15.3720   45.9910   14.0460 N.am   63  VAL63      -0.1977
     67  CA        15.7490   44.5880   14.2280 C.3    63  VAL63       0.1596
     68  C         15.0860   43.7030   13.1800 C.2    63  VAL63       0.2287
     69  O         14.7860   42.5420   13.4340 O.2    63  VAL63      -0.2864
     70  CB        15.4790   44.0700   15.6630 C.3    63  VAL63       0.0276
     71  CG1       16.3830   44.8160   16.6410 C.3    63  VAL63       0.0022
     72  CG2       13.9940   44.1710   16.0510 C.3    63  VAL63       0.0022
     73  N         16.1750   37.6140   14.0150 N.3    72  LEU72      -0.1231
     74  CA        16.3320   37.2270   15.4060 C.3    72  LEU72       0.1693
     75  C         17.7590   37.4480   15.9380 C.2    72  LEU72       0.2591
     76  O         17.9500   37.6680   17.1480 O.2    72  LEU72      -0.2718
     77  CB        15.8790   35.7750   15.6100 C.3    72  LEU72       0.0284
     78  CG        14.3820   35.5130   15.4080 C.3    72  LEU72       0.0019
     79  CD1       14.1240   34.0030   15.4720 C.3    72  LEU72       0.0001
     80  CD2       13.5130   36.2580   16.4530 C.3    72  LEU72       0.0001
     81  N         18.7490   37.4080   15.0540 N.am   73  GLU73      -0.1979
     82  CA        20.1320   37.7120   15.4410 C.3    73  GLU73       0.1602
     83  C         20.2900   39.2000   15.7220 C.2    73  GLU73       0.2287
     84  O         20.8940   39.5810   16.7300 O.2    73  GLU73      -0.2864
     85  CB        21.1390   37.2830   14.3710 C.3    73  GLU73       0.0415
     86  CG        21.0010   35.8150   13.9600 C.3    73  GLU73       0.1163
     87  CD        21.9450   35.3870   12.8680 C.2    73  GLU73       0.3649
     88  OE1       22.5920   36.2610   12.2580 O.co2  73  GLU73      -0.2457
     89  OE2       22.0390   34.1640   12.6070 O.co2  73  GLU73      -0.2457
     90  N         17.9440   41.1140   16.6330 N.3    75  LEU75      -0.1231
     91  CA        17.1700   41.3540   17.8460 C.3    75  LEU75       0.1693
     92  C         17.9950   40.9980   19.0850 C.2    75  LEU75       0.2592
     93  O         18.0960   41.7990   20.0250 O.2    75  LEU75      -0.2718
     94  CB        15.8440   40.5770   17.8350 C.3    75  LEU75       0.0284
     95  CG        15.0550   40.5710   19.1390 C.3    75  LEU75       0.0019
     96  CD1       14.6380   41.9770   19.5160 C.3    75  LEU75       0.0001
     97  CD2       13.8370   39.6250   19.0340 C.3    75  LEU75       0.0001
     98  N         18.6130   39.8200   19.0770 N.am   76  HIS76      -0.1976
     99  CA        19.4680   39.4320   20.2000 C.3    76  HIS76       0.1656
    100  C         20.6140   40.4210   20.4170 C.2    76  HIS76       0.2291
    101  O         20.8810   40.8230   21.5500 O.2    76  HIS76      -0.2864
    102  CB        20.0080   38.0140   20.0160 C.3    76  HIS76       0.0771
    103  CG        20.5860   37.4300   21.2660 C.ar   76  HIS76       0.0820
    104  ND1       21.9130   37.0800   21.3770 N.ar   76  HIS76      -0.2267
    105  CD2       20.0210   37.1580   22.4670 C.ar   76  HIS76       0.1154
    106  CE1       22.1420   36.6110   22.5930 C.ar   76  HIS76       0.1986
    107  NE2       21.0110   36.6480   23.2740 N.ar   76  HIS76      -0.2212
    108  N         20.6770   43.4990   19.7320 N.3    78  ALA78      -0.1231
    109  CA        20.1130   44.7750   20.1860 C.3    78  ALA78       0.1694
    110  C         19.7220   44.7700   21.6580 C.2    78  ALA78       0.2591
    111  O         19.6980   45.8180   22.2930 O.2    78  ALA78      -0.2718
    112  CB        18.8900   45.1500   19.3330 C.3    78  ALA78       0.0304
    113  N         19.4040   43.6030   22.1990 N.am   79  LEU79      -0.1980
    114  CA        18.9060   43.5220   23.5750 C.3    79  LEU79       0.1596
    115  C         19.9640   43.8620   24.6160 C.2    79  LEU79       0.2287
    116  O         21.1550   43.7220   24.3680 O.2    79  LEU79      -0.2864
    117  CB        18.3420   42.1290   23.8620 C.3    79  LEU79       0.0297
    118  CG        17.1010   41.7450   23.0740 C.3    79  LEU79       0.0022
    119  CD1       16.7350   40.2910   23.3210 C.3    79  LEU79       0.0001
    120  CD2       15.9380   42.6840   23.4040 C.3    79  LEU79       0.0001
    121  N         20.0420   40.6630   29.5350 N.3    83  MET83      -0.1245
    122  CA        19.0670   39.7260   28.9720 C.3    83  MET83       0.1570
    123  C         19.6490   38.6870   28.0130 C.2    83  MET83       0.2261
    124  O         18.8890   37.9210   27.4260 O.2    83  MET83      -0.2867
    125  CB        17.9900   40.4920   28.2190 C.3    83  MET83       0.0387
    126  CG        17.0430   41.2050   29.1100 C.3    83  MET83       0.0595
    127  SD        15.8300   42.0010   28.0960 S.3    83  MET83      -0.1393
    128  CE        14.8340   40.5980   27.5760 C.3    83  MET83       0.0692
    129  N         16.9840   35.8770   26.9160 N.3    87  ALA87      -0.1231
    130  CA        16.4220   35.9840   25.5770 C.3    87  ALA87       0.1694
    131  C         16.7040   34.7270   24.7710 C.2    87  ALA87       0.2591
    132  O         15.8350   34.2730   24.0400 O.2    87  ALA87      -0.2718
    133  CB        16.9650   37.2320   24.8340 C.3    87  ALA87       0.0304
    134  N         17.9090   34.1660   24.8980 N.am   88  LEU88      -0.1980
    135  CA        18.2480   32.9400   24.1730 C.3    88  LEU88       0.1596
    136  C         17.3140   31.7800   24.5190 C.2    88  LEU88       0.2287
    137  O         16.8410   31.0800   23.6310 O.2    88  LEU88      -0.2864
    138  CB        19.6850   32.5040   24.4490 C.3    88  LEU88       0.0297
    139  CG        20.8170   33.1960   23.6910 C.3    88  LEU88       0.0022
    140  CD1       22.1330   32.5460   24.1190 C.3    88  LEU88       0.0001
    141  CD2       20.6310   33.1210   22.1740 C.3    88  LEU88       0.0001
    142  N         14.3230   32.0450   25.9340 N.3    90  MET90      -0.1230
    143  CA        12.9730   32.4710   25.6130 C.3    90  MET90       0.1702
    144  C         12.6820   32.2820   24.1190 C.2    90  MET90       0.2593
    145  O         11.5720   31.9230   23.7290 O.2    90  MET90      -0.2718
    146  CB        12.8200   33.9450   26.0010 C.3    90  MET90       0.0401
    147  CG        11.4300   34.4960   25.8690 C.3    90  MET90       0.0596
    148  SD        11.3800   36.2450   26.2860 S.3    90  MET90      -0.1393
    149  CE        11.7530   36.1920   28.0490 C.3    90  MET90       0.0692
    150  N         13.6960   32.5130   23.2900 N.am   91  GLY91      -0.1942
    151  CA        13.5680   32.4360   21.8300 C.3    91  GLY91       0.2014
    152  C         13.8550   31.1010   21.1420 C.2    91  GLY91       0.2639
    153  O         13.5860   30.9570   19.9410 O.2    91  GLY91      -0.2714
    154  N         14.4020   30.1350   21.8770 N.am   92  LYS92      -0.1963
    155  CA        14.9640   28.9170   21.2690 C.3    92  LYS92       0.1728
    156  C         13.9240   27.9600   20.6350 C.2    92  LYS92       0.2616
    157  O         14.2880   27.1720   19.7470 O.2    92  LYS92      -0.2715
    158  CB        15.8720   28.1610   22.2680 C.3    92  LYS92       0.0311
    159  CG        15.1370   27.4840   23.4210 C.3    92  LYS92       0.0038
    160  CD        16.0890   26.8410   24.4380 C.3    92  LYS92       0.0206
    161  CE        15.4120   26.6620   25.7840 C.3    92  LYS92       0.1093
    162  NZ        16.2920   26.0150   26.8190 N.3    92  LYS92      -0.1314
    163  N         12.6660   28.0250   21.0790 N.am   93  ARG93      -0.1977
    164  CA        11.5700   27.2790   20.4630 C.3    93  ARG93       0.1597
    165  C         10.5650   28.2040   19.7770 C.2    93  ARG93       0.2287
    166  O          9.3730   27.9080   19.6960 O.2    93  ARG93      -0.2864
    167  CB        10.8830   26.4000   21.5080 C.3    93  ARG93       0.0334
    168  CG        11.8010   25.3280   22.0830 C.3    93  ARG93       0.0492
    169  CD        12.0980   24.2370   21.0460 C.3    93  ARG93       0.2205
    170  NE        13.0750   23.2490   21.5100 N.pl3  93  ARG93      -0.0865
    171  CZ        14.4020   23.3630   21.4010 C.cat  93  ARG93       0.5346
    172  NH1       14.9680   24.4340   20.8430 N.pl3  93  ARG93       0.1354
    173  NH2       15.1690   22.3890   21.8740 N.pl3  93  ARG93       0.1354
    174  N         11.5510   29.9470   16.6110 N.3    95  LEU95      -0.1245
    175  CA        12.4430   30.4050   15.5420 C.3    95  LEU95       0.1561
    176  C         11.7570   30.7640   14.2170 C.2    95  LEU95       0.2260
    177  O         12.2810   31.5770   13.4320 O.2    95  LEU95      -0.2867
    178  CB        13.5380   29.3770   15.2830 C.3    95  LEU95       0.0270
    179  CG        14.4470   29.0520   16.4580 C.3    95  LEU95       0.0019
    180  CD1       15.5040   27.9960   16.0260 C.3    95  LEU95       0.0001
    181  CD2       15.1140   30.3240   17.0030 C.3    95  LEU95       0.0001
    182  N          5.7620   37.1970   20.0040 N.3   110  HIS110     -0.1241
    183  CA         5.5060   37.6080   21.3890 C.3   110  HIS110      0.1621
    184  C          4.7420   36.5550   22.1830 C.2   110  HIS110      0.2264
    185  O          5.0660   36.2990   23.3480 O.2   110  HIS110     -0.2867
    186  CB         4.7810   38.9570   21.4330 C.3   110  HIS110      0.0745
    187  CG         5.6890   40.1180   21.2170 C.ar  110  HIS110      0.0817
    188  ND1        6.3100   40.7670   22.2610 N.ar  110  HIS110     -0.2268
    189  CD2        6.1200   40.7200   20.0860 C.ar  110  HIS110      0.1154
    190  CE1        7.0580   41.7450   21.7810 C.ar  110  HIS110      0.1986
    191  NE2        6.9500   41.7480   20.4660 N.ar  110  HIS110     -0.2212
    192  N          7.2100   33.6540   22.9150 N.3   113  TRP113     -0.1241
    193  CA         8.1040   34.0960   23.9840 C.3   113  TRP113      0.1605
    194  C          7.4280   34.0620   25.3490 C.2   113  TRP113      0.2264
    195  O          7.9860   33.5520   26.3110 O.2   113  TRP113     -0.2867
    196  CB         8.6120   35.5180   23.7070 C.3   113  TRP113      0.0550
    197  CG         9.4720   35.6140   22.4680 C.ar  113  TRP113      0.0003
    198  CD1       10.1770   34.6040   21.8800 C.ar  113  TRP113      0.0946
    199  CD2        9.7610   36.7960   21.7080 C.ar  113  TRP113      0.0152
    200  NE1       10.8310   35.0650   20.7660 N.ar  113  TRP113     -0.2442
    201  CE2       10.6160   36.4140   20.6520 C.ar  113  TRP113      0.0810
    202  CE3        9.3620   38.1330   21.7990 C.ar  113  TRP113      0.0012
    203  CZ2       11.0830   37.3220   19.6990 C.ar  113  TRP113      0.0191
    204  CZ3        9.8450   39.0410   20.8570 C.ar  113  TRP113      0.0001
    205  CH2       10.6750   38.6260   19.8120 C.ar  113  TRP113      0.0015
    206  N          9.2370   37.2730   30.2840 N.3   121  TYR121     -0.1227
    207  CA         8.5740   37.9610   29.2040 C.3   121  TYR121      0.1736
    208  C          8.0180   39.2820   29.7330 C.2   121  TYR121      0.2595
    209  O          7.4720   39.3410   30.8360 O.2   121  TYR121     -0.2718
    210  CB         7.4310   37.1480   28.5470 C.3   121  TYR121      0.0548
    211  CG         6.7720   37.9910   27.4860 C.ar  121  TYR121     -0.0200
    212  CD1        7.3310   38.0940   26.2140 C.ar  121  TYR121     -0.0009
    213  CD2        5.6450   38.7670   27.7730 C.ar  121  TYR121     -0.0009
    214  CE1        6.7850   38.9050   25.2510 C.ar  121  TYR121      0.0417
    215  CE2        5.0910   39.5930   26.8100 C.ar  121  TYR121      0.0417
    216  CZ         5.6740   39.6660   25.5570 C.ar  121  TYR121      0.1957
    217  OH         5.1510   40.4680   24.5940 O.3   121  TYR121     -0.2866
    218  N          8.1960   40.3340   28.9410 N.am  122  PHE122     -0.1962
    219  CA         7.5030   41.6040   29.1450 C.3   122  PHE122      0.1771
    220  C          7.2950   42.2600   27.7800 C.2   122  PHE122      0.2619
    221  O          7.9740   41.9170   26.8020 O.2   122  PHE122     -0.2715
    222  CB         8.2860   42.5390   30.0820 C.3   122  PHE122      0.0574
    223  CG         9.6200   42.9480   29.5390 C.ar  122  PHE122     -0.0200
    224  CD1       10.7360   42.1370   29.7140 C.ar  122  PHE122     -0.0042
    225  CD2        9.7670   44.1450   28.8360 C.ar  122  PHE122     -0.0042
    226  CE1       11.9790   42.5040   29.1900 C.ar  122  PHE122     -0.0003
    227  CE2       10.9990   44.5150   28.3120 C.ar  122  PHE122     -0.0003
    228  CZ        12.1080   43.7010   28.4910 C.ar  122  PHE122     -0.0000
    229  N          6.3430   43.1850   27.7140 N.am  123  LEU123     -0.1963
    230  CA         6.1310   43.9950   26.5060 C.3   123  LEU123      0.1728
    231  C          6.3080   45.4660   26.8270 C.2   123  LEU123      0.2616
    232  O          5.6840   45.9820   27.7430 O.2   123  LEU123     -0.2715
    233  CB         4.7380   43.7580   25.9150 C.3   123  LEU123      0.0311
    234  CG         4.3540   44.5520   24.6600 C.3   123  LEU123      0.0022
    235  CD1        5.2880   44.2760   23.4970 C.3   123  LEU123      0.0001
    236  CD2        2.9060   44.2340   24.2960 C.3   123  LEU123      0.0001
    237  N          7.1900   46.1130   26.0710 N.am  124  ILE124     -0.1977
    238  CA         7.3950   47.5610   26.1100 C.3   124  ILE124      0.1596
    239  C          6.0820   48.3070   25.8320 C.2   124  ILE124      0.2287
    240  O          5.4270   48.0160   24.8410 O.2   124  ILE124     -0.2864
    241  CB         8.3930   47.9800   24.9830 C.3   124  ILE124      0.0276
    242  CG1        9.7720   47.3410   25.1900 C.3   124  ILE124      0.0022
    243  CG2        8.4710   49.4800   24.8770 C.3   124  ILE124      0.0022
    244  CD1       10.4230   47.6780   26.5230 C.3   124  ILE124      0.0001
@<TRIPOS>BOND
     1    88    87   ar
     2    89    87   ar
     3    62    63    1
     4    62    61    1
     5    87    86    1
     6    63    64    1
     7    68    69    2
     8    68    67    1
     9    61    58    1
    10    58    59    1
    11    58    57    1
    12   177   176    2
    13    60    59    2
    14    59    66   am
    15    86    85    1
    16    73    74    1
    17    66    67    1
    18   176   175    1
    19    67    70    1
    20    85    82    1
    21    44    43    2
    22    57    54   am
    23    43    42    1
    24    64    65    1
    25    45    42    1
    26    45    46    1
    27    81    82    1
    28    81    75   am
    29   178   175    1
    30   178   179    1
    31    74    77    1
    32    74    75    1
    33    78    79    1
    34    78    77    1
    35    78    80    1
    36    82    83    1
    37   175   174    1
    38    42    41    1
    39    70    72    1
    40    70    71    1
    41    83    84    2
    42    54    55    2
    43    54    53    1
    44    75    76    2
    45    48    46   ar
    46    48    50   ar
    47   180   179    1
    48    46    47   ar
    49    52    53    1
    50    41    35   am
    51   179   181    1
    52    90    91    1
    53    33    34    1
    54    53    56    1
    55    50    51   ar
    56    35    36    2
    57    35    34    1
    58    47    49   ar
    59    34    37    1
    60    94    91    1
    61    94    95    1
    62    91    92    1
    63    51    49   ar
    64    32    30    1
    65    37    38    1
    66    97    95    1
    67    98    92   am
    68    98    99    1
    69    92    93    2
    70    95    96    1
    71    31    30    1
    72   112   109    1
    73    28    27    2
    74    30    29    1
    75   166   165    2
    76   203   205   ar
    77   203   201   ar
    78   108   109    1
    79   157   156    2
    80   165   164    1
    81   205   204   ar
    82    29    26    1
    83    38    40    1
    84    38    39    1
    85   153   152    2
    86    26    27    1
    87    26    25    1
    88   182   183    1
    89   102    99    1
    90   102   103    1
    91   189   191   ar
    92   189   187   ar
    93   109   110    1
    94    99   100    1
    95   100   101    2
    96   164   163    1
    97   164   167    1
    98   191   190   ar
    99   156   163   am
   100   156   155    1
   101   201   200   ar
   102   201   199   ar
   103   200   198   ar
   104   172   171    1
   105   204   202   ar
   106   169   170    1
   107   169   168    1
   108   152   151    1
   109   152   154   am
   110   187   186    1
   111   187   188   ar
   112   103   104   ar
   113   103   105   ar
   114   155   154    1
   115   155   158    1
   116   104   106   ar
   117   183   186    1
   118   183   184    1
   119   171   170    2
   120   171   173    1
   121   167   168    1
   122   110   113   am
   123   110   111    2
   124    24    23    1
   125   199   202   ar
   126   199   197   ar
   127   190   188   ar
   128   151   150    1
   129   198   197   ar
   130   141   139    1
   131   184   185    2
   132   113   114    1
   133   158   159    1
   134    23    22    1
   135   105   107   ar
   136   197   196    1
   137   106   107   ar
   138   192   193    1
   139   118   119    1
   140   118   120    1
   141   118   117    1
   142   150   144   am
   143    20    19    2
   144   159   160    1
   145    15    14    2
   146   235   234    1
   147   114   117    1
   148   114   115    1
   149   137   136    2
   150   139   140    1
   151   139   138    1
   152   196   193    1
   153   145   144    2
   154   193   194    1
   155   132   131    2
   156    22    21    1
   157    18    19    1
   158    18    21    1
   159    18    17    1
   160   144   143    1
   161   135   138    1
   162   135   136    1
   163   135   134    1
   164   236   234    1
   165   116   115    2
   166   160   161    1
   167     9    11   ar
   168     9     7   ar
   169    11    10   ar
   170   217   216    1
   171    14    17   am
   172    14    13    1
   173   234   233    1
   174   131   134   am
   175   131   130    1
   176   133   130    1
   177   240   239    2
   178   243   241    1
   179   241   242    1
   180   241   238    1
   181   242   244    1
   182   214   216   ar
   183   214   212   ar
   184   194   195    2
   185    16    13    1
   186   216   215   ar
   187   130   129    1
   188     7     6   ar
   189   143   142    1
   190   143   146    1
   191    13    12    1
   192   161   162    1
   193    10     8   ar
   194   239   238    1
   195   147   146    1
   196   147   148    1
   197   233   230    1
   198   237   238    1
   199   237   231   am
   200   212   211   ar
   201   148   149    1
   202   230   231    1
   203   230   229    1
   204   221   220    2
   205   215   213   ar
   206   231   232    2
   207     4     3    2
   208     6     8   ar
   209     6     5    1
   210   124   123    2
   211   211   213   ar
   212   211   210    1
   213   128   127    1
   214   229   220   am
   215   220   219    1
   216     3     2    1
   217     2     5    1
   218     2     1    1
   219   123   122    1
   220   127   126    1
   221   125   122    1
   222   125   126    1
   223   227   228   ar
   224   227   225   ar
   225   228   226   ar
   226   210   207    1
   227   225   223   ar
   228   218   219    1
   229   218   208   am
   230   122   121    1
   231   219   222    1
   232   226   224   ar
   233   207   208    1
   234   207   206    1
   235   223   224   ar
   236   223   222    1
   237   208   209    2
