@<TRIPOS>MOLECULE
tmp/3k1gC00.pdb
 162 149 0 0 0
SMALL
GASTEIGER

@<TRIPOS>ATOM
      1  N         71.6990  -15.3010   77.6160 N.3    19  PHE19      -0.1241
      2  CA        71.4580  -15.6630   76.2280 C.3    19  PHE19       0.1605
      3  C         71.5680  -14.3970   75.3960 C.2    19  PHE19       0.2264
      4  O         70.8660  -13.4190   75.6500 O.2    19  PHE19      -0.2867
      5  CB        70.0590  -16.2790   76.0920 C.3    19  PHE19       0.0534
      6  CG        69.7350  -16.7740   74.7050 C.ar   19  PHE19      -0.0203
      7  CD1       70.5130  -17.7560   74.1000 C.ar   19  PHE19      -0.0042
      8  CD2       68.6320  -16.2720   74.0140 C.ar   19  PHE19      -0.0042
      9  CE1       70.1950  -18.2330   72.8280 C.ar   19  PHE19      -0.0003
     10  CE2       68.3080  -16.7410   72.7440 C.ar   19  PHE19      -0.0003
     11  CZ        69.0890  -17.7230   72.1490 C.ar   19  PHE19      -0.0000
     12  N         71.4590  -12.5670   71.5700 N.3    21  ILE21      -0.1245
     13  CA        71.0840  -12.5550   70.1620 C.3    21  ILE21       0.1561
     14  C         71.4470  -11.1450   69.6980 C.2    21  ILE21       0.2260
     15  O         71.7810  -10.2910   70.5210 O.2    21  ILE21      -0.2867
     16  CB        69.5830  -12.7880   69.9400 C.3    21  ILE21       0.0252
     17  CG1       68.7670  -11.7150   70.6570 C.3    21  ILE21       0.0019
     18  CG2       69.2040  -14.1770   70.4100 C.3    21  ILE21       0.0019
     19  CD1       67.3260  -11.6600   70.1940 C.3    21  ILE21       0.0001
     20  N         69.3650  -11.6330   77.2640 N.3    26  ILE26      -0.1245
     21  CA        68.3440  -11.9300   78.2620 C.3    26  ILE26       0.1561
     22  C         68.9890  -12.8210   79.3270 C.2    26  ILE26       0.2260
     23  O         69.8720  -13.6190   79.0180 O.2    26  ILE26      -0.2867
     24  CB        67.1330  -12.6500   77.6140 C.3    26  ILE26       0.0252
     25  CG1       66.1820  -13.1650   78.6940 C.3    26  ILE26       0.0019
     26  CG2       67.6180  -13.7840   76.7190 C.3    26  ILE26       0.0019
     27  CD1       64.9890  -13.9290   78.1550 C.3    26  ILE26       0.0001
     28  N         58.8250  -10.2530   74.8420 N.3    51  GLY51      -0.1225
     29  CA        60.2080   -9.9490   74.5190 C.3    51  GLY51       0.1811
     30  C         60.2630   -8.4570   74.2380 C.2    51  GLY51       0.2280
     31  O         59.8740   -8.0020   73.1580 O.2    51  GLY51      -0.2866
     32  N         62.4690   -6.5040   73.2740 N.3    53  PHE53      -0.1227
     33  CA        63.0970   -6.0800   72.0260 C.3    53  PHE53       0.1736
     34  C         62.5270   -6.7110   70.7570 C.2    53  PHE53       0.2595
     35  O         63.1220   -6.6260   69.6830 O.2    53  PHE53      -0.2718
     36  CB        64.6340   -6.2120   72.0820 C.3    53  PHE53       0.0547
     37  CG        65.1410   -7.5400   72.5640 C.ar   53  PHE53      -0.0202
     38  CD1       66.2120   -7.5890   73.4540 C.ar   53  PHE53      -0.0042
     39  CD2       64.6070   -8.7320   72.0880 C.ar   53  PHE53      -0.0042
     40  CE1       66.7540   -8.8040   73.8630 C.ar   53  PHE53      -0.0003
     41  CE2       65.1400   -9.9640   72.4910 C.ar   53  PHE53      -0.0003
     42  CZ        66.2170   -9.9980   73.3800 C.ar   53  PHE53      -0.0000
     43  N         61.3510   -7.3210   70.8900 N.am   54  ILE54      -0.1980
     44  CA        60.6620   -7.9060   69.7520 C.3    54  ILE54       0.1595
     45  C         59.3540   -7.1370   69.5580 C.2    54  ILE54       0.2287
     46  O         59.0780   -6.6250   68.4680 O.2    54  ILE54      -0.2864
     47  CB        60.3080   -9.3920   69.9660 C.3    54  ILE54       0.0276
     48  CG1       61.5640  -10.2130   70.2720 C.3    54  ILE54       0.0022
     49  CG2       59.6350   -9.9380   68.7090 C.3    54  ILE54       0.0022
     50  CD1       62.5530  -10.2860   69.1230 C.3    54  ILE54       0.0001
     51  N         70.0380  -24.1790   65.7550 N.3   159  LYS159     -0.1245
     52  CA        69.7160  -22.8250   65.3240 C.3   159  LYS159      0.1561
     53  C         70.8850  -21.9410   65.7640 C.2   159  LYS159      0.2260
     54  O         71.1310  -21.7710   66.9530 O.2   159  LYS159     -0.2867
     55  CB        68.4010  -22.3620   65.9730 C.3   159  LYS159      0.0271
     56  CG        67.9850  -20.9440   65.6110 C.3   159  LYS159      0.0035
     57  CD        66.5450  -20.6580   66.0290 C.3   159  LYS159      0.0206
     58  CE        66.1690  -19.2130   65.7220 C.3   159  LYS159      0.1093
     59  NZ        64.7210  -18.9040   65.9160 N.3   159  LYS159     -0.1314
     60  N         72.5890  -18.4260   66.2000 N.3   161  LYS161     -0.1245
     61  CA        72.3770  -16.9870   66.3020 C.3   161  LYS161      0.1561
     62  C         73.6440  -16.2600   65.8820 C.2   161  LYS161      0.2260
     63  O         74.7470  -16.6490   66.2670 O.2   161  LYS161     -0.2867
     64  CB        72.0140  -16.5900   67.7370 C.3   161  LYS161      0.0271
     65  CG        70.6490  -17.0820   68.2070 C.3   161  LYS161      0.0035
     66  CD        69.5130  -16.3620   67.4940 C.3   161  LYS161      0.0206
     67  CE        68.1570  -16.8010   68.0310 C.3   161  LYS161      0.1093
     68  NZ        67.0400  -16.0330   67.3990 N.3   161  LYS161     -0.1314
     69  N         70.0760  -17.4750   62.2210 N.3   189  ASP189     -0.1239
     70  CA        69.1290  -16.4300   62.5810 C.3   189  ASP189      0.1674
     71  C         69.9360  -15.1820   62.9160 C.2   189  ASP189      0.2266
     72  O         70.6150  -15.1400   63.9390 O.2   189  ASP189     -0.2867
     73  CB        68.2890  -16.8430   63.7880 C.3   189  ASP189      0.1410
     74  CG        67.1690  -15.8680   64.0670 C.2   189  ASP189      0.3668
     75  OD1       67.2190  -14.7460   63.5240 O.co2 189  ASP189     -0.2456
     76  OD2       66.2410  -16.2120   64.8280 O.co2 189  ASP189     -0.2456
     77  N         68.5990  -12.1240   63.3220 N.3   191  ASN191     -0.1240
     78  CA        67.7750  -11.1860   64.0530 C.3   191  ASN191      0.1653
     79  C         67.9060   -9.7530   63.5420 C.2   191  ASN191      0.2266
     80  O         68.1830   -8.8350   64.3130 O.2   191  ASN191     -0.2867
     81  CB        68.0860  -11.2430   65.5570 C.3   191  ASN191      0.1155
     82  CG        67.3400  -12.3700   66.2640 C.2   191  ASN191      0.2627
     83  OD1       67.9440  -13.3310   66.7510 O.2   191  ASN191     -0.2716
     84  ND2       66.0120  -12.2550   66.3180 N.am  191  ASN191     -0.0877
     85  N         60.7170  -13.5430   60.3880 N.3   240  ASP240     -0.1225
     86  CA        60.3510  -13.6860   61.7910 C.3   240  ASP240      0.1805
     87  C         59.7500  -12.3760   62.2700 C.2   240  ASP240      0.2597
     88  O         58.5220  -12.2200   62.3100 O.2   240  ASP240     -0.2718
     89  CB        61.5700  -14.0370   62.6500 C.3   240  ASP240      0.1424
     90  CG        61.1980  -14.3320   64.0990 C.2   240  ASP240      0.3668
     91  OD1       60.0510  -14.0460   64.5040 O.co2 240  ASP240     -0.2456
     92  OD2       62.0600  -14.8480   64.8410 O.co2 240  ASP240     -0.2456
     93  N         60.6100  -11.4250   62.6170 N.am  241  GLU241     -0.1979
     94  CA        60.1390  -10.1330   63.0970 C.3   241  GLU241      0.1602
     95  C         59.2720   -9.3760   62.0870 C.2   241  GLU241      0.2287
     96  O         58.4540   -8.5460   62.4750 O.2   241  GLU241     -0.2864
     97  CB        61.3220   -9.2640   63.5390 C.3   241  GLU241      0.0415
     98  CG        62.0160   -9.7700   64.8070 C.3   241  GLU241      0.1163
     99  CD        63.2370  -10.6280   64.5170 C.2   241  GLU241      0.3649
    100  OE1       63.1550  -11.4920   63.6130 O.co2 241  GLU241     -0.2457
    101  OE2       64.2770  -10.4410   65.2030 O.co2 241  GLU241     -0.2457
    102  N         58.0630  -17.7740   60.3390 N.3   262  ASN262     -0.1240
    103  CA        58.1650  -18.2040   61.7290 C.3   262  ASN262      0.1653
    104  C         56.9310  -17.7190   62.4740 C.2   262  ASN262      0.2266
    105  O         56.5640  -16.5500   62.3820 O.2   262  ASN262     -0.2867
    106  CB        59.4300  -17.6090   62.3640 C.3   262  ASN262      0.1155
    107  CG        59.6440  -18.0640   63.8060 C.2   262  ASN262      0.2627
    108  OD1       58.8590  -17.7380   64.7040 O.2   262  ASN262     -0.2716
    109  ND2       60.7140  -18.8140   64.0310 N.am  262  ASN262     -0.0877
    110  N         54.8820  -17.2690   66.1740 N.3   264  LYS264     -0.1245
    111  CA        55.0560  -17.1850   67.6230 C.3   264  LYS264      0.1561
    112  C         53.7350  -16.7740   68.2520 C.2   264  LYS264      0.2260
    113  O         53.1590  -15.7460   67.8800 O.2   264  LYS264     -0.2867
    114  CB        56.1320  -16.1510   67.9920 C.3   264  LYS264      0.0271
    115  CG        57.5720  -16.5870   67.7400 C.3   264  LYS264      0.0035
    116  CD        58.5450  -15.5680   68.3410 C.3   264  LYS264      0.0206
    117  CE        59.9970  -15.9740   68.1570 C.3   264  LYS264      0.1093
    118  NZ        60.3740  -15.9930   66.7170 N.3   264  LYS264     -0.1314
    119  N         59.4590  -19.4620   69.5340 N.3   292  CYS292     -0.1221
    120  CA        59.1480  -19.0070   70.8800 C.3   292  CYS292      0.1808
    121  C         60.0520  -17.8810   71.3400 C.2   292  CYS292      0.2601
    122  O         61.0920  -17.6280   70.7380 O.2   292  CYS292     -0.2717
    123  CB        59.3150  -20.1710   71.8570 C.3   292  CYS292      0.0970
    124  SG        61.0480  -20.7130   72.0050 S.3   292  CYS292     -0.0800
    125  N         59.6380  -17.2140   72.4170 N.am  293  MET293     -0.1965
    126  CA        60.4280  -16.1510   73.0300 C.3   293  MET293      0.1736
    127  C         61.2280  -16.8720   74.1240 C.2   293  MET293      0.2616
    128  O         60.7800  -17.8910   74.6520 O.2   293  MET293     -0.2715
    129  CB        59.5230  -15.0950   73.6810 C.3   293  MET293      0.0427
    130  CG        58.5030  -14.4450   72.7450 C.3   293  MET293      0.0599
    131  SD        59.2990  -13.4890   71.4430 S.3   293  MET293     -0.1393
    132  CE        57.9350  -12.4130   70.9120 C.3   293  MET293      0.0692
    133  N         62.4020  -16.3570   74.4700 N.am  294  ALA294     -0.1963
    134  CA        63.2090  -16.9940   75.5040 C.3   294  ALA294      0.1728
    135  C         62.5740  -16.7580   76.8670 C.2   294  ALA294      0.2616
    136  O         62.8820  -17.4580   77.8320 O.2   294  ALA294     -0.2715
    137  CB        64.6410  -16.4470   75.4800 C.3   294  ALA294      0.0334
    138  N         61.6680  -15.7840   76.9280 N.am  295  GLU295     -0.1977
    139  CA        60.9900  -15.4450   78.1720 C.3   295  GLU295      0.1602
    140  C         59.7690  -16.2920   78.4980 C.2   295  GLU295      0.2287
    141  O         59.1550  -16.0970   79.5530 O.2   295  GLU295     -0.2864
    142  CB        60.5590  -13.9750   78.1810 C.3   295  GLU295      0.0415
    143  CG        61.7030  -13.0010   78.1730 C.3   295  GLU295      0.1163
    144  CD        61.9320  -12.4130   76.8080 C.2   295  GLU295      0.3649
    145  OE1       61.8250  -13.1640   75.8120 O.co2 295  GLU295     -0.2457
    146  OE2       62.2220  -11.2020   76.7350 O.co2 295  GLU295     -0.2457
    147  N         61.0710  -24.6600   66.7400 N.3   318  ASP318     -0.1239
    148  CA        62.1350  -24.0440   67.5140 C.3   318  ASP318      0.1674
    149  C         61.5000  -23.6950   68.8470 C.2   318  ASP318      0.2266
    150  O         61.2370  -22.5330   69.1450 O.2   318  ASP318     -0.2867
    151  CB        62.6620  -22.7860   66.8250 C.3   318  ASP318      0.1410
    152  CG        63.6700  -22.0390   67.6760 C.2   318  ASP318      0.3668
    153  OD1       64.6090  -22.6910   68.1920 O.co2 318  ASP318     -0.2456
    154  OD2       63.5250  -20.8010   67.8230 O.co2 318  ASP318     -0.2456
    155  N         62.6530  -24.2600   72.2080 N.3   320  ASP320     -0.1239
    156  CA        63.7500  -24.5840   73.1120 C.3   320  ASP320      0.1674
    157  C         63.8100  -23.6910   74.3450 C.2   320  ASP320      0.2266
    158  O         64.8370  -23.6270   75.0160 O.2   320  ASP320     -0.2867
    159  CB        65.0760  -24.4730   72.3440 C.3   320  ASP320      0.1410
    160  CG        65.3410  -23.0610   71.8240 C.2   320  ASP320      0.3668
    161  OD1       64.4030  -22.2340   71.8040 O.co2 320  ASP320     -0.2456
    162  OD2       66.4920  -22.7770   71.4210 O.co2 320  ASP320     -0.2456
@<TRIPOS>BOND
     1   102   103    1
     2    85    86    1
     3   103   106    1
     4   103   104    1
     5    86    87    1
     6    86    89    1
     7    95    96    2
     8    95    94    1
     9    69    70    1
    10    87    88    2
    11    87    93   am
    12   106   107    1
    13   105   104    2
    14    70    71    1
    15    70    73    1
    16    93    94    1
    17    89    90    1
    18    71    72    2
    19    94    97    1
    20    77    78    1
    21    75    74   ar
    22    97    98    1
    23    79    78    1
    24    79    80    2
    25   100    99   ar
    26    73    74    1
    27   107   109   am
    28   107   108    2
    29    78    81    1
    30    74    76   ar
    31    90    91   ar
    32    90    92   ar
    33    99    98    1
    34    99   101   ar
    35    52    51    1
    36    52    53    1
    37    52    55    1
    38    81    82    1
    39    56    55    1
    40    56    57    1
    41    58    59    1
    42    58    57    1
    43    53    54    2
    44    62    63    2
    45    62    61    1
    46   110   111    1
    47    60    61    1
    48    82    84   am
    49    82    83    2
    50    61    64    1
    51   118   117    1
    52   147   148    1
    53   151   148    1
    54   151   152    1
    55    68    67    1
    56    66    67    1
    57    66    65    1
    58   148   149    1
    59   111   114    1
    60   111   112    1
    61   152   154   ar
    62   152   153   ar
    63    64    65    1
    64   115   114    1
    65   115   116    1
    66   113   112    2
    67   117   116    1
    68    46    45    2
    69    49    47    1
    70   149   150    2
    71    50    48    1
    72   119   120    1
    73    45    44    1
    74    35    34    2
    75    14    13    1
    76    14    15    2
    77    44    47    1
    78    44    43    1
    79    16    13    1
    80    16    18    1
    81    16    17    1
    82    47    48    1
    83    13    12    1
    84    19    17    1
    85   122   121    2
    86    34    43   am
    87    34    33    1
    88   120   121    1
    89   120   123    1
    90   132   131    1
    91   121   125   am
    92   162   160   ar
    93   131   130    1
    94   161   160   ar
    95   160   159    1
    96   123   124    1
    97    33    36    1
    98    33    32    1
    99    36    37    1
   100    39    41   ar
   101    39    37   ar
   102    11    10   ar
   103    11     9   ar
   104   155   156    1
   105   159   156    1
   106   125   126    1
   107    41    42   ar
   108    37    38   ar
   109    10     8   ar
   110   130   129    1
   111     9     7   ar
   112   126   129    1
   113   126   127    1
   114   156   157    1
   115    31    30    2
   116    42    40   ar
   117    38    40   ar
   118     8     6   ar
   119     7     6   ar
   120   127   133   am
   121   127   128    2
   122    30    29    1
   123   157   158    2
   124   133   134    1
   125    29    28    1
   126     6     5    1
   127     3     4    2
   128     3     2    1
   129   137   134    1
   130   134   135    1
   131   145   144   ar
   132     5     2    1
   133     2     1    1
   134    26    24    1
   135   146   144   ar
   136   144   143    1
   137   135   138   am
   138   135   136    2
   139   138   139    1
   140    20    21    1
   141    24    21    1
   142    24    25    1
   143    27    25    1
   144   139   142    1
   145   139   140    1
   146   143   142    1
   147    21    22    1
   148   140   141    2
   149    23    22    2
