@<TRIPOS>MOLECULE
tmp/3k1jA01.pdb
 142 139 0 0 0
SMALL
GASTEIGER

@<TRIPOS>ATOM
      1  N        -27.5240  -83.9920    7.5000 N.3   354  TYR354     -0.1227
      2  CA       -26.6200  -84.0030    8.6400 C.3   354  TYR354      0.1736
      3  C        -27.3980  -84.1330    9.9570 C.2   354  TYR354      0.2595
      4  O        -27.1050  -85.0020   10.7730 O.2   354  TYR354     -0.2718
      5  CB       -25.7990  -82.7110    8.6370 C.3   354  TYR354      0.0548
      6  CG       -25.0200  -82.4440    9.9150 C.ar  354  TYR354     -0.0200
      7  CD1      -23.8520  -83.1490   10.2060 C.ar  354  TYR354     -0.0009
      8  CD2      -25.4430  -81.4640   10.8140 C.ar  354  TYR354     -0.0009
      9  CE1      -23.1230  -82.8820   11.3560 C.ar  354  TYR354      0.0417
     10  CE2      -24.7250  -81.1850   11.9720 C.ar  354  TYR354      0.0417
     11  CZ       -23.5630  -81.8970   12.2350 C.ar  354  TYR354      0.1957
     12  OH       -22.8340  -81.6120   13.3660 O.3   354  TYR354     -0.2866
     13  N        -28.4010  -83.2810   10.1550 N.am  355  ILE355     -0.1980
     14  CA       -29.1890  -83.3130   11.3850 C.3   355  ILE355      0.1595
     15  C        -29.9850  -84.6110   11.5190 C.2   355  ILE355      0.2287
     16  O        -30.1750  -85.1290   12.6180 O.2   355  ILE355     -0.2864
     17  CB       -30.1460  -82.0810   11.4630 C.3   355  ILE355      0.0276
     18  CG1      -29.6960  -81.1400   12.5750 C.3   355  ILE355      0.0022
     19  CG2      -31.5560  -82.5080   11.7980 C.3   355  ILE355      0.0022
     20  CD1      -28.3370  -80.5360   12.3740 C.3   355  ILE355      0.0001
     21  N        -27.6030  -87.1490   12.8920 N.3   358  LYS358     -0.1245
     22  CA       -27.2710  -86.8970   14.2870 C.3   358  LYS358      0.1561
     23  C        -28.3950  -87.3120   15.2370 C.2   358  LYS358      0.2260
     24  O        -28.1380  -87.8490   16.3110 O.2   358  LYS358     -0.2867
     25  CB       -26.9390  -85.4120   14.4950 C.3   358  LYS358      0.0271
     26  CG       -25.6340  -84.9750   13.8330 C.3   358  LYS358      0.0035
     27  CD       -24.9260  -83.9040   14.6570 C.3   358  LYS358      0.0206
     28  CE       -24.4620  -84.4910   15.9690 C.3   358  LYS358      0.1093
     29  NZ       -23.8650  -83.5150   16.8770 N.3   358  LYS358     -0.1314
     30  N        -28.7070  -90.9180   16.7680 N.3   361  TYR361     -0.1227
     31  CA       -27.8680  -91.3460   17.8710 C.3   361  TYR361      0.1736
     32  C        -27.9680  -90.3490   19.0170 C.2   361  TYR361      0.2595
     33  O        -27.0700  -90.2410   19.8460 O.2   361  TYR361     -0.2718
     34  CB       -26.4260  -91.4920   17.3790 C.3   361  TYR361      0.0548
     35  CG       -26.2430  -92.7330   16.5310 C.ar  361  TYR361     -0.0200
     36  CD1      -26.0420  -93.9740   17.1260 C.ar  361  TYR361     -0.0009
     37  CD2      -26.3220  -92.6760   15.1380 C.ar  361  TYR361     -0.0009
     38  CE1      -25.9200  -95.1350   16.3670 C.ar  361  TYR361      0.0417
     39  CE2      -26.2040  -93.8320   14.3610 C.ar  361  TYR361      0.0417
     40  CZ       -25.9990  -95.0620   14.9920 C.ar  361  TYR361      0.1957
     41  OH       -25.8430  -96.2090   14.2550 O.3   361  TYR361     -0.2866
     42  N        -29.0790  -89.6260   19.0660 N.am  362  GLN362     -0.1979
     43  CA       -29.2520  -88.6420   20.1140 C.3   362  GLN362      0.1601
     44  C        -29.7230  -89.2960   21.4040 C.2   362  GLN362      0.2287
     45  O        -30.4400  -90.2870   21.4060 O.2   362  GLN362     -0.2864
     46  CB       -30.2060  -87.5260   19.6760 C.3   362  GLN362      0.0394
     47  CG       -31.6750  -87.8750   19.6630 C.3   362  GLN362      0.0908
     48  CD       -32.5200  -86.7340   19.1170 C.2   362  GLN362      0.2608
     49  OE1      -32.1090  -85.5610   19.1510 O.2   362  GLN362     -0.2717
     50  NE2      -33.7060  -87.0650   18.6270 N.am  362  GLN362     -0.0878
     51  N        -30.3690  -76.0930   19.2750 N.3   378  ALA378     -0.1245
     52  CA       -29.3920  -75.5450   18.3480 C.3   378  ALA378      0.1562
     53  C        -29.9630  -75.4940   16.9390 C.2   378  ALA378      0.2260
     54  O        -30.8360  -76.2850   16.5760 O.2   378  ALA378     -0.2867
     55  CB       -28.1210  -76.3870   18.3650 C.3   378  ALA378      0.0290
     56  N        -28.6190  -75.4730   13.0170 N.3   380  ILE380     -0.1245
     57  CA       -27.4960  -75.6810   12.1120 C.3   380  ILE380      0.1561
     58  C        -27.8720  -75.0750   10.7680 C.2   380  ILE380      0.2260
     59  O        -28.9770  -75.2930   10.2710 O.2   380  ILE380     -0.2867
     60  CB       -27.2140  -77.1920   11.8920 C.3   380  ILE380      0.0252
     61  CG1      -26.8890  -77.8780   13.2290 C.3   380  ILE380      0.0019
     62  CG2      -26.1000  -77.3820   10.8490 C.3   380  ILE380      0.0019
     63  CD1      -25.9480  -77.1320   14.1160 C.3   380  ILE380      0.0001
     64  N        -32.0720  -78.7970   16.1440 N.3   386  ILE386     -0.1231
     65  CA       -31.8560  -80.0590   16.8390 C.3   386  ILE386      0.1692
     66  C        -31.8100  -79.7940   18.3340 C.2   386  ILE386      0.2592
     67  O        -31.3790  -78.7200   18.7620 O.2   386  ILE386     -0.2718
     68  CB       -30.5370  -80.7370   16.3730 C.3   386  ILE386      0.0266
     69  CG1      -30.4220  -82.1350   16.9900 C.3   386  ILE386      0.0019
     70  CG2      -29.3340  -79.8650   16.7330 C.3   386  ILE386      0.0020
     71  CD1      -29.2430  -82.9330   16.4510 C.3   386  ILE386      0.0001
     72  N        -32.2850  -80.7470   19.1280 N.am  387  VAL387     -0.1966
     73  CA       -32.2540  -80.5770   20.5710 C.3   387  VAL387      0.1727
     74  C        -30.7990  -80.7120   20.9960 C.2   387  VAL387      0.2616
     75  O        -30.0510  -81.5580   20.4720 O.2   387  VAL387     -0.2715
     76  CB       -33.1400  -81.6170   21.3050 C.3   387  VAL387      0.0290
     77  CG1      -33.0550  -81.3950   22.8360 C.3   387  VAL387      0.0023
     78  CG2      -34.6120  -81.4570   20.8470 C.3   387  VAL387      0.0023
     79  N        -30.3990  -79.8640   21.9390 N.am  388  LEU388     -0.1964
     80  CA       -29.0260  -79.8250   22.4020 C.3   388  LEU388      0.1713
     81  C        -28.9180  -80.0950   23.8870 C.2   388  LEU388      0.2458
     82  O        -28.9400  -79.1710   24.6860 O.2   388  LEU388     -0.2730
     83  CB       -28.4450  -78.4420   22.0990 C.3   388  LEU388      0.0310
     84  CG       -27.0000  -78.0660   22.4360 C.3   388  LEU388      0.0022
     85  CD1      -26.0550  -78.7270   21.4370 C.3   388  LEU388      0.0001
     86  CD2      -26.8530  -76.5430   22.3680 C.3   388  LEU388      0.0001
     87  N        -28.8160  -81.3710   24.2800 N.am  389  PRO389     -0.2727
     88  CA       -28.7010  -81.6910   25.7050 C.3   389  PRO389      0.1402
     89  C        -27.3490  -81.2440   26.2670 C.2   389  PRO389      0.2269
     90  O        -26.2980  -81.4460   25.6620 O.2   389  PRO389     -0.2865
     91  CB       -28.9030  -83.2090   25.7430 C.3   389  PRO389      0.0296
     92  CG       -28.4620  -83.6580   24.3730 C.3   389  PRO389      0.0237
     93  CD       -29.0560  -82.5880   23.4850 C.3   389  PRO389      0.0939
     94  N        -23.2670  -82.2570   25.0890 N.3   444  LEU444     -0.1231
     95  CA       -23.1530  -83.6160   24.5880 C.3   444  LEU444      0.1693
     96  C        -23.1020  -83.8090   23.0720 C.2   444  LEU444      0.2592
     97  O        -23.9100  -83.2530   22.3290 O.2   444  LEU444     -0.2718
     98  CB       -24.2870  -84.4890   25.1520 C.3   444  LEU444      0.0284
     99  CG       -24.1800  -85.1240   26.5530 C.3   444  LEU444      0.0019
    100  CD1      -23.8340  -84.0790   27.5820 C.3   444  LEU444      0.0001
    101  CD2      -25.5120  -85.8040   26.9210 C.3   444  LEU444      0.0001
    102  N        -22.1300  -84.6070   22.6390 N.am  445  GLN445     -0.1966
    103  CA       -21.9940  -85.0020   21.2470 C.3   445  GLN445      0.1733
    104  C        -21.8330  -83.9070   20.1890 C.2   445  GLN445      0.2617
    105  O        -22.1580  -84.1280   19.0280 O.2   445  GLN445     -0.2715
    106  CB       -23.1980  -85.8830   20.8870 C.3   445  GLN445      0.0408
    107  CG       -23.4570  -87.0440   21.8780 C.3   445  GLN445      0.0908
    108  CD       -24.7240  -87.8410   21.5510 C.2   445  GLN445      0.2608
    109  OE1      -25.8330  -87.3180   21.6360 O.2   445  GLN445     -0.2717
    110  NE2      -24.5580  -89.1040   21.1660 N.am  445  GLN445     -0.0878
    111  N        -21.3280  -82.7410   20.5740 N.am  446  THR446     -0.1937
    112  CA       -21.1460  -81.6540   19.6260 C.3   446  THR446      0.2028
    113  C        -19.7800  -81.7700   18.9360 C.2   446  THR446      0.2642
    114  O        -18.9260  -80.8860   19.0500 O.2   446  THR446     -0.2714
    115  CB       -21.2860  -80.3050   20.3430 C.3   446  THR446      0.1808
    116  OG1      -20.4390  -80.2830   21.5010 O.3   446  THR446     -0.2208
    117  CG2      -22.7300  -80.1070   20.7870 C.3   446  THR446      0.0379
    118  N        -19.6070  -82.8700   18.2030 N.am  447  TYR447     -0.1959
    119  CA       -18.3590  -83.1750   17.5110 C.3   447  TYR447      0.1771
    120  C        -17.9270  -82.1880   16.4340 C.2   447  TYR447      0.2619
    121  O        -16.7570  -82.1660   16.0540 O.2   447  TYR447     -0.2715
    122  CB       -18.4260  -84.5940   16.9470 C.3   447  TYR447      0.0574
    123  CG       -18.7250  -85.6170   18.0250 C.ar  447  TYR447     -0.0198
    124  CD1      -17.9050  -85.7260   19.1580 C.ar  447  TYR447     -0.0009
    125  CD2      -19.8460  -86.4490   17.9380 C.ar  447  TYR447     -0.0009
    126  CE1      -18.1950  -86.6420   20.1810 C.ar  447  TYR447      0.0417
    127  CE2      -20.1430  -87.3560   18.9470 C.ar  447  TYR447      0.0417
    128  CZ       -19.3120  -87.4500   20.0650 C.ar  447  TYR447      0.1957
    129  OH       -19.5990  -88.3670   21.0470 O.3   447  TYR447     -0.2866
    130  N        -18.8570  -81.3800   15.9350 N.am  448  GLU448     -0.1963
    131  CA       -18.5070  -80.3710   14.9490 C.3   448  GLU448      0.1733
    132  C        -18.4520  -79.0010   15.6100 C.2   448  GLU448      0.2616
    133  O        -18.3700  -77.9840   14.9330 O.2   448  GLU448     -0.2715
    134  CB       -19.5100  -80.3420   13.7930 C.3   448  GLU448      0.0429
    135  CG       -19.3020  -81.4400   12.7550 C.3   448  GLU448      0.1163
    136  CD       -19.6460  -82.8280   13.2810 C.2   448  GLU448      0.3649
    137  OE1      -20.8030  -83.0340   13.7060 O.co2 448  GLU448     -0.2457
    138  OE2      -18.7600  -83.7150   13.2710 O.co2 448  GLU448     -0.2457
    139  N        -18.5200  -78.9730   16.9360 N.am  449  GLY449     -0.1955
    140  CA       -18.4360  -77.7040   17.6360 C.3   449  GLY449      0.1869
    141  C        -19.7460  -77.0860   18.0890 C.2   449  GLY449      0.2309
    142  O        -20.8330  -77.5680   17.7780 O.2   449  GLY449     -0.2863
@<TRIPOS>BOND
     1     1     2    1
     2     5     2    1
     3     5     6    1
     4     2     3    1
     5     6     7   ar
     6     6     8   ar
     7     3    13   am
     8     3     4    2
     9    13    14    1
    10     7     9   ar
    11    59    58    2
    12    58    57    1
    13     8    10   ar
    14    62    60    1
    15     9    11   ar
    16    14    17    1
    17    14    15    1
    18    17    19    1
    19    17    18    1
    20    15    16    2
    21    60    57    1
    22    60    61    1
    23    10    11   ar
    24    57    56    1
    25    11    12    1
    26    20    18    1
    27   135   136    1
    28   135   134    1
    29    21    22    1
    30    61    63    1
    31   138   136   ar
    32   136   137   ar
    33   134   131    1
    34    26    25    1
    35    26    27    1
    36    41    40    1
    37    22    25    1
    38    22    23    1
    39    39    40   ar
    40    39    37   ar
    41    27    28    1
    42   133   132    2
    43   131   132    1
    44   131   130    1
    45    40    38   ar
    46    37    35   ar
    47    23    24    2
    48   132   139   am
    49   130   120   am
    50    28    29    1
    51   121   120    2
    52    64    65    1
    53    38    36   ar
    54    68    70    1
    55    68    65    1
    56    68    69    1
    57   120   119    1
    58    71    69    1
    59    35    36   ar
    60    35    34    1
    61    54    53    2
    62    30    31    1
    63    65    66    1
    64   139   140    1
    65    53    52    1
    66   122   119    1
    67   122   123    1
    68    34    31    1
    69   119   118    1
    70   140   141    1
    71   142   141    2
    72    31    32    1
    73   125   123   ar
    74   125   127   ar
    75   123   124   ar
    76   118   113   am
    77    66    67    2
    78    66    72   am
    79    52    55    1
    80    52    51    1
    81    50    48   am
    82   113   114    2
    83   113   112    1
    84   127   128   ar
    85    32    42   am
    86    32    33    2
    87   105   104    2
    88    42    43    1
    89    48    49    2
    90    48    47    1
    91    72    73    1
    92   124   126   ar
    93   112   115    1
    94   112   111    1
    95    47    46    1
    96    46    43    1
    97   128   126   ar
    98   128   129    1
    99    43    44    1
   100   104   111   am
   101   104   103    1
   102   115   117    1
   103   115   116    1
   104    75    74    2
   105    73    74    1
   106    73    76    1
   107    78    76    1
   108   106   103    1
   109   106   107    1
   110    74    79   am
   111   110   108   am
   112   103   102    1
   113    76    77    1
   114    44    45    2
   115    85    84    1
   116   108   109    2
   117   108   107    1
   118    79    80    1
   119    83    80    1
   120    83    84    1
   121    97    96    2
   122    86    84    1
   123    80    81    1
   124   102    96   am
   125    96    95    1
   126    93    87    1
   127    93    92    1
   128    81    87   am
   129    81    82    2
   130    87    88    1
   131    92    91    1
   132    95    94    1
   133    95    98    1
   134    98    99    1
   135    90    89    2
   136    88    91    1
   137    88    89    1
   138    99   101    1
   139    99   100    1
