@<TRIPOS>MOLECULE
tmp/3k1jA00.pdb
 188 178 0 0 0
SMALL
GASTEIGER

@<TRIPOS>ATOM
      1  N        -42.7320  -54.4180  -11.4910 N.3    25  GLN25      -0.1231
      2  CA       -42.8370  -55.7690  -10.9450 C.3    25  GLN25       0.1698
      3  C        -41.8170  -56.0070   -9.8310 C.2    25  GLN25       0.2592
      4  O        -41.9550  -56.9510   -9.0520 O.2    25  GLN25      -0.2718
      5  CB       -42.6470  -56.7940  -12.0590 C.3    25  GLN25       0.0381
      6  CG       -43.8490  -56.8860  -12.9870 C.3    25  GLN25       0.0905
      7  CD       -43.7050  -57.9860  -14.0030 C.2    25  GLN25       0.2608
      8  OE1      -43.1830  -59.0570  -13.7020 O.2    25  GLN25      -0.2717
      9  NE2      -44.1840  -57.7390  -15.2130 N.am   25  GLN25      -0.0878
     10  N        -40.7920  -55.1560   -9.7640 N.am   26  VAL26      -0.1966
     11  CA       -39.7700  -55.2770   -8.7270 C.3    26  VAL26       0.1727
     12  C        -40.4050  -54.9480   -7.3800 C.2    26  VAL26       0.2616
     13  O        -40.9750  -53.8740   -7.1890 O.2    26  VAL26      -0.2715
     14  CB       -38.5840  -54.3120   -8.9920 C.3    26  VAL26       0.0290
     15  CG1      -37.5780  -54.3770   -7.8410 C.3    26  VAL26       0.0023
     16  CG2      -37.9100  -54.6770  -10.2980 C.3    26  VAL26       0.0023
     17  N        -40.2810  -55.8790   -6.4480 N.am   27  ILE27      -0.1977
     18  CA       -40.8610  -55.7580   -5.1240 C.3    27  ILE27       0.1596
     19  C        -39.8310  -55.4880   -4.0320 C.2    27  ILE27       0.2287
     20  O        -38.7440  -56.0620   -4.0320 O.2    27  ILE27      -0.2864
     21  CB       -41.6410  -57.0720   -4.8100 C.3    27  ILE27       0.0276
     22  CG1      -42.7810  -57.2260   -5.8190 C.3    27  ILE27       0.0022
     23  CG2      -42.1690  -57.0770   -3.3860 C.3    27  ILE27       0.0022
     24  CD1      -43.2380  -58.6390   -6.0000 C.3    27  ILE27       0.0001
     25  N        -37.5460  -53.1980   -3.2750 N.3    29  GLN29      -0.1245
     26  CA       -36.2450  -52.5280   -3.4000 C.3    29  GLN29       0.1566
     27  C        -36.4660  -51.0880   -3.8440 C.2    29  GLN29       0.2260
     28  O        -35.8600  -50.6270   -4.8160 O.2    29  GLN29      -0.2867
     29  CB       -35.3710  -53.2440   -4.4350 C.3    29  GLN29       0.0367
     30  CG       -35.1040  -54.7160   -4.1520 C.3    29  GLN29       0.0905
     31  CD       -34.0450  -54.9320   -3.0820 C.2    29  GLN29       0.2608
     32  OE1      -33.4110  -53.9780   -2.6080 O.2    29  GLN29      -0.2717
     33  NE2      -33.8430  -56.1870   -2.6980 N.am   29  GLN29      -0.0878
     34  N        -27.1600  -63.4470   -4.3120 N.3    52  PRO52      -0.2102
     35  CA       -27.7390  -63.8860   -5.5860 C.3    52  PRO52       0.1504
     36  C        -29.2560  -64.0750   -5.4660 C.2    52  PRO52       0.2576
     37  O        -29.7640  -64.3790   -4.3840 O.2    52  PRO52      -0.2718
     38  CB       -27.0100  -65.2030   -5.8670 C.3    52  PRO52       0.0282
     39  CG       -26.6800  -65.7130   -4.4980 C.3    52  PRO52       0.0208
     40  CD       -26.2420  -64.4640   -3.7630 C.3    52  PRO52       0.0893
     41  N        -29.9660  -63.8810   -6.5750 N.am   53  GLY53      -0.1943
     42  CA       -31.4090  -64.0530   -6.5780 C.3    53  GLY53       0.2014
     43  C        -32.1470  -62.9830   -5.8030 C.2    53  GLY53       0.2640
     44  O        -33.1590  -63.2410   -5.1500 O.2    53  GLY53      -0.2714
     45  N        -31.6490  -61.7600   -5.8990 N.am   54  THR54      -0.1936
     46  CA       -32.2430  -60.6490   -5.1860 C.3    54  THR54       0.2028
     47  C        -32.7670  -59.5900   -6.1550 C.2    54  THR54       0.2643
     48  O        -33.1790  -58.5020   -5.7480 O.2    54  THR54      -0.2714
     49  CB       -31.2000  -60.0740   -4.1950 C.3    54  THR54       0.1808
     50  OG1      -31.8570  -59.2300   -3.2530 O.3    54  THR54      -0.2208
     51  CG2      -30.1200  -59.3060   -4.9240 C.3    54  THR54       0.0379
     52  N        -32.7430  -59.9230   -7.4430 N.am   55  GLY55      -0.1939
     53  CA       -33.2580  -59.0380   -8.4720 C.3    55  GLY55       0.2014
     54  C        -32.2960  -58.0980   -9.1700 C.2    55  GLY55       0.2639
     55  O        -32.7370  -57.1240   -9.7830 O.2    55  GLY55      -0.2714
     56  N        -30.9940  -58.3680   -9.1060 N.am   56  LYS56      -0.1963
     57  CA       -30.0350  -57.4850   -9.7670 C.3    56  LYS56       0.1728
     58  C        -30.2130  -57.4990  -11.2850 C.2    56  LYS56       0.2617
     59  O        -30.3230  -56.4500  -11.9120 O.2    56  LYS56      -0.2715
     60  CB       -28.5970  -57.8700   -9.3680 C.3    56  LYS56       0.0311
     61  CG       -28.3700  -57.7650   -7.8580 C.3    56  LYS56       0.0038
     62  CD       -26.9160  -58.0180   -7.4320 C.3    56  LYS56       0.0206
     63  CE       -26.4380  -59.4260   -7.7950 C.3    56  LYS56       0.1093
     64  NZ       -27.2280  -60.5050   -7.1320 N.3    56  LYS56      -0.1314
     65  N        -30.2520  -58.6860  -11.8800 N.am   57  SER57      -0.1936
     66  CA       -30.4440  -58.7960  -13.3260 C.3    57  SER57       0.2055
     67  C        -31.8290  -58.2610  -13.7360 C.2    57  SER57       0.2642
     68  O        -31.9860  -57.6200  -14.7760 O.2    57  SER57      -0.2714
     69  CB       -30.3300  -60.2540  -13.7540 C.3    57  SER57       0.2130
     70  OG       -30.5780  -60.3670  -15.1360 O.3    57  SER57      -0.2179
     71  N        -32.8330  -58.5460  -12.9160 N.am   58  MET58      -0.1976
     72  CA       -34.1910  -58.0820  -13.1890 C.3    58  MET58       0.1605
     73  C        -34.1670  -56.5500  -13.2910 C.2    58  MET58       0.2287
     74  O        -34.7850  -55.9700  -14.1850 O.2    58  MET58      -0.2864
     75  CB       -35.1350  -58.5280  -12.0670 C.3    58  MET58       0.0413
     76  CG       -36.6280  -58.3710  -12.4080 C.3    58  MET58       0.0598
     77  SD       -37.6700  -58.6760  -10.9670 S.3    58  MET58      -0.1393
     78  CE       -39.3140  -58.0510  -11.6010 C.3    58  MET58       0.0692
     79  N        -32.6810  -55.4480  -16.5490 N.3    61  GLN61      -0.1245
     80  CA       -33.6530  -55.6240  -17.6250 C.3    61  GLN61       0.1566
     81  C        -34.7180  -54.5380  -17.5550 C.2    61  GLN61       0.2260
     82  O        -35.1620  -54.0400  -18.5880 O.2    61  GLN61      -0.2867
     83  CB       -34.3370  -56.9860  -17.5240 C.3    61  GLN61       0.0367
     84  CG       -33.4490  -58.1570  -17.8450 C.3    61  GLN61       0.0905
     85  CD       -34.0760  -59.4690  -17.4270 C.2    61  GLN61       0.2608
     86  OE1      -33.5040  -60.2210  -16.6310 O.2    61  GLN61      -0.2717
     87  NE2      -35.2650  -59.7510  -17.9560 N.am   61  GLN61      -0.0878
     88  N        -25.2760  -55.6830  -18.9500 N.3   174  PHE174     -0.1241
     89  CA       -25.3540  -56.2210  -17.5910 C.3   174  PHE174      0.1605
     90  C        -24.1870  -57.1710  -17.3450 C.2   174  PHE174      0.2264
     91  O        -23.9320  -58.0610  -18.1480 O.2   174  PHE174     -0.2867
     92  CB       -26.6710  -56.9920  -17.3730 C.3   174  PHE174      0.0534
     93  CG       -26.8110  -57.5850  -15.9830 C.ar  174  PHE174     -0.0203
     94  CD1      -27.0680  -56.7710  -14.8820 C.ar  174  PHE174     -0.0042
     95  CD2      -26.6460  -58.9510  -15.7740 C.ar  174  PHE174     -0.0042
     96  CE1      -27.1570  -57.3030  -13.5930 C.ar  174  PHE174     -0.0003
     97  CE2      -26.7340  -59.5020  -14.4920 C.ar  174  PHE174     -0.0003
     98  CZ       -26.9900  -58.6750  -13.3930 C.ar  174  PHE174     -0.0000
     99  N        -22.8100  -59.3940  -14.0970 N.3   176  ASP176     -0.1239
    100  CA       -22.7960  -59.8330  -12.7070 C.3   176  ASP176      0.1674
    101  C        -21.3840  -60.3850  -12.4730 C.2   176  ASP176      0.2266
    102  O        -20.6840  -60.7190  -13.4360 O.2   176  ASP176     -0.2867
    103  CB       -23.8660  -60.9050  -12.4960 C.3   176  ASP176      0.1410
    104  CG       -24.1350  -61.1980  -11.0270 C.2   176  ASP176      0.3668
    105  OD1      -23.5580  -60.5290  -10.1440 O.co2 176  ASP176     -0.2456
    106  OD2      -24.9380  -62.1120  -10.7560 O.co2 176  ASP176     -0.2456
    107  N        -46.6180  -60.6900   -6.7800 N.3   269  PHE269     -0.1241
    108  CA       -45.4450  -61.5190   -7.0740 C.3   269  PHE269      0.1605
    109  C        -45.8210  -62.9060   -7.6210 C.2   269  PHE269      0.2264
    110  O        -45.3450  -63.3300   -8.6820 O.2   269  PHE269     -0.2867
    111  CB       -44.6070  -61.6950   -5.7940 C.3   269  PHE269      0.0534
    112  CG       -43.4180  -62.6020   -5.9670 C.ar  269  PHE269     -0.0203
    113  CD1      -42.3160  -62.1930   -6.7110 C.ar  269  PHE269     -0.0042
    114  CD2      -43.4210  -63.8790   -5.4250 C.ar  269  PHE269     -0.0042
    115  CE1      -41.2390  -63.0410   -6.9180 C.ar  269  PHE269     -0.0003
    116  CE2      -42.3410  -64.7470   -5.6230 C.ar  269  PHE269     -0.0003
    117  CZ       -41.2450  -64.3260   -6.3740 C.ar  269  PHE269     -0.0000
    118  N        -47.3540  -62.5670  -11.1390 N.3   272  GLN272     -0.1231
    119  CA       -46.4130  -62.2800  -12.2170 C.3   272  GLN272      0.1698
    120  C        -45.4990  -63.4560  -12.4920 C.2   272  GLN272      0.2592
    121  O        -45.0720  -63.6530  -13.6280 O.2   272  GLN272     -0.2718
    122  CB       -45.6040  -61.0070  -11.9170 C.3   272  GLN272      0.0381
    123  CG       -44.8370  -60.9930  -10.5990 C.3   272  GLN272      0.0905
    124  CD       -44.3540  -59.5920  -10.2300 C.2   272  GLN272      0.2608
    125  OE1      -45.0790  -58.6060  -10.3920 O.2   272  GLN272     -0.2717
    126  NE2      -43.1350  -59.5020   -9.7210 N.am  272  GLN272     -0.0878
    127  N        -45.2200  -64.2550  -11.4630 N.am  273  GLU273     -0.1979
    128  CA       -44.3610  -65.4300  -11.6180 C.3   273  GLU273      0.1602
    129  C        -45.1050  -66.4960  -12.4100 C.2   273  GLU273      0.2287
    130  O        -44.5350  -67.1350  -13.3020 O.2   273  GLU273     -0.2864
    131  CB       -43.9640  -65.9930  -10.2460 C.3   273  GLU273      0.0415
    132  CG       -42.9730  -65.1360   -9.4820 C.3   273  GLU273      0.1163
    133  CD       -41.6380  -65.0180  -10.2000 C.2   273  GLU273      0.3649
    134  OE1      -41.1210  -66.0560  -10.6660 O.co2 273  GLU273     -0.2457
    135  OE2      -41.1050  -63.8910  -10.2930 O.co2 273  GLU273     -0.2457
    136  N        -45.2650  -65.1690  -15.9570 N.3   276  ARG276     -0.1245
    137  CA       -43.9830  -65.2350  -16.6320 C.3   276  ARG276      0.1563
    138  C        -43.5970  -66.6800  -16.9310 C.2   276  ARG276      0.2260
    139  O        -43.0090  -66.9610  -17.9670 O.2   276  ARG276     -0.2867
    140  CB       -42.8940  -64.5670  -15.7810 C.3   276  ARG276      0.0307
    141  CG       -41.6940  -64.1130  -16.5860 C.3   276  ARG276      0.0489
    142  CD       -40.6330  -63.4620  -15.6960 C.3   276  ARG276      0.2205
    143  NE       -41.2330  -62.5610  -14.7130 N.pl3 276  ARG276     -0.0865
    144  CZ       -40.5460  -61.7870  -13.8760 C.cat 276  ARG276      0.5346
    145  NH1      -39.2170  -61.7970  -13.9010 N.pl3 276  ARG276      0.1354
    146  NH2      -41.1860  -61.0130  -13.0000 N.pl3 276  ARG276      0.1354
    147  N        -36.7630  -60.9420    0.7930 N.3   307  LEU307     -0.1245
    148  CA       -36.7000  -60.3600   -0.5350 C.3   307  LEU307      0.1561
    149  C        -35.8200  -61.2730   -1.3960 C.2   307  LEU307      0.2260
    150  O        -35.3430  -60.8900   -2.4690 O.2   307  LEU307     -0.2867
    151  CB       -36.1660  -58.9200   -0.5070 C.3   307  LEU307      0.0270
    152  CG       -37.2140  -57.8620   -0.1000 C.3   307  LEU307      0.0019
    153  CD1      -36.6190  -56.4710   -0.2760 C.3   307  LEU307      0.0001
    154  CD2      -38.4840  -57.9890   -0.9460 C.3   307  LEU307      0.0001
    155  N        -36.3530  -63.3420   -3.5070 N.3   309  LEU309     -0.1231
    156  CA       -37.4450  -63.7380   -4.3780 C.3   309  LEU309      0.1693
    157  C        -37.1470  -64.7390   -5.4810 C.2   309  LEU309      0.2591
    158  O        -38.0750  -65.3140   -6.0480 O.2   309  LEU309     -0.2718
    159  CB       -38.1370  -62.4710   -4.9000 C.3   309  LEU309      0.0284
    160  CG       -38.6320  -61.6640   -3.6810 C.3   309  LEU309      0.0019
    161  CD1      -39.3900  -60.3930   -4.0910 C.3   309  LEU309      0.0001
    162  CD2      -39.5310  -62.5520   -2.8410 C.3   309  LEU309      0.0001
    163  N        -35.8710  -64.9700   -5.7820 N.am  310  ARG310     -0.1980
    164  CA       -35.5430  -65.9850   -6.7690 C.3   310  ARG310      0.1597
    165  C        -35.9070  -67.3230   -6.1050 C.2   310  ARG310      0.2287
    166  O        -36.5230  -68.1830   -6.7300 O.2   310  ARG310     -0.2864
    167  CB       -34.0490  -65.9830   -7.1170 C.3   310  ARG310      0.0334
    168  CG       -33.7110  -66.9550   -8.2500 C.3   310  ARG310      0.0492
    169  CD       -32.2230  -66.9900   -8.5570 C.3   310  ARG310      0.2205
    170  NE       -31.4590  -67.6020   -7.4730 N.pl3 310  ARG310     -0.0865
    171  CZ       -30.1300  -67.6840   -7.4520 C.cat 310  ARG310      0.5346
    172  NH1      -29.4230  -67.1910   -8.4590 N.pl3 310  ARG310      0.1354
    173  NH2      -29.5140  -68.2640   -6.4280 N.pl3 310  ARG310      0.1354
    174  N        -39.5750  -67.6210   -5.7220 N.3   313  GLY313     -0.1225
    175  CA       -40.0930  -67.8700   -7.0550 C.3   313  GLY313      0.1811
    176  C        -39.9000  -69.3350   -7.4070 C.2   313  GLY313      0.2280
    177  O        -40.6930  -69.9320   -8.1350 O.2   313  GLY313     -0.2866
    178  N        -42.8430  -71.9430   -8.6530 N.3   317  ARG317     -0.1245
    179  CA       -42.7890  -72.8220   -9.8120 C.3   317  ARG317      0.1563
    180  C        -42.8750  -74.2880   -9.4440 C.2   317  ARG317      0.2260
    181  O        -43.5280  -75.0660  -10.1530 O.2   317  ARG317     -0.2867
    182  CB       -41.5460  -72.5440  -10.6760 C.3   317  ARG317      0.0307
    183  CG       -41.6580  -71.2220  -11.4750 C.3   317  ARG317      0.0489
    184  CD       -40.4910  -71.0060  -12.4580 C.3   317  ARG317      0.2205
    185  NE       -39.2210  -70.9080  -11.7520 N.pl3 317  ARG317     -0.0865
    186  CZ       -38.8360  -69.8470  -11.0590 C.cat 317  ARG317      0.5346
    187  NH1      -39.6180  -68.7810  -10.9880 N.pl3 317  ARG317      0.1354
    188  NH2      -37.6800  -69.8600  -10.4210 N.pl3 317  ARG317      0.1354
@<TRIPOS>BOND
     1    88    89    1
     2    82    81    2
     3    91    90    2
     4   139   138    2
     5    87    85   am
     6    84    83    1
     7    84    85    1
     8    80    81    1
     9    80    83    1
    10    80    79    1
    11    89    92    1
    12    89    90    1
    13    85    86    2
    14    92    93    1
    15   138   137    1
    16   137   136    1
    17   137   140    1
    18   141   140    1
    19   141   142    1
    20    93    95   ar
    21    93    94   ar
    22    95    97   ar
    23   142   143    1
    24     9     7   am
    25    70    69    1
    26    94    96   ar
    27    68    67    2
    28   143   144    2
    29    97    98   ar
    30    74    73    2
    31    99   100    1
    32     7     8    2
    33     7     6    1
    34   145   144    1
    35   144   146    1
    36    69    66    1
    37    67    66    1
    38    67    71   am
    39   121   120    2
    40    96    98   ar
    41   102   101    2
    42    66    65    1
    43   130   129    2
    44    73    72    1
    45    72    71    1
    46    72    75    1
    47     6     5    1
    48   100   103    1
    49   100   101    1
    50   103   104    1
    51   120   119    1
    52   120   127   am
    53   184   185    1
    54   184   183    1
    55   129   128    1
    56    76    75    1
    57    76    77    1
    58   119   122    1
    59   119   118    1
    60     5     2    1
    61   122   123    1
    62    59    58    2
    63    65    58   am
    64   185   186    2
    65   128   127    1
    66   128   131    1
    67    78    77    1
    68     1     2    1
    69   183   182    1
    70    58    57    1
    71   186   187    1
    72   186   188    1
    73   104   106   ar
    74   104   105   ar
    75     2     3    1
    76   182   179    1
    77   134   133   ar
    78   123   124    1
    79   125   124    2
    80    16    14    1
    81   135   133   ar
    82   131   132    1
    83   124   126   am
    84   133   132    1
    85   181   180    2
    86     3    10   am
    87     3     4    2
    88   179   180    1
    89   179   178    1
    90    55    54    2
    91    57    60    1
    92    57    56    1
    93    10    11    1
    94    60    61    1
    95    54    56   am
    96    54    53    1
    97    14    11    1
    98    14    15    1
    99    11    12    1
   100   110   109    2
   101   169   168    1
   102   169   170    1
   103    53    52    1
   104   172   171    1
   105   168   167    1
   106   177   176    2
   107    61    62    1
   108    63    62    1
   109    63    64    1
   110   109   108    1
   111   170   171    2
   112   171   173    1
   113    52    47   am
   114   176   175    1
   115    12    13    2
   116    12    17   am
   117   167   164    1
   118   108   107    1
   119   108   111    1
   120   175   174    1
   121   115   113   ar
   122   115   117   ar
   123   164   165    1
   124   164   163    1
   125   166   165    2
   126   113   112   ar
   127    42    41    1
   128    42    43    1
   129    41    36   am
   130    17    18    1
   131   117   116   ar
   132    47    48    2
   133    47    46    1
   134   158   157    2
   135    24    22    1
   136   112   111    1
   137   112   114   ar
   138    45    43   am
   139    45    46    1
   140    38    35    1
   141    38    39    1
   142    22    21    1
   143    43    44    2
   144   163   157   am
   145   116   114   ar
   146    35    36    1
   147    35    34    1
   148   157   156    1
   149    36    37    2
   150    46    49    1
   151    18    21    1
   152    18    19    1
   153    51    49    1
   154   159   156    1
   155   159   160    1
   156    28    27    2
   157    21    23    1
   158    39    40    1
   159    29    30    1
   160    29    26    1
   161   156   155    1
   162    34    40    1
   163    49    50    1
   164    30    31    1
   165   161   160    1
   166    19    20    2
   167    27    26    1
   168   160   162    1
   169    26    25    1
   170    31    33   am
   171    31    32    2
   172   150   149    2
   173   149   148    1
   174   154   152    1
   175   148   151    1
   176   148   147    1
   177   151   152    1
   178   153   152    1
