@<TRIPOS>MOLECULE
tmp/3k1uA00.pdb
 106 102 0 0 0
SMALL
GASTEIGER

@<TRIPOS>ATOM
      1  N          9.8880   -4.6920   14.8840 N.3    11  ASP11      -0.1239
      2  CA         9.8470   -3.2420   15.0280 C.3    11  ASP11       0.1674
      3  C         10.9960   -2.6410   14.1770 C.2    11  ASP11       0.2266
      4  O         11.8230   -1.8530   14.6370 O.2    11  ASP11      -0.2867
      5  CB         9.9710   -2.8340   16.4830 C.3    11  ASP11       0.1410
      6  CG         9.0350   -3.5820   17.3680 C.2    11  ASP11       0.3668
      7  OD1        7.8570   -3.7930   16.9770 O.co2  11  ASP11      -0.2456
      8  OD2        9.4470   -4.0550   18.4420 O.co2  11  ASP11      -0.2456
      9  N         12.9290   -2.1740   23.9920 N.3    65  TRP65      -0.1227
     10  CA        11.9790   -2.2670   22.8890 C.3    65  TRP65       0.1737
     11  C         12.0460   -1.1590   21.8480 C.2    65  TRP65       0.2595
     12  O         12.0810    0.0160   22.2070 O.2    65  TRP65      -0.2718
     13  CB        10.5330   -2.3490   23.3980 C.3    65  TRP65       0.0564
     14  CG        10.1010   -3.6520   23.9810 C.ar   65  TRP65       0.0003
     15  CD1       10.7970   -4.7980   23.9790 C.ar   65  TRP65       0.0946
     16  CD2        8.8530   -3.9160   24.6200 C.ar   65  TRP65       0.0152
     17  NE1       10.0810   -5.7810   24.6240 N.ar   65  TRP65      -0.2442
     18  CE2        8.8620   -5.2820   24.9870 C.ar   65  TRP65       0.0810
     19  CE3        7.7180   -3.1470   24.8780 C.ar   65  TRP65       0.0012
     20  CZ2        7.7930   -5.8950   25.5820 C.ar   65  TRP65       0.0191
     21  CZ3        6.6560   -3.7530   25.4710 C.ar   65  TRP65       0.0001
     22  CH2        6.7100   -5.1020   25.8380 C.ar   65  TRP65       0.0015
     23  N         12.0340   -1.5780   20.5860 N.am   66  ALA66      -0.1980
     24  CA        11.7100   -0.7630   19.4250 C.3    66  ALA66       0.1597
     25  C         12.5570    0.4920   19.3100 C.2    66  ALA66       0.2287
     26  O         12.0320    1.6200   19.1900 O.2    66  ALA66      -0.2864
     27  CB        10.2130   -0.4260   19.4090 C.3    66  ALA66       0.0319
     28  N          6.0460    3.9750   25.1370 N.3   126  LEU126     -0.1231
     29  CA         6.9130    3.2630   24.2220 C.3   126  LEU126      0.1693
     30  C          6.7440    3.7440   22.7850 C.2   126  LEU126      0.2592
     31  O          5.8160    4.5160   22.4340 O.2   126  LEU126     -0.2718
     32  CB         6.6250    1.7660   24.2640 C.3   126  LEU126      0.0284
     33  CG         5.3110    1.2390   23.7480 C.3   126  LEU126      0.0019
     34  CD1        5.4610   -0.3040   23.6110 C.3   126  LEU126      0.0001
     35  CD2        4.1000    1.6490   24.5840 C.3   126  LEU126      0.0001
     36  N          7.6420    3.2580   21.9260 N.am  127  ASP127     -0.1974
     37  CA         7.5050    3.3610   20.4870 C.3   127  ASP127      0.1709
     38  C          7.5200    4.7890   19.9640 C.2   127  ASP127      0.2293
     39  O          6.9270    5.1120   18.9450 O.2   127  ASP127     -0.2864
     40  CB         6.2440    2.6530   19.9740 C.3   127  ASP127      0.1436
     41  CG         6.2550    1.1770   20.2050 C.2   127  ASP127      0.3671
     42  OD1        7.2590    0.5490   20.5600 O.co2 127  ASP127     -0.2456
     43  OD2        5.1620    0.5670   19.9390 O.co2 127  ASP127     -0.2456
     44  N         -0.2060    1.3890   18.9690 N.3   186  GLU186     -0.1231
     45  CA         1.2220    1.5490   19.2810 C.3   186  GLU186      0.1699
     46  C          2.0030    1.7230   17.9650 C.2   186  GLU186      0.2592
     47  O          1.4060    1.9060   16.9160 O.2   186  GLU186     -0.2718
     48  CB         1.7030    0.3540   20.1450 C.3   186  GLU186      0.0402
     49  CG         1.6560   -0.9850   19.4030 C.3   186  GLU186      0.1161
     50  CD         2.0080   -2.1650   20.2750 C.2   186  GLU186      0.3649
     51  OE1        2.1850   -2.0370   21.5200 O.co2 186  GLU186     -0.2457
     52  OE2        2.1310   -3.2610   19.6820 O.co2 186  GLU186     -0.2457
     53  N          3.3310    1.6880   18.0130 N.am  187  GLY187     -0.1957
     54  CA         4.1310    1.7120   16.7990 C.3   187  GLY187      0.1869
     55  C          3.8630    2.7780   15.7640 C.2   187  GLY187      0.2309
     56  O          3.7420    2.4880   14.5830 O.2   187  GLY187     -0.2863
     57  N         -0.0740   -8.7260   19.3610 N.3   206  THR206     -0.1218
     58  CA         1.0810   -8.9780   18.4450 C.3   206  THR206      0.1862
     59  C          1.0790  -10.3910   17.9180 C.2   206  THR206      0.2287
     60  O          2.1620  -11.0480   17.8330 O.2   206  THR206     -0.2866
     61  CB         2.4120   -8.7300   19.1370 C.3   206  THR206      0.1770
     62  OG1        2.5470   -9.5850   20.2930 O.3   206  THR206     -0.2211
     63  CG2        2.4800   -7.2810   19.5970 C.3   206  THR206      0.0375
     64  N         -2.5650   -8.5460   14.5680 N.3   210  TYR210     -0.1241
     65  CA        -1.8520   -7.2670   14.4600 C.3   210  TYR210      0.1605
     66  C         -2.0690   -6.6660   13.1040 C.2   210  TYR210      0.2264
     67  O         -2.0940   -7.3750   12.0740 O.2   210  TYR210     -0.2867
     68  CB        -0.4040   -7.4620   14.7140 C.3   210  TYR210      0.0534
     69  CG         0.4170   -6.3210   15.3090 C.ar  210  TYR210     -0.0201
     70  CD1       -0.0310   -5.6280   16.4360 C.ar  210  TYR210     -0.0009
     71  CD2        1.7020   -6.0270   14.8440 C.ar  210  TYR210     -0.0009
     72  CE1        0.7680   -4.7200   17.0620 C.ar  210  TYR210      0.0417
     73  CE2        2.4720   -5.0800   15.4380 C.ar  210  TYR210      0.0417
     74  CZ         2.0010   -4.4300   16.5490 C.ar  210  TYR210      0.1957
     75  OH         2.8310   -3.5210   17.1740 O.3   210  TYR210     -0.2866
     76  N          4.1190   -2.6920   13.3000 N.3   248  HIS248     -0.1241
     77  CA         5.1400   -1.7130   13.7630 C.3   248  HIS248      0.1621
     78  C          6.0580   -1.3570   12.6380 C.2   248  HIS248      0.2264
     79  O          7.1950   -1.7450   12.5810 O.2   248  HIS248     -0.2867
     80  CB         5.8720   -2.0780   15.0290 C.3   248  HIS248      0.0745
     81  CG         6.5680   -0.9100   15.6530 C.ar  248  HIS248      0.0817
     82  ND1        6.8380   -0.8450   16.9950 N.ar  248  HIS248     -0.2268
     83  CD2        6.9800    0.2810   15.1270 C.ar  248  HIS248      0.1154
     84  CE1        7.4660    0.2940   17.2550 C.ar  248  HIS248      0.1986
     85  NE2        7.5900    0.9930   16.1400 N.ar  248  HIS248     -0.2212
     86  N          7.2950   -5.7200   10.2460 N.3   265  HIS265     -0.1241
     87  CA         7.5120   -7.1280   10.6120 C.3   265  HIS265      0.1621
     88  C          6.2320   -7.9170   10.4260 C.2   265  HIS265      0.2264
     89  O          5.1540   -7.3520   10.4570 O.2   265  HIS265     -0.2867
     90  CB         8.0860   -7.2940   12.0510 C.3   265  HIS265      0.0745
     91  CG         7.1240   -6.9510   13.1310 C.ar  265  HIS265      0.0817
     92  ND1        7.4460   -6.0280   14.0930 N.ar  265  HIS265     -0.2268
     93  CD2        5.8960   -7.4330   13.4520 C.ar  265  HIS265      0.1154
     94  CE1        6.4350   -5.9550   14.9630 C.ar  265  HIS265      0.1986
     95  NE2        5.4890   -6.8050   14.6000 N.ar  265  HIS265     -0.2212
     96  N          9.0260  -12.9560   14.3090 N.3   282  ARG282     -0.1245
     97  CA         8.6380  -11.8080   13.4950 C.3   282  ARG282      0.1563
     98  C          9.8520  -11.4150   12.6520 C.2   282  ARG282      0.2260
     99  O         10.9440  -11.1350   13.1980 O.2   282  ARG282     -0.2867
    100  CB         8.1880  -10.6450   14.3800 C.3   282  ARG282      0.0307
    101  CG         6.8770  -10.9270   15.0580 C.3   282  ARG282      0.0489
    102  CD         6.4610   -9.9290   16.0900 C.3   282  ARG282      0.2205
    103  NE         7.3970   -9.8970   17.2090 N.pl3 282  ARG282     -0.0865
    104  CZ         7.4270   -8.9170   18.1190 C.cat 282  ARG282      0.5346
    105  NH1        6.5480   -7.9160   18.0980 N.pl3 282  ARG282      0.1354
    106  NH2        8.3700   -8.9590   19.0370 N.pl3 282  ARG282      0.1354
@<TRIPOS>BOND
     1    86    87    1
     2    88    89    2
     3    88    87    1
     4    87    90    1
     5    90    91    1
     6    67    66    2
     7    79    78    2
     8    78    77    1
     9    98    99    2
    10    98    97    1
    11    66    65    1
    12    91    93   ar
    13    91    92   ar
    14    76    77    1
    15    93    95   ar
    16    97    96    1
    17    97   100    1
    18    77    80    1
    19    92    94   ar
    20     3     4    2
    21     3     2    1
    22   100   101    1
    23    65    64    1
    24    65    68    1
    25    56    55    2
    26    95    94   ar
    27    68    69    1
    28    71    69   ar
    29    71    73   ar
    30     1     2    1
    31     2     5    1
    32    80    81    1
    33   101   102    1
    34    83    81   ar
    35    83    85   ar
    36    69    70   ar
    37    73    74   ar
    38    81    82   ar
    39    55    54    1
    40   102   103    1
    41    85    84   ar
    42    70    72   ar
    43     5     6    1
    44    74    72   ar
    45    74    75    1
    46    54    53    1
    47    47    46    2
    48     7     6   ar
    49    82    84   ar
    50   103   104    2
    51     6     8   ar
    52    60    59    2
    53    59    58    1
    54    46    53   am
    55    46    45    1
    56   105   104    1
    57   104   106    1
    58    58    61    1
    59    58    57    1
    60    39    38    2
    61    44    45    1
    62    61    63    1
    63    61    62    1
    64    26    25    2
    65    45    48    1
    66    25    24    1
    67    49    48    1
    68    49    50    1
    69    27    24    1
    70    24    23    1
    71    52    50   ar
    72    43    41   ar
    73    38    37    1
    74    40    41    1
    75    40    37    1
    76    41    42   ar
    77    50    51   ar
    78    37    36    1
    79    23    11   am
    80    11    12    2
    81    11    10    1
    82    36    30   am
    83    31    30    2
    84    30    29    1
    85    10    13    1
    86    10     9    1
    87    13    14    1
    88    34    33    1
    89    33    32    1
    90    33    35    1
    91    15    14   ar
    92    15    17   ar
    93    14    16   ar
    94    29    32    1
    95    29    28    1
    96    16    19   ar
    97    16    18   ar
    98    17    18   ar
    99    19    21   ar
   100    18    20   ar
   101    21    22   ar
   102    20    22   ar
