@<TRIPOS>MOLECULE
tmp/3k1wA00.pdb
 206 196 0 0 0
SMALL
GASTEIGER

@<TRIPOS>ATOM
      1  N         -2.9840    9.2910   11.9370 N.3    15  THR15      -0.1203
      2  CA        -2.1100    8.3580   11.1970 C.3    15  THR15       0.1994
      3  C         -1.5090    8.9300    9.9400 C.2    15  THR15       0.2617
      4  O         -0.5730    8.3420    9.4040 O.2    15  THR15      -0.2717
      5  CB        -2.8700    7.0430   10.8200 C.3    15  THR15       0.1784
      6  OG1       -4.0180    7.3790   10.0040 O.3    15  THR15      -0.2211
      7  CG2       -3.4340    6.3280   12.0610 C.3    15  THR15       0.0376
      8  N         -2.0830   10.0240    9.4570 N.am   16  GLN16      -0.1979
      9  CA        -1.5650   10.6610    8.2320 C.3    16  GLN16       0.1601
     10  C         -1.4940   12.1490    8.4460 C.2    16  GLN16       0.2287
     11  O         -2.4930   12.7680    8.8330 O.2    16  GLN16      -0.2864
     12  CB        -2.4820   10.3710    7.0360 C.3    16  GLN16       0.0394
     13  CG        -2.7990    8.8720    6.8300 C.3    16  GLN16       0.0908
     14  CD        -3.7130    8.6410    5.6420 C.2    16  GLN16       0.2608
     15  OE1       -3.9680    9.5680    4.8350 O.2    16  GLN16      -0.2717
     16  NE2       -4.1970    7.4070    5.5020 N.am   16  GLN16      -0.0878
     17  N          2.6750   13.8740    2.2510 N.3    33  VAL33      -0.1245
     18  CA         3.3770   13.5890    3.5250 C.3    33  VAL33       0.1561
     19  C          4.8290   13.9790    3.3740 C.2    33  VAL33       0.2260
     20  O          5.4640   13.6330    2.3530 O.2    33  VAL33      -0.2867
     21  CB         3.3060   12.0830    3.8900 C.3    33  VAL33       0.0252
     22  CG1        4.2070   11.7530    5.1230 C.3    33  VAL33       0.0019
     23  CG2        1.8810   11.7090    4.2040 C.3    33  VAL33       0.0019
     24  N          8.2670   13.1600    4.5670 N.3    35  ASP35      -0.1239
     25  CA         8.6520   11.8240    5.0930 C.3    35  ASP35       0.1674
     26  C         10.1520   11.6710    5.2810 C.2    35  ASP35       0.2266
     27  O         10.8700   11.5480    4.3040 O.2    35  ASP35      -0.2867
     28  CB         8.1580   10.7960    4.0910 C.3    35  ASP35       0.1410
     29  CG         8.5290    9.3690    4.4350 C.2    35  ASP35       0.3668
     30  OD1        8.6690    9.0360    5.6370 O.co2  35  ASP35      -0.2456
     31  OD2        8.6020    8.5220    3.5010 O.co2  35  ASP35      -0.2456
     32  N         11.6660    9.1850    6.3470 N.3    37  GLY37      -0.1210
     33  CA        12.0190    7.8040    6.0860 C.3    37  GLY37       0.1956
     34  C         12.1330    7.4510    4.6180 C.2    37  GLY37       0.2612
     35  O         12.2140    6.2750    4.2550 O.2    37  GLY37      -0.2717
     36  N         12.1210    8.4550    3.7460 N.am   38  SER38      -0.1952
     37  CA        12.4200    8.2250    2.3360 C.3    38  SER38       0.1924
     38  C         13.0060    9.4720    1.7110 C.2    38  SER38       0.2314
     39  O         13.0260   10.5350    2.3380 O.2    38  SER38      -0.2863
     40  CB        11.2000    7.7480    1.5870 C.3    38  SER38       0.2116
     41  OG        10.2560    8.7800    1.4780 O.3    38  SER38      -0.2180
     42  N          7.3820   11.7790   -4.9000 N.3    42  TRP42      -0.1241
     43  CA         6.4690   11.0000   -5.7450 C.3    42  TRP42       0.1605
     44  C          5.1110   11.6910   -5.7880 C.2    42  TRP42       0.2264
     45  O          4.5740   12.0680   -4.7210 O.2    42  TRP42      -0.2867
     46  CB         6.2060    9.6240   -5.1270 C.3    42  TRP42       0.0550
     47  CG         7.3490    8.6050   -5.0810 C.ar   42  TRP42       0.0003
     48  CD1        8.1040    8.2700   -3.9920 C.ar   42  TRP42       0.0946
     49  CD2        7.7640    7.7280   -6.1380 C.ar   42  TRP42       0.0152
     50  NE1        8.9930    7.2690   -4.3180 N.ar   42  TRP42      -0.2442
     51  CE2        8.8020    6.9150   -5.6270 C.ar   42  TRP42       0.0810
     52  CE3        7.3770    7.5610   -7.4820 C.ar   42  TRP42       0.0012
     53  CZ2        9.4610    5.9570   -6.4060 C.ar   42  TRP42       0.0191
     54  CZ3        8.0400    6.6010   -8.2600 C.ar   42  TRP42       0.0001
     55  CH2        9.0590    5.8050   -7.7030 C.ar   42  TRP42       0.0015
     56  N          1.2030   11.0340   -8.2210 N.3    44  PRO44      -0.2116
     57  CA         0.6100   10.1690   -9.2480 C.3    44  PRO44       0.1372
     58  C          0.7240   10.8530  -10.6150 C.2    44  PRO44       0.2244
     59  O          0.6560   12.0940  -10.7100 O.2    44  PRO44      -0.2868
     60  CB        -0.8630   10.0530   -8.8310 C.3    44  PRO44       0.0268
     61  CG        -0.8900   10.4530   -7.4100 C.3    44  PRO44       0.0207
     62  CD         0.1880   11.5320   -7.2820 C.3    44  PRO44       0.0892
     63  N         -6.9560   10.1880   -6.3560 N.3    58  HIS58      -0.1241
     64  CA        -5.9630   11.2020   -6.0030 C.3    58  HIS58       0.1621
     65  C         -5.7680   12.1950   -7.1530 C.2    58  HIS58       0.2264
     66  O         -6.2220   11.9470   -8.2780 O.2    58  HIS58      -0.2867
     67  CB        -4.6490   10.5370   -5.6630 C.3    58  HIS58       0.0745
     68  CG        -4.6990    9.7450   -4.3940 C.ar   58  HIS58       0.0817
     69  ND1       -4.3780    8.4040   -4.3370 N.ar   58  HIS58      -0.2268
     70  CD2       -5.0730   10.1000   -3.1420 C.ar   58  HIS58       0.1154
     71  CE1       -4.5280    7.9750   -3.0930 C.ar   58  HIS58       0.1986
     72  NE2       -4.9580    8.9810   -2.3520 N.ar   58  HIS58      -0.2212
     73  N         10.0350    1.0000   -6.8630 N.3    78  LEU78      -0.1245
     74  CA        10.1270    0.6510   -5.4510 C.3    78  LEU78       0.1561
     75  C          9.3890   -0.6530   -5.2170 C.2    78  LEU78       0.2260
     76  O          8.1830   -0.7510   -5.4620 O.2    78  LEU78      -0.2867
     77  CB         9.5360    1.7520   -4.5840 C.3    78  LEU78       0.0270
     78  CG         9.5430    1.5110   -3.0750 C.3    78  LEU78       0.0019
     79  CD1       10.9620    1.5090   -2.5100 C.3    78  LEU78       0.0001
     80  CD2        8.6900    2.5490   -2.3780 C.3    78  LEU78       0.0001
     81  N          7.7940   -2.3030   -2.9540 N.3    80  TYR80      -0.1241
     82  CA         7.0750   -2.1070   -1.6990 C.3    80  TYR80       0.1605
     83  C          6.4500   -3.4180   -1.1870 C.2    80  TYR80       0.2264
     84  O          6.2640   -4.3540   -1.9630 O.2    80  TYR80      -0.2867
     85  CB         6.0170   -1.0080   -1.8850 C.3    80  TYR80       0.0534
     86  CG         5.3450   -0.6170   -0.5990 C.ar   80  TYR80      -0.0201
     87  CD1        4.0830   -1.1020   -0.2720 C.ar   80  TYR80      -0.0009
     88  CD2        5.9900    0.2190    0.3110 C.ar   80  TYR80      -0.0009
     89  CE1        3.4630   -0.7480    0.9240 C.ar   80  TYR80       0.0417
     90  CE2        5.3830    0.5760    1.5110 C.ar   80  TYR80       0.0417
     91  CZ         4.1320    0.0870    1.8120 C.ar   80  TYR80       0.1957
     92  OH         3.5450    0.4310    2.9990 O.3    80  TYR80      -0.2866
     93  N          5.6100   -0.2250   -6.7640 N.3    85  VAL85      -0.1245
     94  CA         5.3350    1.1660   -7.1570 C.3    85  VAL85       0.1561
     95  C          6.3510    1.5380   -8.2560 C.2    85  VAL85       0.2260
     96  O          7.5570    1.5050   -8.0430 O.2    85  VAL85      -0.2867
     97  CB         5.4700    2.1580   -5.9420 C.3    85  VAL85       0.0252
     98  CG1        5.2580    3.6350   -6.3770 C.3    85  VAL85       0.0019
     99  CG2        4.4730    1.7850   -4.8270 C.3    85  VAL85       0.0019
    100  N          4.2040    8.4810  -10.6110 N.3   108  VAL108     -0.1245
    101  CA         3.7610    7.0950  -10.4820 C.3   108  VAL108      0.1561
    102  C          2.7440    6.6920  -11.5570 C.2   108  VAL108      0.2260
    103  O          1.7440    7.3610  -11.7280 O.2   108  VAL108     -0.2867
    104  CB         3.1430    6.8940   -9.0890 C.3   108  VAL108      0.0252
    105  CG1        2.6270    5.4370   -8.9280 C.3   108  VAL108      0.0019
    106  CG2        4.1750    7.2020   -7.9940 C.3   108  VAL108      0.0019
    107  N          0.7400    1.4300   -8.8230 N.3   111  MET111     -0.1245
    108  CA         1.0700    1.1450   -7.4220 C.3   111  MET111      0.1570
    109  C         -0.0850    0.3410   -6.8890 C.2   111  MET111      0.2261
    110  O         -1.2140    0.4950   -7.3660 O.2   111  MET111     -0.2867
    111  CB         1.2880    2.4380   -6.6080 C.3   111  MET111      0.0387
    112  CG         0.1990    3.4630   -6.7370 C.3   111  MET111      0.0595
    113  SD         0.5330    4.8770   -5.6400 S.3   111  MET111     -0.1393
    114  CE        -0.4360    6.1260   -6.4760 C.3   111  MET111      0.0692
    115  N         -1.5020   -0.2350    0.5530 N.3   115  PRO115     -0.2102
    116  CA        -2.3410    0.6510    1.3480 C.3   115  PRO115      0.1504
    117  C         -2.7060    1.9810    0.6850 C.2   115  PRO115      0.2575
    118  O         -3.4970    2.7540    1.2520 O.2   115  PRO115     -0.2718
    119  CB        -1.4360    0.9410    2.5520 C.3   115  PRO115      0.0282
    120  CG        -0.0530    0.9000    2.0160 C.3   115  PRO115      0.0208
    121  CD        -0.0690   -0.0540    0.8320 C.3   115  PRO115      0.0893
    122  N         -2.1770    2.2230   -0.5180 N.am  116  PHE116     -0.1977
    123  CA        -2.2190    3.5670   -1.0990 C.3   116  PHE116      0.1639
    124  C         -3.5860    4.1480   -1.4210 C.2   116  PHE116      0.2290
    125  O         -3.7430    5.3730   -1.4170 O.2   116  PHE116     -0.2864
    126  CB        -1.2220    3.6640   -2.2570 C.3   116  PHE116      0.0560
    127  CG         0.1380    3.1760   -1.8760 C.ar  116  PHE116     -0.0200
    128  CD1        0.8610    3.8250   -0.8600 C.ar  116  PHE116     -0.0042
    129  CD2        0.6950    2.0490   -2.4630 C.ar  116  PHE116     -0.0042
    130  CE1        2.1270    3.3670   -0.4770 C.ar  116  PHE116     -0.0003
    131  CE2        1.9550    1.5770   -2.0780 C.ar  116  PHE116     -0.0003
    132  CZ         2.6900    2.2480   -1.0760 C.ar  116  PHE116     -0.0000
    133  N         -5.9480    4.1310    0.5480 N.3   118  LEU118     -0.1231
    134  CA        -6.4960    4.6040    1.8270 C.3   118  LEU118      0.1693
    135  C         -5.7860    5.8700    2.2730 C.2   118  LEU118      0.2591
    136  O         -6.1020    6.4310    3.3360 O.2   118  LEU118     -0.2718
    137  CB        -6.3940    3.5160    2.8990 C.3   118  LEU118      0.0284
    138  CG        -7.0810    2.1890    2.5030 C.3   118  LEU118      0.0019
    139  CD1       -6.7010    1.0500    3.4400 C.3   118  LEU118      0.0001
    140  CD2       -8.5770    2.3340    2.3990 C.3   118  LEU118      0.0001
    141  N         -4.8280    6.3260    1.4650 N.am  119  ALA119     -0.1980
    142  CA        -4.1760    7.5980    1.7370 C.3   119  ALA119      0.1597
    143  C         -5.1240    8.7560    1.4260 C.2   119  ALA119      0.2287
    144  O         -5.7220    8.7910    0.3320 O.2   119  ALA119     -0.2864
    145  CB        -2.9010    7.7340    0.9440 C.3   119  ALA119      0.0319
    146  N         -3.8330   11.7470    1.3390 N.3   121  PHE121     -0.1227
    147  CA        -2.8760   12.6060    0.6400 C.3   121  PHE121      0.1736
    148  C         -2.5920   12.0310   -0.7510 C.2   121  PHE121      0.2595
    149  O         -2.8750   10.8630   -1.0280 O.2   121  PHE121     -0.2718
    150  CB        -1.6030   12.6930    1.4600 C.3   121  PHE121      0.0547
    151  CG        -1.0040   11.3470    1.8070 C.ar  121  PHE121     -0.0202
    152  CD1       -1.3870   10.6560    2.9830 C.ar  121  PHE121     -0.0042
    153  CD2       -0.0460   10.7570    0.9580 C.ar  121  PHE121     -0.0042
    154  CE1       -0.7980    9.4200    3.2890 C.ar  121  PHE121     -0.0003
    155  CE2        0.5140    9.5180    1.2620 C.ar  121  PHE121     -0.0003
    156  CZ         0.1170    8.8560    2.4240 C.ar  121  PHE121     -0.0000
    157  N         -2.0380   12.8660   -1.6260 N.am  122  ASP122     -0.1960
    158  CA        -1.7920   12.5170   -3.0340 C.3   122  ASP122      0.1840
    159  C         -0.3810   12.0640   -3.3230 C.2   122  ASP122      0.2623
    160  O         -0.1350   11.4140   -4.3330 O.2   122  ASP122     -0.2715
    161  CB        -2.0200   13.7550   -3.9150 C.3   122  ASP122      0.1450
    162  CG        -3.3670   14.3610   -3.7090 C.2   122  ASP122      0.3671
    163  OD1       -4.3670   13.6680   -3.9680 O.co2 122  ASP122     -0.2456
    164  OD2       -3.5240   15.5160   -3.2540 O.co2 122  ASP122     -0.2456
    165  N          0.5680   12.4200   -2.4620 N.am  123  GLY123     -0.1940
    166  CA         1.9580   12.1710   -2.7970 C.3   123  GLY123      0.2014
    167  C          2.8670   12.1410   -1.5730 C.2   123  GLY123      0.2638
    168  O          2.4140   12.2650   -0.4410 O.2   123  GLY123     -0.2714
    169  N          4.1550   11.9850   -1.8280 N.am  124  VAL124     -0.1977
    170  CA         5.1590   11.8820   -0.7670 C.3   124  VAL124      0.1596
    171  C          6.3360   12.7950   -1.1040 C.2   124  VAL124      0.2287
    172  O          6.7930   12.8170   -2.2520 O.2   124  VAL124     -0.2864
    173  CB         5.6720   10.4310   -0.6210 C.3   124  VAL124      0.0276
    174  CG1        6.6480   10.3110    0.5110 C.3   124  VAL124      0.0022
    175  CG2        4.4860    9.4290   -0.4080 C.3   124  VAL124      0.0022
    176  N         15.0110    4.7730   13.8490 N.3   216  LEU216     -0.1245
    177  CA        14.7730    5.5990   12.6670 C.3   216  LEU216      0.1561
    178  C         13.7020    6.5940   13.1060 C.2   216  LEU216      0.2260
    179  O         12.7160    6.1800   13.7010 O.2   216  LEU216     -0.2867
    180  CB        14.2380    4.7180   11.5400 C.3   216  LEU216      0.0270
    181  CG        13.7790    5.4450   10.2700 C.3   216  LEU216      0.0019
    182  CD1       14.9440    6.1270    9.5320 C.3   216  LEU216      0.0001
    183  CD2       13.0740    4.4610    9.3370 C.3   216  LEU216      0.0001
    184  N         10.9530    8.6570   11.8710 N.3   218  ASP218     -0.1239
    185  CA        10.2780    8.5910   10.5740 C.3   218  ASP218      0.1674
    186  C          8.9560    9.3800   10.5680 C.2   218  ASP218      0.2266
    187  O          7.9110    8.8920   10.9960 O.2   218  ASP218     -0.2867
    188  CB        10.0430    7.1310   10.1870 C.3   218  ASP218      0.1410
    189  CG         9.4220    6.9860    8.8190 C.2   218  ASP218      0.3668
    190  OD1        9.0900    8.0190    8.1780 O.co2 218  ASP218     -0.2456
    191  OD2        9.2410    5.8590    8.2950 O.co2 218  ASP218     -0.2456
    192  N          6.9570   10.0560    8.2910 N.3   220  GLY220     -0.1210
    193  CA         5.9410    9.5000    7.3990 C.3   220  GLY220      0.1956
    194  C          5.2880    8.2300    7.9160 C.2   220  GLY220      0.2612
    195  O          4.3740    7.7230    7.2540 O.2   220  GLY220     -0.2717
    196  N          5.7660    7.6910    9.0440 N.am  221  ALA221     -0.1965
    197  CA         5.2130    6.4760    9.6380 C.3   221  ALA221      0.1728
    198  C          4.1130    6.8720   10.6270 C.2   221  ALA221      0.2616
    199  O          4.2450    7.8920   11.3370 O.2   221  ALA221     -0.2715
    200  CB         6.2930    5.7400   10.3530 C.3   221  ALA221      0.0334
    201  N          3.0230    6.0940   10.6740 N.am  222  SER222     -0.1950
    202  CA         1.9180    6.4650   11.5460 C.3   222  SER222      0.1924
    203  C          2.2320    6.1790   13.0020 C.2   222  SER222      0.2314
    204  O          1.7950    6.8990   13.8990 O.2   222  SER222     -0.2863
    205  CB         0.6660    5.6680   11.1820 C.3   222  SER222      0.2116
    206  OG         0.3010    5.8530    9.8200 O.3   222  SER222     -0.2180
@<TRIPOS>BOND
     1   103   102    2
     2   102   101    1
     3    59    58    2
     4    58    57    1
     5   100   101    1
     6   101   104    1
     7    57    60    1
     8    57    56    1
     9   104   105    1
    10   104   106    1
    11    60    61    1
    12   107   108    1
    13    66    65    2
    14    54    55   ar
    15    54    52   ar
    16    95    96    2
    17    95    94    1
    18    56    62    1
    19    55    53   ar
    20    52    49   ar
    21   108   109    1
    22   108   111    1
    23    61    62    1
    24   110   109    2
    25    94    93    1
    26    94    97    1
    27    65    64    1
    28    73    74    1
    29   112   111    1
    30   112   113    1
    31   114   113    1
    32    53    51   ar
    33    98    97    1
    34    63    64    1
    35    49    51   ar
    36    49    47   ar
    37    64    67    1
    38    97    99    1
    39    44    43    1
    40    44    45    2
    41    43    46    1
    42    43    42    1
    43    67    68    1
    44    51    50   ar
    45    76    75    2
    46    74    75    1
    47    74    77    1
    48    46    47    1
    49    47    48   ar
    50    77    78    1
    51    68    69   ar
    52    68    70   ar
    53    69    71   ar
    54   160   159    2
    55    50    48   ar
    56   163   162   ar
    57   161   162    1
    58   161   158    1
    59   162   164   ar
    60   159   158    1
    61   159   165   am
    62    70    72   ar
    63    71    72   ar
    64    78    79    1
    65    78    80    1
    66   158   157    1
    67    81    82    1
    68   166   165    1
    69   166   167    1
    70   129   131   ar
    71   129   127   ar
    72   126   127    1
    73   126   123    1
    74   172   171    2
    75   131   132   ar
    76    84    83    2
    77    85    82    1
    78    85    86    1
    79   127   128   ar
    80   169   167   am
    81   169   170    1
    82    82    83    1
    83   157   148   am
    84   167   168    2
    85   124   125    2
    86   124   123    1
    87   171   170    1
    88   123   122    1
    89   132   130   ar
    90   149   148    2
    91   128   130   ar
    92   170   173    1
    93   148   147    1
    94   173   175    1
    95   173   174    1
    96    86    87   ar
    97    86    88   ar
    98   122   117   am
    99    87    89   ar
   100    88    90   ar
   101   144   143    2
   102   133   134    1
   103   115   121    1
   104   115   116    1
   105   147   146    1
   106   147   150    1
   107   117   118    2
   108   117   116    1
   109   121   120    1
   110    89    91   ar
   111   145   142    1
   112   153   155   ar
   113   153   151   ar
   114   155   156   ar
   115   116   119    1
   116   143   142    1
   117   150   151    1
   118   141   142    1
   119   141   135   am
   120    41    40    1
   121    90    91   ar
   122    40    37    1
   123    38    37    1
   124    38    39    2
   125   151   152   ar
   126    91    92    1
   127   134   135    1
   128   134   137    1
   129   120   119    1
   130    17    18    1
   131   135   136    2
   132    37    36    1
   133    20    19    2
   134   140   138    1
   135   156   154   ar
   136   138   137    1
   137   138   139    1
   138   152   154   ar
   139    19    18    1
   140    31    29   ar
   141    18    21    1
   142    36    34   am
   143    21    23    1
   144    21    22    1
   145    28    29    1
   146    28    25    1
   147    35    34    2
   148    27    26    2
   149    29    30   ar
   150    24    25    1
   151    34    33    1
   152    15    14    2
   153    25    26    1
   154    16    14   am
   155    14    13    1
   156    33    32    1
   157    13    12    1
   158    12     9    1
   159   195   194    2
   160   193   194    1
   161   193   192    1
   162   194   196   am
   163   190   189   ar
   164     9    10    1
   165     9     8    1
   166   191   189   ar
   167    10    11    2
   168   189   188    1
   169   196   197    1
   170   183   181    1
   171     4     3    2
   172     8     3   am
   173   182   181    1
   174   197   200    1
   175   197   198    1
   176   206   205    1
   177     3     2    1
   178     6     5    1
   179   188   185    1
   180   181   180    1
   181   186   185    1
   182   186   187    2
   183   185   184    1
   184   198   201   am
   185   198   199    2
   186   201   202    1
   187     5     2    1
   188     5     7    1
   189   205   202    1
   190     2     1    1
   191   180   177    1
   192   202   203    1
   193   177   178    1
   194   177   176    1
   195   203   204    2
   196   178   179    2
