@<TRIPOS>MOLECULE
tmp/3k22A00.pdb
 145 136 0 0 0
SMALL
GASTEIGER

@<TRIPOS>ATOM
      1  N        -15.7430   32.0460   14.7510 N.3    46  VAL46      -0.1231
      2  CA       -15.4040   33.3300   15.3620 C.3    46  VAL46       0.1692
      3  C        -14.4550   34.1160   14.4450 C.2    46  VAL46       0.2591
      4  O        -14.5560   35.3380   14.3400 O.2    46  VAL46      -0.2718
      5  CB       -14.7750   33.1600   16.7630 C.3    46  VAL46       0.0266
      6  CG1      -14.2240   34.4840   17.2710 C.3    46  VAL46       0.0020
      7  CG2      -15.8020   32.6080   17.7360 C.3    46  VAL46       0.0020
      8  N        -13.5440   33.4040   13.7840 N.am   47  ILE47      -0.1980
      9  CA       -12.6670   34.0130   12.7840 C.3    47  ILE47       0.1595
     10  C        -13.5140   34.5130   11.6260 C.2    47  ILE47       0.2287
     11  O        -13.2960   35.6100   11.1220 O.2    47  ILE47      -0.2864
     12  CB       -11.6180   33.0080   12.2560 C.3    47  ILE47       0.0276
     13  CG1      -10.6100   32.6640   13.3590 C.3    47  ILE47       0.0022
     14  CG2      -10.9130   33.5600   11.0140 C.3    47  ILE47       0.0022
     15  CD1       -9.8860   31.3490   13.1380 C.3    47  ILE47       0.0001
     16  N        -15.1800   37.7240   12.6770 N.3    50  VAL50      -0.1245
     17  CA       -14.2970   38.9000   12.6420 C.3    50  VAL50       0.1561
     18  C        -14.3370   39.5330   11.2490 C.2    50  VAL50       0.2260
     19  O        -14.6500   40.7180   11.1020 O.2    50  VAL50      -0.2867
     20  CB       -12.8410   38.5500   13.0180 C.3    50  VAL50       0.0252
     21  CG1      -11.9300   39.7510   12.8150 C.3    50  VAL50       0.0019
     22  CG2      -12.7580   38.0480   14.4590 C.3    50  VAL50       0.0019
     23  N        -15.8910   43.3230   10.3130 N.3    54  LYS54      -0.1245
     24  CA       -15.1810   44.3630    9.5540 C.3    54  LYS54       0.1561
     25  C        -16.0210   44.9540    8.4290 C.2    54  LYS54       0.2260
     26  O        -15.9670   46.1550    8.1790 O.2    54  LYS54      -0.2867
     27  CB       -13.9030   43.8120    8.9330 C.3    54  LYS54       0.0271
     28  CG       -12.8160   43.5270    9.9080 C.3    54  LYS54       0.0035
     29  CD       -11.6760   42.7650    9.2410 C.3    54  LYS54       0.0206
     30  CE       -10.8930   43.6110    8.2360 C.3    54  LYS54       0.1093
     31  NZ        -9.4990   43.0870    8.0540 N.3    54  LYS54      -0.1314
     32  N        -18.6640   49.7420   11.4330 N.3    59  PHE59      -0.1227
     33  CA       -17.8690   49.0080   12.4230 C.3    59  PHE59       0.1736
     34  C        -16.3710   49.3260   12.3490 C.2    59  PHE59       0.2595
     35  O        -15.7420   49.5410   13.3810 O.2    59  PHE59      -0.2718
     36  CB       -18.1040   47.4990   12.2870 C.3    59  PHE59       0.0547
     37  CG       -17.5580   46.6940   13.4370 C.ar   59  PHE59      -0.0202
     38  CD1      -18.2810   46.5620   14.6100 C.ar   59  PHE59      -0.0042
     39  CD2      -16.3240   46.0660   13.3420 C.ar   59  PHE59      -0.0042
     40  CE1      -17.7850   45.8240   15.6710 C.ar   59  PHE59      -0.0003
     41  CE2      -15.8200   45.3270   14.4000 C.ar   59  PHE59      -0.0003
     42  CZ       -16.5500   45.2060   15.5650 C.ar   59  PHE59      -0.0000
     43  N        -15.8160   49.3500   11.1350 N.am   60  ARG60      -0.1980
     44  CA       -14.4040   49.7210   10.8990 C.3    60  ARG60       0.1597
     45  C        -14.0200   51.0810   11.4870 C.2    60  ARG60       0.2287
     46  O        -12.9080   51.2640   11.9780 O.2    60  ARG60      -0.2864
     47  CB       -14.1070   49.7630    9.3980 C.3    60  ARG60       0.0334
     48  CG       -13.6170   48.4570    8.8230 C.3    60  ARG60       0.0492
     49  CD       -13.4550   48.5510    7.3060 C.3    60  ARG60       0.2205
     50  NE       -12.7110   47.4190    6.7470 N.pl3  60  ARG60      -0.0865
     51  CZ       -11.3870   47.2540    6.8240 C.cat  60  ARG60       0.5346
     52  NH1      -10.6120   48.1340    7.4610 N.pl3  60  ARG60       0.1354
     53  NH2      -10.8290   46.1840    6.2620 N.pl3  60  ARG60       0.1354
     54  N        -10.0730   50.5650   17.3290 N.3    64  LEU64      -0.1231
     55  CA        -9.6890   49.1500   17.2710 C.3    64  LEU64       0.1693
     56  C         -9.9860   48.4350   18.5970 C.2    64  LEU64       0.2592
     57  O        -10.5440   47.3410   18.6020 O.2    64  LEU64      -0.2718
     58  CB        -8.2070   49.0100   16.8910 C.3    64  LEU64       0.0284
     59  CG        -7.7130   47.6610   16.3540 C.3    64  LEU64       0.0019
     60  CD1       -8.3750   47.3220   15.0270 C.3    64  LEU64       0.0001
     61  CD2       -6.1870   47.6860   16.2050 C.3    64  LEU64       0.0001
     62  N         -9.6430   49.0650   19.7190 N.am   65  ASP65      -0.1974
     63  CA        -9.9250   48.4860   21.0410 C.3    65  ASP65       0.1709
     64  C        -11.4190   48.2690   21.2640 C.2    65  ASP65       0.2293
     65  O        -11.8120   47.3750   22.0110 O.2    65  ASP65      -0.2864
     66  CB        -9.3760   49.3740   22.1570 C.3    65  ASP65       0.1436
     67  CG        -7.8720   49.4760   22.1320 C.2    65  ASP65       0.3671
     68  OD1       -7.2690   49.1350   21.0920 O.co2  65  ASP65      -0.2456
     69  OD2       -7.2950   49.9000   23.1520 O.co2  65  ASP65      -0.2456
     70  N        -13.5880   47.6730   18.5320 N.3    67  GLN67      -0.1231
     71  CA       -13.8350   46.5560   17.6270 C.3    67  GLN67       0.1698
     72  C        -13.4620   45.2130   18.2670 C.2    67  GLN67       0.2592
     73  O        -14.1450   44.2090   18.0570 O.2    67  GLN67      -0.2718
     74  CB       -13.0560   46.7350   16.3230 C.3    67  GLN67       0.0381
     75  CG       -13.5010   47.9070   15.4810 C.3    67  GLN67       0.0905
     76  CD       -12.7280   48.0270   14.1840 C.2    67  GLN67       0.2608
     77  OE1      -12.3370   47.0270   13.5860 O.2    67  GLN67      -0.2717
     78  NE2      -12.5090   49.2570   13.7360 N.am   67  GLN67      -0.0878
     79  N        -12.3830   45.2060   19.0460 N.am   68  MET68      -0.1979
     80  CA       -11.9300   43.9970   19.7350 C.3    68  MET68       0.1605
     81  C        -12.8370   43.6210   20.9030 C.2    68  MET68       0.2287
     82  O        -13.1600   42.4480   21.0910 O.2    68  MET68      -0.2864
     83  CB       -10.5050   44.1800   20.2490 C.3    68  MET68       0.0413
     84  CG        -9.4560   44.1170   19.1600 C.3    68  MET68       0.0598
     85  SD        -7.7730   44.0320   19.8110 S.3    68  MET68      -0.1393
     86  CE        -7.7900   42.4320   20.6160 C.3    68  MET68       0.0692
     87  N        -16.2950   42.0070   19.7740 N.3    71  LEU71      -0.1231
     88  CA       -16.1490   40.5960   19.4060 C.3    71  LEU71       0.1693
     89  C        -15.8250   39.7240   20.6180 C.2    71  LEU71       0.2591
     90  O        -16.2680   38.5860   20.7060 O.2    71  LEU71      -0.2718
     91  CB       -15.0970   40.4230   18.3130 C.3    71  LEU71       0.0284
     92  CG       -15.5870   40.9300   16.9530 C.3    71  LEU71       0.0019
     93  CD1      -14.4240   41.3190   16.0610 C.3    71  LEU71       0.0001
     94  CD2      -16.4760   39.8950   16.2670 C.3    71  LEU71       0.0001
     95  N        -15.0670   40.2600   21.5610 N.am   72  GLN72      -0.1979
     96  CA       -14.7580   39.5250   22.7860 C.3    72  GLN72       0.1601
     97  C        -16.0180   39.2770   23.6050 C.2    72  GLN72       0.2287
     98  O        -16.1760   38.2080   24.1940 O.2    72  GLN72      -0.2864
     99  CB       -13.7320   40.2750   23.6300 C.3    72  GLN72       0.0394
    100  CG       -12.3160   40.1890   23.0860 C.3    72  GLN72       0.0908
    101  CD       -11.4030   41.3120   23.5830 C.2    72  GLN72       0.2608
    102  OE1      -11.8180   42.1870   24.3580 O.2    72  GLN72      -0.2717
    103  NE2      -10.1500   41.2860   23.1370 N.am   72  GLN72      -0.0878
    104  N         -6.5670   28.1130   19.4570 N.3   225  GLU225     -0.1231
    105  CA        -5.7970   29.1960   20.1020 C.3   225  GLU225      0.1699
    106  C         -6.5320   30.5280   20.1060 C.2   225  GLU225      0.2592
    107  O         -6.7290   31.1370   21.1610 O.2   225  GLU225     -0.2718
    108  CB        -4.4470   29.3830   19.4050 C.3   225  GLU225      0.0402
    109  CG        -3.4790   28.2130   19.5580 C.3   225  GLU225      0.1161
    110  CD        -2.2140   28.3860   18.7330 C.2   225  GLU225      0.3649
    111  OE1       -2.0190   29.4740   18.1490 O.co2 225  GLU225     -0.2457
    112  OE2       -1.4120   27.4320   18.6680 O.co2 225  GLU225     -0.2457
    113  N         -6.9140   30.9770   18.9130 N.am  226  MET226     -0.1979
    114  CA        -7.7460   32.1610   18.7430 C.3   226  MET226      0.1605
    115  C         -8.7970   32.2110   19.8500 C.2   226  MET226      0.2287
    116  O         -8.8430   33.1590   20.6290 O.2   226  MET226     -0.2864
    117  CB        -8.4140   32.1090   17.3600 C.3   226  MET226      0.0413
    118  CG        -9.4480   33.1960   17.0600 C.3   226  MET226      0.0598
    119  SD        -8.7380   34.8330   16.7930 S.3   226  MET226     -0.1393
    120  CE        -8.5540   35.4010   18.4800 C.3   226  MET226      0.0692
    121  N         -7.5810   32.2510   23.8540 N.3   229  GLU229     -0.1231
    122  CA        -7.1850   33.5420   24.4240 C.3   229  GLU229      0.1699
    123  C         -8.3940   34.4290   24.7130 C.2   229  GLU229      0.2592
    124  O         -8.4270   35.1350   25.7220 O.2   229  GLU229     -0.2718
    125  CB        -6.1830   34.2830   23.5220 C.3   229  GLU229      0.0402
    126  CG        -4.7480   34.3030   24.0730 C.3   229  GLU229      0.1161
    127  CD        -3.9160   35.4300   23.4810 C.2   229  GLU229      0.3649
    128  OE1       -3.6280   35.3710   22.2590 O.co2 229  GLU229     -0.2457
    129  OE2       -3.5600   36.3720   24.2370 O.co2 229  GLU229     -0.2457
    130  N         -9.3860   34.3830   23.8300 N.am  230  ILE230     -0.1980
    131  CA       -10.6240   35.1240   24.0430 C.3   230  ILE230      0.1595
    132  C        -11.2980   34.6560   25.3310 C.2   230  ILE230      0.2287
    133  O        -11.8120   35.4750   26.0880 O.2   230  ILE230     -0.2864
    134  CB       -11.5880   34.9820   22.8550 C.3   230  ILE230      0.0276
    135  CG1      -10.9840   35.6340   21.6090 C.3   230  ILE230      0.0022
    136  CG2      -12.9260   35.6290   23.1760 C.3   230  ILE230      0.0022
    137  CD1      -11.7990   35.4290   20.3650 C.3   230  ILE230      0.0001
    138  N         -8.9690   35.7440   28.2970 N.3   233  ASN233     -0.1240
    139  CA        -9.1280   37.1810   28.5190 C.3   233  ASN233      0.1653
    140  C        -10.4730   37.5080   29.1800 C.2   233  ASN233      0.2266
    141  O        -10.5360   38.3320   30.0950 O.2   233  ASN233     -0.2867
    142  CB        -8.9880   37.9460   27.1930 C.3   233  ASN233      0.1155
    143  CG        -8.7010   39.4340   27.3900 C.2   233  ASN233      0.2627
    144  OD1       -9.5980   40.2830   27.2580 O.2   233  ASN233     -0.2716
    145  ND2       -7.4450   39.7590   27.7030 N.am  233  ASN233     -0.0877
@<TRIPOS>BOND
     1    53    51    1
     2    50    51    2
     3    50    49    1
     4    51    52    1
     5    49    48    1
     6    31    30    1
     7    26    25    2
     8    30    29    1
     9    25    24    1
    10    48    47    1
    11    27    24    1
    12    27    28    1
    13    29    28    1
    14    47    44    1
    15    24    23    1
    16    44    43    1
    17    44    45    1
    18    14    12    1
    19    19    18    2
    20    11    10    2
    21    43    34   am
    22    18    17    1
    23    32    33    1
    24    45    46    2
    25    10     9    1
    26    12     9    1
    27    12    13    1
    28    36    33    1
    29    36    37    1
    30    34    33    1
    31    34    35    2
    32    17    16    1
    33    17    20    1
    34     9     8    1
    35    21    20    1
    36    20    22    1
    37    15    13    1
    38    39    37   ar
    39    39    41   ar
    40    37    38   ar
    41    77    76    2
    42    78    76   am
    43     8     3   am
    44    76    75    1
    45     4     3    2
    46    41    42   ar
    47     3     2    1
    48    38    40   ar
    49     1     2    1
    50    60    59    1
    51     2     5    1
    52    75    74    1
    53    42    40   ar
    54    93    92    1
    55    61    59    1
    56    94    92    1
    57    74    71    1
    58    59    58    1
    59     5     6    1
    60     5     7    1
    61   119   118    1
    62   119   120    1
    63    58    55    1
    64    92    91    1
    65   118   117    1
    66    55    54    1
    67    55    56    1
    68   117   114    1
    69    71    72    1
    70    71    70    1
    71    73    72    2
    72   111   110   ar
    73    72    79   am
    74    91    88    1
    75    56    57    2
    76    56    62   am
    77   112   110   ar
    78   110   109    1
    79   114   113    1
    80   114   115    1
    81   113   106   am
    82    79    80    1
    83    84    85    1
    84    84    83    1
    85   108   109    1
    86   108   105    1
    87    88    87    1
    88    88    89    1
    89   104   105    1
    90    62    63    1
    91    80    83    1
    92    80    81    1
    93    85    86    1
    94   115   116    2
    95   105   106    1
    96   106   107    2
    97   137   135    1
    98    89    90    2
    99    89    95   am
   100    81    82    2
   101    63    64    1
   102    63    66    1
   103    68    67   ar
   104    64    65    2
   105    95    96    1
   106   135   134    1
   107    67    66    1
   108    67    69   ar
   109   128   127   ar
   110    96    97    1
   111    96    99    1
   112   134   136    1
   113   134   131    1
   114   100   101    1
   115   100    99    1
   116   103   101   am
   117   127   126    1
   118   127   129   ar
   119   125   126    1
   120   125   122    1
   121   101   102    2
   122    97    98    2
   123   130   131    1
   124   130   123   am
   125   121   122    1
   126   131   132    1
   127   122   123    1
   128   123   124    2
   129   132   133    2
   130   142   143    1
   131   142   139    1
   132   144   143    2
   133   143   145   am
   134   138   139    1
   135   139   140    1
   136   140   141    2
