@<TRIPOS>MOLECULE
tmp/3k22A02.pdb
 128 120 0 0 0
SMALL
GASTEIGER

@<TRIPOS>ATOM
      1  N        -19.4570   11.8570   23.0740 N.3    31  THR31      -0.1218
      2  CA       -19.6120   13.2310   23.5670 C.3    31  THR31       0.1862
      3  C        -18.2680   13.9640   23.5000 C.2    31  THR31       0.2287
      4  O        -18.1900   15.0580   22.9560 O.2    31  THR31      -0.2866
      5  CB       -20.2130   13.2940   25.0050 C.3    31  THR31       0.1770
      6  OG1      -21.4880   12.6370   25.0270 O.3    31  THR31      -0.2211
      7  CG2      -20.4060   14.7380   25.4550 C.3    31  THR31       0.0375
      8  N        -17.5960   14.9500   19.9820 N.3    34  ILE34      -0.1231
      9  CA       -18.4050   16.0960   19.5770 C.3    34  ILE34       0.1693
     10  C        -17.9320   17.3860   20.2660 C.2    34  ILE34       0.2594
     11  O        -17.8100   18.4210   19.6160 O.2    34  ILE34      -0.2718
     12  CB       -19.8970   15.8480   19.8570 C.3    34  ILE34       0.0266
     13  CG1      -20.4240   14.7740   18.9060 C.3    34  ILE34       0.0019
     14  CG2      -20.7020   17.1320   19.6890 C.3    34  ILE34       0.0020
     15  CD1      -21.8010   14.2840   19.2510 C.3    34  ILE34       0.0001
     16  N        -17.6650   17.3120   21.5690 N.am   35  MET35      -0.1934
     17  CA       -17.1100   18.4350   22.3250 C.3    35  MET35       0.1821
     18  C        -15.8860   19.0170   21.6130 C.2    35  MET35       0.2332
     19  O        -15.7900   20.2280   21.4040 O.2    35  MET35      -0.2860
     20  CB       -16.7210   17.9930   23.7460 C.2    35  MET35       0.0096
     21  CG       -17.9030   17.7660   24.7030 C.2    35  MET35       0.0285
     22  SD       -17.4490   17.3140   26.4160 S.3    35  MET35      -0.1125
     23  CE       -17.4870   15.5200   26.4030 C.3    35  MET35       0.0742
     24  N        -16.7040   20.7080   18.1170 N.3    38  LEU38      -0.1245
     25  CA       -17.4550   21.9590   18.2640 C.3    38  LEU38       0.1561
     26  C        -16.5840   23.0950   18.7920 C.2    38  LEU38       0.2260
     27  O        -16.8120   24.2550   18.4580 O.2    38  LEU38      -0.2867
     28  CB       -18.6740   21.7570   19.1740 C.3    38  LEU38       0.0270
     29  CG       -19.7990   20.9090   18.5800 C.3    38  LEU38       0.0019
     30  CD1      -20.8310   20.5350   19.6400 C.3    38  LEU38       0.0001
     31  CD2      -20.4490   21.6470   17.4290 C.3    38  LEU38       0.0001
     32  N        -25.2750   22.2850   13.5710 N.3    97  PHE97      -0.1241
     33  CA       -23.9890   22.9570   13.7000 C.3    97  PHE97       0.1605
     34  C        -23.2940   23.1230   12.3560 C.2    97  PHE97       0.2264
     35  O        -22.6840   24.1580   12.0880 O.2    97  PHE97      -0.2867
     36  CB       -23.0910   22.2060   14.6710 C.3    97  PHE97       0.0534
     37  CG       -23.4550   22.4210   16.1000 C.ar   97  PHE97      -0.0203
     38  CD1      -24.2660   21.5210   16.7660 C.ar   97  PHE97      -0.0042
     39  CD2      -22.9950   23.5380   16.7800 C.ar   97  PHE97      -0.0042
     40  CE1      -24.6040   21.7220   18.1000 C.ar   97  PHE97      -0.0003
     41  CE2      -23.3220   23.7490   18.1080 C.ar   97  PHE97      -0.0003
     42  CZ       -24.1290   22.8370   18.7730 C.ar   97  PHE97      -0.0000
     43  N        -24.7280   11.5300   26.6920 N.3   111  PRO111     -0.2102
     44  CA       -24.5930   12.0850   28.0420 C.3   111  PRO111      0.1504
     45  C        -24.1170   13.5380   28.0400 C.2   111  PRO111      0.2576
     46  O        -23.1740   13.8810   27.3180 O.2   111  PRO111     -0.2718
     47  CB       -23.5540   11.1690   28.6980 C.3   111  PRO111      0.0282
     48  CG       -22.7890   10.5910   27.5700 C.3   111  PRO111      0.0208
     49  CD       -23.7660   10.4390   26.4500 C.3   111  PRO111      0.0893
     50  N        -24.7940   14.3770   28.8260 N.am  112  GLY112     -0.1943
     51  CA       -24.4740   15.7980   28.9400 C.3   112  GLY112      0.2014
     52  C        -24.9850   16.6650   27.8020 C.2   112  GLY112      0.2638
     53  O        -24.9900   17.8880   27.9190 O.2   112  GLY112     -0.2714
     54  N        -25.4300   16.0430   26.7130 N.am  113  MET113     -0.1976
     55  CA       -25.7450   16.7660   25.4870 C.3   113  MET113      0.1605
     56  C        -26.9270   17.7040   25.6620 C.2   113  MET113      0.2287
     57  O        -26.8210   18.9020   25.3870 O.2   113  MET113     -0.2864
     58  CB       -26.0500   15.7880   24.3540 C.3   113  MET113      0.0413
     59  CG       -25.9660   16.4150   22.9750 C.3   113  MET113      0.0598
     60  SD       -24.2770   16.8830   22.5640 S.3   113  MET113     -0.1393
     61  CE       -23.4140   15.3160   22.6790 C.3   113  MET113      0.0692
     62  N        -26.8090   21.0800   27.7700 N.3   116  GLN116     -0.1231
     63  CA       -26.2820   22.2720   27.1190 C.3   116  GLN116      0.1698
     64  C        -27.0990   22.6760   25.9020 C.2   116  GLN116      0.2592
     65  O        -27.3320   23.8680   25.6760 O.2   116  GLN116     -0.2718
     66  CB       -24.8270   22.0580   26.7110 C.3   116  GLN116      0.0381
     67  CG       -23.9300   21.6630   27.8620 C.3   116  GLN116      0.0905
     68  CD       -24.0740   22.5790   29.0640 C.2   116  GLN116      0.2608
     69  OE1      -24.2200   23.7940   28.9190 O.2   116  GLN116     -0.2717
     70  NE2      -24.0300   22.0000   30.2590 N.am  116  GLN116     -0.0878
     71  N        -27.5380   21.6920   25.1210 N.am  117  CYS117     -0.1970
     72  CA       -28.2580   21.9750   23.8830 C.3   117  CYS117      0.1712
     73  C        -29.6200   22.6210   24.0900 C.2   117  CYS117      0.2296
     74  O        -30.1250   23.2920   23.1890 O.2   117  CYS117     -0.2864
     75  CB       -28.4420   20.7000   23.0750 C.3   117  CYS117      0.0983
     76  SG       -26.9390   20.1110   22.3380 S.3   117  CYS117     -0.0798
     77  N        -29.7080   26.3210   23.2880 N.3   120  MET120     -0.1245
     78  CA       -29.6250   26.6610   21.8780 C.3   120  MET120      0.1570
     79  C        -30.9310   26.2800   21.1880 C.2   120  MET120      0.2261
     80  O        -31.3490   26.9450   20.2450 O.2   120  MET120     -0.2867
     81  CB       -28.4360   25.9500   21.2370 C.3   120  MET120      0.0387
     82  CG       -27.1040   26.1940   21.9590 C.3   120  MET120      0.0595
     83  SD       -25.8580   24.9350   21.5910 S.3   120  MET120     -0.1393
     84  CE       -25.1380   24.6420   23.2100 C.3   120  MET120      0.0692
     85  N        -24.4680   29.3300   28.2600 N.3   206  LEU206     -0.1245
     86  CA       -23.4660   28.7620   27.3580 C.3   206  LEU206      0.1561
     87  C        -22.0350   29.1190   27.7620 C.2   206  LEU206      0.2260
     88  O        -21.1400   28.2840   27.6940 O.2   206  LEU206     -0.2867
     89  CB       -23.7190   29.2290   25.9240 C.3   206  LEU206      0.0270
     90  CG       -25.0420   28.7960   25.2940 C.3   206  LEU206      0.0019
     91  CD1      -25.2440   29.4890   23.9670 C.3   206  LEU206      0.0001
     92  CD2      -25.0860   27.2910   25.1320 C.3   206  LEU206      0.0001
     93  N        -20.8210   27.2000   30.9650 N.3   209  TYR209     -0.1241
     94  CA       -20.4020   25.8570   30.5770 C.3   209  TYR209      0.1605
     95  C        -19.0390   25.8840   29.9020 C.2   209  TYR209      0.2264
     96  O        -18.1370   25.1250   30.2680 O.2   209  TYR209     -0.2867
     97  CB       -21.4070   25.2030   29.6240 C.3   209  TYR209      0.0534
     98  CG       -20.8470   23.9500   28.9950 C.ar  209  TYR209     -0.0201
     99  CD1      -20.7110   22.7800   29.7430 C.ar  209  TYR209     -0.0009
    100  CD2      -20.4140   23.9430   27.6690 C.ar  209  TYR209     -0.0009
    101  CE1      -20.1840   21.6230   29.1800 C.ar  209  TYR209      0.0417
    102  CE2      -19.8790   22.7940   27.0940 C.ar  209  TYR209      0.0417
    103  CZ       -19.7650   21.6380   27.8560 C.ar  209  TYR209      0.1957
    104  OH       -19.2340   20.5060   27.2960 O.3   209  TYR209     -0.2866
    105  N        -16.2840   26.7280   32.4480 N.3   212  GLN212     -0.1231
    106  CA       -16.1240   25.5890   33.3540 C.3   212  GLN212      0.1698
    107  C        -15.3700   24.4490   32.6610 C.2   212  GLN212      0.2592
    108  O        -14.4850   23.8350   33.2570 O.2   212  GLN212     -0.2718
    109  CB       -17.4990   25.1070   33.8480 C.3   212  GLN212      0.0381
    110  CG       -17.4810   23.8920   34.7720 C.3   212  GLN212      0.0905
    111  CD       -18.6250   22.9720   34.3570 C.2   212  GLN212      0.2608
    112  OE1      -19.7930   23.2770   34.6130 O.2   212  GLN212     -0.2717
    113  NE2      -18.2770   21.8830   33.6880 N.am  212  GLN212     -0.0878
    114  N        -15.7250   24.1840   31.4030 N.am  213  THR213     -0.1953
    115  CA       -15.0270   23.1980   30.5780 C.3   213  THR213      0.1897
    116  C        -13.5690   23.6010   30.3780 C.2   213  THR213      0.2313
    117  O        -12.6650   22.7710   30.4810 O.2   213  THR213     -0.2863
    118  CB       -15.7020   23.0490   29.1940 C.3   213  THR213      0.1794
    119  OG1      -17.0330   22.5440   29.3560 O.3   213  THR213     -0.2208
    120  CG2      -14.9190   22.1060   28.3040 C.3   213  THR213      0.0378
    121  N        -10.7060   17.5230   32.9190 N.3   219  MET219     -0.1245
    122  CA       -11.4130   17.4230   31.6410 C.3   219  MET219      0.1570
    123  C        -10.4590   17.0680   30.5040 C.2   219  MET219      0.2261
    124  O        -10.6180   16.0280   29.8680 O.2   219  MET219     -0.2867
    125  CB       -12.1150   18.7640   31.2750 C.3   219  MET219      0.0387
    126  CG       -13.5670   18.7540   30.9100 C.3   219  MET219      0.0595
    127  SD       -14.5730   17.4130   31.5510 S.3   219  MET219     -0.1393
    128  CE       -14.6030   16.4840   30.0200 C.3   219  MET219      0.0692
@<TRIPOS>BOND
     1    35    34    2
     2    34    33    1
     3    32    33    1
     4    33    36    1
     5    36    37    1
     6    37    38   ar
     7    37    39   ar
     8    38    40   ar
     9    39    41   ar
    10    31    29    1
    11    40    42   ar
    12    41    42   ar
    13    24    25    1
    14    25    26    1
    15    25    28    1
    16    27    26    2
    17    29    28    1
    18    29    30    1
    19    13    15    1
    20    13    12    1
    21     9    12    1
    22     9     8    1
    23     9    10    1
    24    11    10    2
    25    14    12    1
    26    80    79    2
    27    10    16   am
    28    79    78    1
    29    81    78    1
    30    81    82    1
    31    19    18    2
    32    16    17    1
    33    83    82    1
    34    83    84    1
    35    18    17    1
    36    78    77    1
    37    17    20    1
    38    76    75    1
    39    60    61    1
    40    60    59    1
    41     4     3    2
    42    59    58    1
    43     1     2    1
    44    75    72    1
    45    74    73    2
    46     3     2    1
    47     2     5    1
    48    20    21    2
    49    72    73    1
    50    72    71    1
    51    91    90    1
    52    58    55    1
    53    21    22    1
    54     5     6    1
    55     5     7    1
    56    71    64   am
    57    92    90    1
    58    90    89    1
    59    57    56    2
    60    55    56    1
    61    55    54    1
    62    65    64    2
    63    64    63    1
    64    89    86    1
    65    23    22    1
    66    49    43    1
    67    49    48    1
    68    43    44    1
    69    66    63    1
    70    66    67    1
    71    54    52   am
    72   102   100   ar
    73   102   103   ar
    74    63    62    1
    75   104   103    1
    76    46    45    2
    77    86    87    1
    78    86    85    1
    79    48    47    1
    80   100    98   ar
    81    88    87    2
    82    52    53    2
    83    52    51    1
    84   103   101   ar
    85    67    68    1
    86    45    44    1
    87    45    50   am
    88    44    47    1
    89   120   118    1
    90    50    51    1
    91    69    68    2
    92    98    97    1
    93    98    99   ar
    94    68    70   am
    95   101    99   ar
    96   118   119    1
    97   118   115    1
    98    97    94    1
    99   124   123    2
   100    95    96    2
   101    95    94    1
   102   128   127    1
   103   116   117    2
   104   116   115    1
   105   123   122    1
   106    94    93    1
   107   115   114    1
   108   126   125    1
   109   126   127    1
   110   125   122    1
   111   114   107   am
   112   122   121    1
   113   105   106    1
   114   107   108    2
   115   107   106    1
   116   106   109    1
   117   113   111   am
   118   109   110    1
   119   111   112    2
   120   111   110    1
