@<TRIPOS>MOLECULE
tmp/3k22C00.pdb
 138 129 0 0 0
SMALL
GASTEIGER

@<TRIPOS>ATOM
      1  N        -18.9880   30.6620  -13.7790 N.3    49  ILE49      -0.1245
      2  CA       -19.9830   30.3500  -12.7560 C.3    49  ILE49       0.1561
      3  C        -19.8600   31.3390  -11.5960 C.2    49  ILE49       0.2260
      4  O        -20.8600   31.7610  -11.0320 O.2    49  ILE49      -0.2867
      5  CB       -19.8400   28.8930  -12.2510 C.3    49  ILE49       0.0252
      6  CG1      -20.1990   27.9110  -13.3710 C.3    49  ILE49       0.0019
      7  CG2      -20.7270   28.6410  -11.0360 C.3    49  ILE49       0.0019
      8  CD1      -19.5460   26.5530  -13.2220 C.3    49  ILE49       0.0001
      9  N        -21.4890   34.4480  -12.7410 N.3    52  VAL52      -0.1245
     10  CA       -22.9570   34.4280  -12.6760 C.3    52  VAL52       0.1561
     11  C        -23.4320   34.8110  -11.2720 C.2    52  VAL52       0.2260
     12  O        -24.2820   35.6890  -11.1310 O.2    52  VAL52      -0.2867
     13  CB       -23.5550   33.0760  -13.1280 C.3    52  VAL52       0.0252
     14  CG1      -25.0650   33.0570  -12.9380 C.3    52  VAL52       0.0019
     15  CG2      -23.2190   32.8180  -14.5800 C.3    52  VAL52       0.0019
     16  N        -25.6130   38.3740  -10.4000 N.3    56  LYS56      -0.1245
     17  CA       -26.8710   38.3570   -9.6440 C.3    56  LYS56       0.1561
     18  C        -26.8790   39.4010   -8.5380 C.2    56  LYS56       0.2260
     19  O        -27.8860   40.0770   -8.3300 O.2    56  LYS56      -0.2867
     20  CB       -27.1190   36.9810   -9.0110 C.3    56  LYS56       0.0271
     21  CG       -27.5160   35.8960   -9.9810 C.3    56  LYS56       0.0035
     22  CD       -28.4400   34.8600   -9.3380 C.3    56  LYS56       0.0206
     23  CE       -27.7450   34.0010   -8.2910 C.3    56  LYS56       0.1093
     24  NZ       -28.6490   32.8950   -7.8360 N.3    56  LYS56      -0.1314
     25  N        -29.4290   44.1210  -11.4880 N.3    61  PHE61      -0.1227
     26  CA       -29.2440   43.0830  -12.4970 C.3    61  PHE61       0.1736
     27  C        -30.3740   42.0600  -12.4180 C.2    61  PHE61       0.2595
     28  O        -30.9590   41.7040  -13.4400 O.2    61  PHE61      -0.2718
     29  CB       -27.8830   42.4020  -12.3470 C.3    61  PHE61       0.0547
     30  CG       -27.5100   41.5470  -13.5210 C.ar   61  PHE61      -0.0202
     31  CD1      -27.0020   42.1250  -14.6810 C.ar   61  PHE61      -0.0042
     32  CD2      -27.6770   40.1690  -13.4770 C.ar   61  PHE61      -0.0042
     33  CE1      -26.6600   41.3400  -15.7820 C.ar   61  PHE61      -0.0003
     34  CE2      -27.3380   39.3750  -14.5730 C.ar   61  PHE61      -0.0003
     35  CZ       -26.8300   39.9630  -15.7280 C.ar   61  PHE61      -0.0000
     36  N        -30.6850   41.6110  -11.2010 N.am   62  ARG62      -0.1980
     37  CA       -31.7740   40.6530  -10.9620 C.3    62  ARG62       0.1597
     38  C        -33.0830   41.1010  -11.6140 C.2    62  ARG62       0.2287
     39  O        -33.7680   40.3020  -12.2480 O.2    62  ARG62      -0.2864
     40  CB       -31.9800   40.4340   -9.4550 C.3    62  ARG62       0.0334
     41  CG       -33.0010   39.3470   -9.1260 C.3    62  ARG62       0.0492
     42  CD       -32.8910   38.8030   -7.6850 C.3    62  ARG62       0.2205
     43  NE       -31.6260   38.1040   -7.4480 N.pl3  62  ARG62      -0.0865
     44  CZ       -30.6340   38.5780   -6.7040 C.cat  62  ARG62       0.5346
     45  NH1      -30.7370   39.7600   -6.1030 N.pl3  62  ARG62       0.1354
     46  NH2      -29.5240   37.8670   -6.5780 N.pl3  62  ARG62       0.1354
     47  N        -34.9800   37.7060  -17.4750 N.3    66  LEU66      -0.1231
     48  CA       -34.0610   36.5780  -17.3540 C.3    66  LEU66       0.1693
     49  C        -33.2750   36.3660  -18.6500 C.2    66  LEU66       0.2592
     50  O        -32.0700   36.1200  -18.6140 O.2    66  LEU66      -0.2718
     51  CB       -34.8280   35.3090  -16.9640 C.3    66  LEU66       0.0284
     52  CG       -34.0440   34.1720  -16.3040 C.3    66  LEU66       0.0019
     53  CD1      -33.4770   34.6030  -14.9600 C.3    66  LEU66       0.0001
     54  CD2      -34.9440   32.9380  -16.1520 C.3    66  LEU66       0.0001
     55  N        -33.9490   36.4850  -19.7890 N.am   67  ASP67      -0.1974
     56  CA       -33.2870   36.3280  -21.0860 C.3    67  ASP67       0.1709
     57  C        -32.1960   37.3760  -21.2970 C.2    67  ASP67       0.2293
     58  O        -31.1900   37.0950  -21.9410 O.2    67  ASP67      -0.2864
     59  CB       -34.2910   36.3950  -22.2470 C.3    67  ASP67       0.1436
     60  CG       -35.3690   35.3090  -22.1700 C.2    67  ASP67       0.3671
     61  OD1      -35.4330   34.5830  -21.1480 O.co2  67  ASP67      -0.2456
     62  OD2      -36.1560   35.1860  -23.1390 O.co2  67  ASP67      -0.2456
     63  N        -30.3860   38.8870  -18.8050 N.3    69  GLN69      -0.1231
     64  CA       -29.3020   38.4880  -17.9110 C.3    69  GLN69       0.1698
     65  C        -28.4120   37.4260  -18.5620 C.2    69  GLN69       0.2592
     66  O        -27.1800   37.4850  -18.4600 O.2    69  GLN69      -0.2718
     67  CB       -29.8550   37.9490  -16.5920 C.3    69  GLN69       0.0381
     68  CG       -30.6220   38.9630  -15.7770 C.3    69  GLN69       0.0905
     69  CD       -31.2980   38.3360  -14.5780 C.2    69  GLN69       0.2608
     70  OE1      -30.6350   37.8320  -13.6690 O.2    69  GLN69      -0.2717
     71  NE2      -32.6270   38.3570  -14.5700 N.am   69  GLN69      -0.0878
     72  N        -29.0470   36.4680  -19.2360 N.am   70  MET70      -0.1979
     73  CA       -28.3350   35.4060  -19.9390 C.3    70  MET70       0.1605
     74  C        -27.5520   35.9510  -21.1230 C.2    70  MET70       0.2287
     75  O        -26.4030   35.5720  -21.3370 O.2    70  MET70      -0.2864
     76  CB       -29.3150   34.3360  -20.4240 C.3    70  MET70       0.0413
     77  CG       -29.9330   33.5350  -19.2960 C.3    70  MET70       0.0598
     78  SD       -31.0950   32.2930  -19.8760 S.3    70  MET70      -0.1393
     79  CE       -30.0000   31.1910  -20.7770 C.3    70  MET70       0.0692
     80  N        -24.4200   37.9520  -19.8880 N.3    73  LEU73      -0.1231
     81  CA       -23.3590   37.0400  -19.4710 C.3    73  LEU73       0.1693
     82  C        -22.7430   36.3030  -20.6610 C.2    73  LEU73       0.2591
     83  O        -21.5220   36.2300  -20.7780 O.2    73  LEU73      -0.2718
     84  CB       -23.8670   36.0580  -18.4150 C.3    73  LEU73       0.0284
     85  CG       -24.0660   36.7190  -17.0490 C.3    73  LEU73       0.0019
     86  CD1      -24.9240   35.8570  -16.1540 C.3    73  LEU73       0.0001
     87  CD2      -22.7230   36.9970  -16.3920 C.3    73  LEU73       0.0001
     88  N        -23.5880   35.7770  -21.5430 N.am   74  GLN74      -0.1979
     89  CA       -23.1370   35.1460  -22.7940 C.3    74  GLN74       0.1601
     90  C        -22.2140   36.0490  -23.6140 C.2    74  GLN74       0.2287
     91  O        -21.2210   35.6020  -24.1670 O.2    74  GLN74      -0.2864
     92  CB       -24.3370   34.7730  -23.6700 C.3    74  GLN74       0.0394
     93  CG       -25.0760   33.5170  -23.2430 C.3    74  GLN74       0.0908
     94  CD       -26.5200   33.4790  -23.7420 C.2    74  GLN74       0.2608
     95  OE1      -26.8720   34.1340  -24.7330 O.2    74  GLN74      -0.2717
     96  NE2      -27.3640   32.7160  -23.0500 N.am   74  GLN74      -0.0878
     97  N        -18.8900   21.9360  -19.5310 N.3   225  GLU225     -0.1231
     98  CA       -20.2130   22.0290  -20.1530 C.3   225  GLU225      0.1699
     99  C        -20.7560   23.4550  -20.1380 C.2   225  GLU225      0.2592
    100  O        -21.2810   23.9340  -21.1410 O.2   225  GLU225     -0.2718
    101  CB       -21.1900   21.0780  -19.4620 C.3   225  GLU225      0.0402
    102  CG       -20.8480   19.6140  -19.6810 C.3   225  GLU225      0.1161
    103  CD       -21.7080   18.6670  -18.8720 C.2   225  GLU225      0.3649
    104  OE1      -22.7770   19.0930  -18.3760 O.co2 225  GLU225     -0.2457
    105  OE2      -21.3080   17.4870  -18.7390 O.co2 225  GLU225     -0.2457
    106  N        -20.6120   24.1310  -19.0040 N.am  226  MET226     -0.1979
    107  CA       -21.0350   25.5180  -18.8740 C.3   226  MET226      0.1605
    108  C        -20.5100   26.3500  -20.0540 C.2   226  MET226      0.2287
    109  O        -21.2840   27.0160  -20.7390 O.2   226  MET226     -0.2864
    110  CB       -20.5510   26.0910  -17.5320 C.3   226  MET226      0.0413
    111  CG       -21.0660   27.4940  -17.1950 C.3   226  MET226      0.0598
    112  SD       -22.8680   27.6770  -17.0320 S.3   226  MET226     -0.1393
    113  CE       -22.9480   29.2710  -16.2320 C.3   226  MET226      0.0692
    114  N        -21.7820   24.9580  -23.8090 N.3   229  GLU229     -0.1231
    115  CA       -23.1080   25.4600  -24.1560 C.3   229  GLU229      0.1699
    116  C        -23.0320   26.9390  -24.5470 C.2   229  GLU229      0.2592
    117  O        -23.5770   27.3440  -25.5830 O.2   229  GLU229     -0.2718
    118  CB       -24.0690   25.2610  -22.9970 C.3   229  GLU229      0.0402
    119  CG       -24.4060   23.8520  -22.6840 C.3   229  GLU229      0.1161
    120  CD       -25.1260   23.6540  -21.3640 C.2   229  GLU229      0.3649
    121  OE1      -25.2880   24.6200  -20.5770 O.co2 229  GLU229     -0.2457
    122  OE2      -25.4630   22.5450  -21.0140 O.co2 229  GLU229     -0.2457
    123  N        -22.3350   27.7290  -23.7290 N.am  230  ILE230     -0.1980
    124  CA       -22.1780   29.1670  -23.9740 C.3   230  ILE230      0.1595
    125  C        -21.4410   29.4350  -25.2810 C.2   230  ILE230      0.2287
    126  O        -21.7960   30.3530  -26.0180 O.2   230  ILE230     -0.2864
    127  CB       -21.4390   29.8670  -22.8200 C.3   230  ILE230      0.0276
    128  CG1      -22.3240   29.9020  -21.5770 C.3   230  ILE230      0.0022
    129  CG2      -21.0650   31.2990  -23.2040 C.3   230  ILE230      0.0022
    130  CD1      -21.6110   30.3800  -20.3390 C.3   230  ILE230      0.0001
    131  N        -23.7140   28.2010  -28.3620 N.3   233  ASN233     -0.1240
    132  CA       -24.7530   29.2040  -28.5890 C.3   233  ASN233      0.1653
    133  C        -24.2060   30.4560  -29.2750 C.2   233  ASN233      0.2266
    134  O        -24.8560   31.0170  -30.1610 O.2   233  ASN233     -0.2867
    135  CB       -25.4220   29.5970  -27.2660 C.3   233  ASN233      0.1155
    136  CG       -26.4540   30.7130  -27.4310 C.2   233  ASN233      0.2627
    137  OD1      -26.2040   31.8670  -27.0660 O.2   233  ASN233     -0.2716
    138  ND2      -27.6170   30.3720  -27.9890 N.am  233  ASN233     -0.0877
@<TRIPOS>BOND
     1   134   133    2
     2   133   132    1
     3   132   131    1
     4   132   135    1
     5   138   136   am
     6   136   135    1
     7   136   137    2
     8   126   125    2
     9   117   116    2
    10   125   124    1
    11    95    94    2
    12   116   115    1
    13   116   123   am
    14    91    90    2
    15   115   114    1
    16   115   118    1
    17   124   123    1
    18   124   127    1
    19    94    93    1
    20    94    96   am
    21    92    93    1
    22    92    89    1
    23    90    89    1
    24   129   127    1
    25    62    60   ar
    26   118   119    1
    27   127   128    1
    28    89    88    1
    29   119   120    1
    30    59    60    1
    31    59    56    1
    32    60    61   ar
    33    58    57    2
    34   128   130    1
    35    88    82   am
    36   120   122   ar
    37   120   121   ar
    38    75    74    2
    39    57    56    1
    40   100    99    2
    41    74    73    1
    42    56    55    1
    43    83    82    2
    44    79    78    1
    45   109   108    2
    46    82    81    1
    47    76    73    1
    48    76    77    1
    49    98    99    1
    50    98    97    1
    51    98   101    1
    52    99   106   am
    53   108   107    1
    54    73    72    1
    55    80    81    1
    56    78    77    1
    57    55    49   am
    58   102   101    1
    59   102   103    1
    60    81    84    1
    61    72    65   am
    62   106   107    1
    63   107   110    1
    64   103   105   ar
    65   103   104   ar
    66    63    64    1
    67    49    50    2
    68    49    48    1
    69    65    66    2
    70    65    64    1
    71    84    85    1
    72    64    67    1
    73   110   111    1
    74    47    48    1
    75    48    51    1
    76   111   112    1
    77    85    87    1
    78    85    86    1
    79   112   113    1
    80    51    52    1
    81    67    68    1
    82    52    54    1
    83    52    53    1
    84    33    35   ar
    85    33    31   ar
    86    68    69    1
    87    35    34   ar
    88    31    30   ar
    89    15    13    1
    90    69    71   am
    91    69    70    2
    92    34    32   ar
    93     1     2    1
    94    30    32   ar
    95    30    29    1
    96    28    27    2
    97     6     8    1
    98     6     5    1
    99    13    14    1
   100    13    10    1
   101     2     5    1
   102     2     3    1
   103     9    10    1
   104    10    11    1
   105    26    27    1
   106    26    29    1
   107    26    25    1
   108    27    36   am
   109     5     7    1
   110    39    38    2
   111    38    37    1
   112     3     4    2
   113    11    12    2
   114    36    37    1
   115    37    40    1
   116    16    17    1
   117    21    22    1
   118    21    20    1
   119    17    20    1
   120    17    18    1
   121    40    41    1
   122    22    23    1
   123    41    42    1
   124    18    19    2
   125    23    24    1
   126    42    43    1
   127    43    44    2
   128    44    46    1
   129    44    45    1
