@<TRIPOS>MOLECULE
tmp/3k23A00.pdb
 131 123 0 0 0
SMALL
GASTEIGER

@<TRIPOS>ATOM
      1  N         62.9960    4.1230    6.7320 N.3    47  ILE47      -0.1245
      2  CA        63.3350    4.4620    8.1060 C.3    47  ILE47       0.1561
      3  C         62.0690    4.8890    8.8200 C.2    47  ILE47       0.2260
      4  O         61.8150    4.4550    9.9540 O.2    47  ILE47      -0.2867
      5  CB        64.3830    5.5770    8.2180 C.3    47  ILE47       0.0252
      6  CG1       65.7340    5.1060    7.6790 C.3    47  ILE47       0.0019
      7  CG2       64.5740    5.9570    9.6600 C.3    47  ILE47       0.0019
      8  CD1       66.6690    6.2320    7.3080 C.3    47  ILE47       0.0001
      9  N         59.7780    1.9110    9.7540 N.3    50  VAL50      -0.1231
     10  CA        60.1830    1.1110   10.9100 C.3    50  VAL50       0.1692
     11  C         59.6130    1.6730   12.2150 C.2    50  VAL50       0.2591
     12  O         58.9960    0.9430   13.0030 O.2    50  VAL50      -0.2718
     13  CB        61.7020    1.0290   11.0070 C.3    50  VAL50       0.0266
     14  CG1       62.0990    0.1130   12.1430 C.3    50  VAL50       0.0020
     15  CG2       62.2800    0.5630    9.6700 C.3    50  VAL50       0.0020
     16  N         59.8140    2.9730   12.4330 N.am   51  LYS51      -0.1980
     17  CA        59.2690    3.6420   13.6200 C.3    51  LYS51       0.1596
     18  C         57.7700    3.4360   13.6820 C.2    51  LYS51       0.2287
     19  O         57.1960    3.1620   14.7330 O.2    51  LYS51      -0.2864
     20  CB        59.5860    5.1340   13.5960 C.3    51  LYS51       0.0298
     21  CG        61.0660    5.4530   13.4960 C.3    51  LYS51       0.0038
     22  CD        61.8670    4.8080   14.5910 C.3    51  LYS51       0.0206
     23  CE        63.2800    5.3910   14.6310 C.3    51  LYS51       0.1093
     24  NZ        64.1440    4.9450   13.5050 N.3    51  LYS51      -0.1314
     25  N         57.0640   -0.2270   14.5840 N.3    54  LYS54      -0.1245
     26  CA        57.3380   -0.4890   15.9860 C.3    54  LYS54       0.1561
     27  C         56.2830    0.1240   16.9170 C.2    54  LYS54       0.2260
     28  O         56.3590   -0.0630   18.1200 O.2    54  LYS54      -0.2867
     29  CB        58.7300    0.0530   16.3300 C.3    54  LYS54       0.0271
     30  CG        59.4590   -0.7170   17.4070 C.3    54  LYS54       0.0035
     31  CD        60.4850    0.1580   18.1540 C.3    54  LYS54       0.0206
     32  CE        61.5750    0.7310   17.2450 C.3    54  LYS54       0.1093
     33  NZ        62.5420    1.6070   17.9950 N.3    54  LYS54      -0.1314
     34  N         52.7990   -5.6710   16.8120 N.3    59  PHE59      -0.1227
     35  CA        54.1320   -5.7410   16.1930 C.3    59  PHE59       0.1736
     36  C         55.2800   -5.8430   17.2140 C.2    59  PHE59       0.2595
     37  O         56.3850   -6.2590   16.8770 O.2    59  PHE59      -0.2718
     38  CB        54.3530   -4.5380   15.2810 C.3    59  PHE59       0.0547
     39  CG        55.5340   -4.6770   14.3940 C.ar   59  PHE59      -0.0202
     40  CD1       55.4080   -5.2440   13.1390 C.ar   59  PHE59      -0.0042
     41  CD2       56.7710   -4.2510   14.8100 C.ar   59  PHE59      -0.0042
     42  CE1       56.5060   -5.3740   12.3090 C.ar   59  PHE59      -0.0003
     43  CE2       57.8700   -4.3760   13.9970 C.ar   59  PHE59      -0.0003
     44  CZ        57.7420   -4.9400   12.7420 C.ar   59  PHE59      -0.0000
     45  N         55.0050   -5.4740   18.4590 N.am   60  ARG60      -0.1980
     46  CA        56.0090   -5.5100   19.5250 C.3    60  ARG60       0.1597
     47  C         56.1760   -6.9180   20.0820 C.2    60  ARG60       0.2287
     48  O         57.2920   -7.4100   20.2530 O.2    60  ARG60      -0.2864
     49  CB        55.6150   -4.5780   20.6830 C.3    60  ARG60       0.0334
     50  CG        55.0560   -3.2150   20.2810 C.3    60  ARG60       0.0492
     51  CD        56.0850   -2.3340   19.6150 C.3    60  ARG60       0.2205
     52  NE        57.3690   -2.2980   20.3290 N.pl3  60  ARG60      -0.0865
     53  CZ        58.4800   -2.9470   19.9610 C.cat  60  ARG60       0.5346
     54  NH1       59.5850   -2.8310   20.6950 N.pl3  60  ARG60       0.1354
     55  NH2       58.5130   -3.7010   18.8630 N.pl3  60  ARG60       0.1354
     56  N         62.0420  -10.2790   17.4080 N.3    64  LEU64      -0.1245
     57  CA        62.8700   -9.3150   16.7100 C.3    64  LEU64       0.1561
     58  C         63.1790   -9.8090   15.3020 C.2    64  LEU64       0.2260
     59  O         63.1160   -9.0410   14.3590 O.2    64  LEU64      -0.2867
     60  CB        64.1610   -9.0750   17.5020 C.3    64  LEU64       0.0270
     61  CG        64.7060   -7.6540   17.5950 C.3    64  LEU64       0.0019
     62  CD1       63.6310   -6.6790   18.0590 C.3    64  LEU64       0.0001
     63  CD2       65.8880   -7.6240   18.5570 C.3    64  LEU64       0.0001
     64  N         60.1910   -9.3030   13.3780 N.3    67  GLN67      -0.1231
     65  CA        60.0130   -7.9030   13.0160 C.3    67  GLN67       0.1698
     66  C         60.8320   -7.5340   11.7840 C.2    67  GLN67       0.2592
     67  O         60.3350   -6.8260   10.9050 O.2    67  GLN67      -0.2718
     68  CB        60.3490   -6.9950   14.1970 C.3    67  GLN67       0.0381
     69  CG        59.3200   -7.1210   15.2900 C.3    67  GLN67       0.0905
     70  CD        59.6430   -6.3100   16.5090 C.2    67  GLN67       0.2608
     71  OE1       60.0120   -5.1450   16.4130 O.2    67  GLN67      -0.2717
     72  NE2       59.4880   -6.9180   17.6740 N.am   67  GLN67      -0.0878
     73  N         62.0690   -8.0250   11.7110 N.am   68  MET68      -0.1979
     74  CA        62.9530   -7.6980   10.5880 C.3    68  MET68       0.1605
     75  C         62.3960   -8.2570    9.2890 C.2    68  MET68       0.2287
     76  O         62.3670   -7.5660    8.2660 O.2    68  MET68      -0.2864
     77  CB        64.3450   -8.3010   10.7740 C.3    68  MET68       0.0413
     78  CG        65.1370   -7.7890   11.9330 C.3    68  MET68       0.0598
     79  SD        66.6550   -8.7680   12.1130 S.3    68  MET68      -0.1393
     80  CE        67.9090   -7.4930   11.8740 C.3    68  MET68       0.0692
     81  N         59.4000   -6.3190    7.7140 N.3    71  LEU71      -0.1231
     82  CA        59.7900   -5.0460    7.1140 C.3    71  LEU71       0.1693
     83  C         60.5720   -5.2950    5.8100 C.2    71  LEU71       0.2591
     84  O         60.2560   -4.7110    4.7750 O.2    71  LEU71      -0.2718
     85  CB        60.5530   -4.1700    8.1180 C.3    71  LEU71       0.0284
     86  CG        59.6780   -3.6330    9.2780 C.3    71  LEU71       0.0019
     87  CD1       60.4370   -3.6440   10.5970 C.3    71  LEU71       0.0001
     88  CD2       59.1150   -2.2400    9.0020 C.3    71  LEU71       0.0001
     89  N         61.5330   -6.2130    5.8290 N.am   72  GLN72      -0.1979
     90  CA        62.2420   -6.5860    4.5950 C.3    72  GLN72       0.1601
     91  C         61.3420   -7.2420    3.5280 C.2    72  GLN72       0.2287
     92  O         61.6900   -7.2670    2.3450 O.2    72  GLN72      -0.2864
     93  CB        63.4100   -7.5180    4.9180 C.3    72  GLN72       0.0394
     94  CG        64.4970   -6.8640    5.7520 C.3    72  GLN72       0.0908
     95  CD        65.4490   -7.8680    6.3740 C.2    72  GLN72       0.2608
     96  OE1       65.0610   -8.9900    6.7100 O.2    72  GLN72      -0.2717
     97  NE2       66.7040   -7.4650    6.5350 N.am   72  GLN72      -0.0878
     98  N         72.2000    3.5980    2.9300 N.3   220  GLU220     -0.1231
     99  CA        72.5120    2.3730    3.6640 C.3   220  GLU220      0.1699
    100  C         71.2470    1.5200    3.7790 C.2   220  GLU220      0.2592
    101  O         71.1920    0.4070    3.2610 O.2   220  GLU220     -0.2718
    102  CB        73.1110    2.6710    5.0560 C.3   220  GLU220      0.0402
    103  CG        74.5720    3.1660    5.0470 C.3   220  GLU220      0.1161
    104  CD        75.1370    3.5420    6.4450 C.2   220  GLU220      0.3649
    105  OE1       74.3840    3.5660    7.4450 O.co2 220  GLU220     -0.2457
    106  OE2       76.3530    3.8320    6.5390 O.co2 220  GLU220     -0.2457
    107  N         70.2210    2.0740    4.4170 N.am  221  MET221     -0.1979
    108  CA        69.0030    1.3240    4.7440 C.3   221  MET221      0.1605
    109  C         68.4670    0.4740    3.5790 C.2   221  MET221      0.2287
    110  O         68.1250   -0.6970    3.7800 O.2   221  MET221     -0.2864
    111  CB        67.9070    2.2730    5.2690 C.3   221  MET221      0.0413
    112  CG        66.6840    1.5780    5.9090 C.3   221  MET221      0.0598
    113  SD        67.0510    0.4400    7.2840 S.3   221  MET221     -0.1393
    114  CE        67.6170    1.5830    8.5430 C.3   221  MET221      0.0692
    115  N         71.1560   -2.5100    2.2670 N.3   224  GLU224     -0.1231
    116  CA        71.0740   -3.6930    3.1180 C.3   224  GLU224      0.1699
    117  C         69.8370   -4.4900    2.7740 C.2   224  GLU224      0.2592
    118  O         69.9220   -5.6330    2.3260 O.2   224  GLU224     -0.2718
    119  CB        71.0020   -3.3200    4.5910 C.3   224  GLU224      0.0402
    120  CG        72.3300   -3.0070    5.2210 C.3   224  GLU224      0.1161
    121  CD        72.2740   -3.0750    6.7330 C.2   224  GLU224      0.3649
    122  OE1       71.1800   -3.3760    7.2680 O.co2 224  GLU224     -0.2457
    123  OE2       73.3210   -2.8300    7.3830 O.co2 224  GLU224     -0.2457
    124  N         68.6850   -3.8680    2.9760 N.am  225  ILE225     -0.1980
    125  CA        67.4150   -4.5330    2.7620 C.3   225  ILE225      0.1595
    126  C         67.3930   -5.1960    1.3840 C.2   225  ILE225      0.2287
    127  O         67.0120   -6.3650    1.2670 O.2   225  ILE225     -0.2864
    128  CB        66.2450   -3.5520    2.9310 C.3   225  ILE225      0.0276
    129  CG1       66.1170   -3.1670    4.4050 C.3   225  ILE225      0.0022
    130  CG2       64.9460   -4.1800    2.4650 C.3   225  ILE225      0.0022
    131  CD1       65.0420   -2.1600    4.6840 C.3   225  ILE225      0.0001
@<TRIPOS>BOND
     1   127   126    2
     2   126   125    1
     3   115   116    1
     4   118   117    2
     5    92    91    2
     6   130   128    1
     7   125   128    1
     8   125   124    1
     9   117   124   am
    10   117   116    1
    11    98    99    1
    12   128   129    1
    13   116   119    1
    14   101   100    2
    15    91    90    1
    16   109   110    2
    17   109   108    1
    18    99   100    1
    19    99   102    1
    20   100   107   am
    21   129   131    1
    22   107   108    1
    23   119   120    1
    24    90    93    1
    25    90    89    1
    26   108   111    1
    27    84    83    2
    28    93    94    1
    29   103   102    1
    30   103   104    1
    31   120   121    1
    32   111   112    1
    33    94    95    1
    34    83    89   am
    35    83    82    1
    36   112   113    1
    37    95    97   am
    38    95    96    2
    39   104   106   ar
    40   104   105   ar
    41     1     2    1
    42   121   122   ar
    43   121   123   ar
    44    82    81    1
    45    82    85    1
    46   113   114    1
    47     8     6    1
    48     6     5    1
    49     2     5    1
    50     2     3    1
    51    85    86    1
    52     5     7    1
    53    76    75    2
    54     3     4    2
    55    88    86    1
    56    86    87    1
    57    75    74    1
    58    15    13    1
    59     9    10    1
    60    74    77    1
    61    74    73    1
    62    77    78    1
    63    67    66    2
    64    10    13    1
    65    10    11    1
    66    13    14    1
    67    73    66   am
    68    66    65    1
    69    80    79    1
    70    78    79    1
    71    11    16   am
    72    11    12    2
    73    42    44   ar
    74    42    40   ar
    75    16    17    1
    76    44    43   ar
    77    65    64    1
    78    65    68    1
    79    40    39   ar
    80    21    20    1
    81    21    22    1
    82    24    23    1
    83    20    17    1
    84    17    18    1
    85    18    19    2
    86    43    41   ar
    87    68    69    1
    88    59    58    2
    89    39    41   ar
    90    39    38    1
    91    25    26    1
    92    22    23    1
    93    38    35    1
    94    69    70    1
    95    58    57    1
    96    26    29    1
    97    26    27    1
    98    35    34    1
    99    35    36    1
   100    29    30    1
   101    71    70    2
   102    70    72   am
   103    57    56    1
   104    57    60    1
   105    37    36    2
   106    27    28    2
   107    36    45   am
   108    32    33    1
   109    32    31    1
   110    30    31    1
   111    60    61    1
   112    61    62    1
   113    61    63    1
   114    45    46    1
   115    55    53    1
   116    46    47    1
   117    46    49    1
   118    51    50    1
   119    51    52    1
   120    53    52    2
   121    53    54    1
   122    47    48    2
   123    50    49    1
