@<TRIPOS>MOLECULE
tmp/3k23E00.pdb
 146 137 0 0 0
SMALL
GASTEIGER

@<TRIPOS>ATOM
      1  N         16.8310    7.2570  -43.1430 N.3    48  ILE48      -0.1245
      2  CA        16.7280    7.4170  -41.6970 C.3    48  ILE48       0.1561
      3  C         18.1290    7.3470  -41.0660 C.2    48  ILE48       0.2260
      4  O         18.4420    8.0900  -40.1290 O.2    48  ILE48      -0.2867
      5  CB        15.8210    6.3330  -41.0900 C.3    48  ILE48       0.0252
      6  CG1       14.3650    6.5050  -41.5770 C.3    48  ILE48       0.0019
      7  CG2       15.9050    6.3840  -39.5750 C.3    48  ILE48       0.0019
      8  CD1       13.5550    5.2210  -41.6440 C.3    48  ILE48       0.0001
      9  N         20.0400   10.6690  -41.7610 N.3    51  VAL51      -0.1231
     10  CA        19.6390   11.7320  -40.8500 C.3    51  VAL51       0.1692
     11  C         20.3590   11.6220  -39.5080 C.2    51  VAL51       0.2591
     12  O         20.7530   12.6320  -38.9260 O.2    51  VAL51      -0.2718
     13  CB        18.1210   11.7010  -40.5830 C.3    51  VAL51       0.0266
     14  CG1       17.6660   13.0210  -39.9570 C.3    51  VAL51       0.0020
     15  CG2       17.3390   11.4100  -41.8630 C.3    51  VAL51       0.0020
     16  N         20.5080   10.3980  -39.0070 N.am   52  LYS52      -0.1980
     17  CA        21.2240   10.1710  -37.7510 C.3    52  LYS52       0.1596
     18  C         22.6940   10.4980  -37.9380 C.2    52  LYS52       0.2287
     19  O         23.3080   11.0690  -37.0450 O.2    52  LYS52      -0.2864
     20  CB        21.0430    8.7270  -37.2560 C.3    52  LYS52       0.0298
     21  CG        19.6510    8.3890  -36.8530 C.3    52  LYS52       0.0038
     22  CD        19.2450    8.9940  -35.5450 C.3    52  LYS52       0.0206
     23  CE        17.7990    8.5980  -35.1570 C.3    52  LYS52       0.1093
     24  NZ        16.7540    9.3460  -35.8700 N.3    52  LYS52      -0.1314
     25  N         22.9910   14.4970  -38.3660 N.3    55  LYS55      -0.1245
     26  CA        22.8650   14.9650  -36.9780 C.3    55  LYS55       0.1561
     27  C         24.1760   15.0000  -36.1920 C.2    55  LYS55       0.2260
     28  O         24.3880   15.9150  -35.4000 O.2    55  LYS55      -0.2867
     29  CB        21.8700   14.0900  -36.1980 C.3    55  LYS55       0.0271
     30  CG        20.4440   14.6220  -36.1440 C.3    55  LYS55       0.0035
     31  CD        19.6380   13.9010  -35.0690 C.3    55  LYS55       0.0206
     32  CE        19.9400   14.4250  -33.6680 C.3    55  LYS55       0.1093
     33  NZ        18.9900   13.8680  -32.6470 N.3    55  LYS55      -0.1314
     34  N         26.4090   20.9520  -38.0650 N.3    60  PHE60      -0.1227
     35  CA        25.1290   20.5940  -38.6610 C.3    60  PHE60       0.1736
     36  C         24.0030   20.7230  -37.6490 C.2    60  PHE60       0.2595
     37  O         22.9670   21.3090  -37.9480 O.2    60  PHE60      -0.2718
     38  CB        25.1520   19.1700  -39.2250 C.3    60  PHE60       0.0547
     39  CG        23.9970   18.8720  -40.1340 C.ar   60  PHE60      -0.0202
     40  CD1       24.0480   19.2200  -41.4760 C.ar   60  PHE60      -0.0042
     41  CD2       22.8460   18.2660  -39.6500 C.ar   60  PHE60      -0.0042
     42  CE1       22.9760   18.9560  -42.3280 C.ar   60  PHE60      -0.0003
     43  CE2       21.7710   18.0010  -40.4950 C.ar   60  PHE60      -0.0003
     44  CZ        21.8390   18.3470  -41.8360 C.ar   60  PHE60      -0.0000
     45  N         24.2110   20.1840  -36.4500 N.am   61  ARG61      -0.1980
     46  CA        23.2000   20.2660  -35.3980 C.3    61  ARG61       0.1597
     47  C         22.8600   21.7330  -35.1220 C.2    61  ARG61       0.2287
     48  O         21.6890   22.0860  -34.9610 O.2    61  ARG61      -0.2864
     49  CB        23.6790   19.5710  -34.1180 C.3    61  ARG61       0.0334
     50  CG        22.5770   19.3610  -33.0730 C.3    61  ARG61       0.0492
     51  CD        23.1440   18.8490  -31.7550 C.3    61  ARG61       0.2205
     52  NE        24.0330   19.8290  -31.1260 N.pl3  61  ARG61      -0.0865
     53  CZ        23.6390   20.8530  -30.3640 C.cat  61  ARG61       0.5346
     54  NH1       24.5500   21.6810  -29.8490 N.pl3  61  ARG61       0.1354
     55  NH2       22.3480   21.0600  -30.1060 N.pl3  61  ARG61       0.1354
     56  N         17.1470   24.7260  -38.3520 N.3    65  LEU65      -0.1245
     57  CA        16.3560   23.4850  -38.4260 C.3    65  LEU65       0.1561
     58  C         15.6480   23.3470  -39.7700 C.2    65  LEU65       0.2260
     59  O         15.7130   22.2880  -40.4140 O.2    65  LEU65      -0.2867
     60  CB        15.3170   23.4060  -37.2960 C.3    65  LEU65       0.0270
     61  CG        15.7530   22.8310  -35.9440 C.3    65  LEU65       0.0019
     62  CD1       14.5520   22.7400  -35.0090 C.3    65  LEU65       0.0001
     63  CD2       16.4020   21.4590  -36.1040 C.3    65  LEU65       0.0001
     64  N         18.1260   22.2400  -42.4640 N.3    68  GLN68      -0.1231
     65  CA        18.5420   20.8340  -42.3750 C.3    68  GLN68       0.1698
     66  C         17.6360   19.9170  -43.1860 C.2    68  GLN68       0.2592
     67  O         18.1220   19.0790  -43.9480 O.2    68  GLN68      -0.2718
     68  CB        18.5390   20.3590  -40.9190 C.3    68  GLN68       0.0381
     69  CG        19.6230   20.9630  -40.0470 C.3    68  GLN68       0.0905
     70  CD        19.4960   20.5440  -38.5920 C.2    68  GLN68       0.2608
     71  OE1       19.5560   19.3540  -38.2680 O.2    68  GLN68      -0.2717
     72  NE2       19.3260   21.5230  -37.7060 N.am   68  GLN68      -0.0878
     73  N         16.3240   20.0770  -43.0030 N.am   69  MET69      -0.1979
     74  CA        15.3310   19.2960  -43.7400 C.3    69  MET69       0.1605
     75  C         15.5910   19.3860  -45.2440 C.2    69  MET69       0.2287
     76  O         15.9260   18.3910  -45.8840 O.2    69  MET69      -0.2864
     77  CB        13.9170   19.7750  -43.4080 C.3    69  MET69       0.0413
     78  CG        13.6800   19.9760  -41.9080 C.3    69  MET69       0.0598
     79  SD        13.5670   18.4400  -41.0020 S.3    69  MET69      -0.1393
     80  CE        12.2340   17.5890  -41.7480 C.3    69  MET69       0.0692
     81  N         18.7950   17.6590  -46.3580 N.3    72  LEU72      -0.1231
     82  CA        18.6160   16.2140  -46.4410 C.3    72  LEU72       0.1693
     83  C         17.6540   15.8770  -47.5810 C.2    72  LEU72       0.2591
     84  O         17.8690   14.9090  -48.3100 O.2    72  LEU72      -0.2718
     85  CB        18.0690   15.6840  -45.1210 C.3    72  LEU72       0.0284
     86  CG        18.9500   15.9710  -43.9000 C.3    72  LEU72       0.0019
     87  CD1       18.0880   16.1750  -42.6580 C.3    72  LEU72       0.0001
     88  CD2       19.9710   14.8660  -43.6850 C.3    72  LEU72       0.0001
     89  N         16.6050   16.6940  -47.7210 N.am   73  GLN73      -0.1979
     90  CA        15.5960   16.5540  -48.7900 C.3    73  GLN73       0.1601
     91  C         16.1980   16.5970  -50.1980 C.2    73  GLN73       0.2287
     92  O         15.7280   15.9030  -51.1000 O.2    73  GLN73      -0.2864
     93  CB        14.5240   17.6520  -48.6750 C.3    73  GLN73       0.0394
     94  CG        13.4360   17.4130  -47.6240 C.3    73  GLN73       0.0908
     95  CD        12.5590   18.6410  -47.3790 C.2    73  GLN73       0.2608
     96  OE1       12.3830   19.4890  -48.2590 O.2    73  GLN73      -0.2717
     97  NE2       12.0010   18.7340  -46.1760 N.am   73  GLN73      -0.0878
     98  N          6.8730    5.9250  -45.3250 N.3   225  GLU225     -0.1231
     99  CA         6.6750    7.3210  -44.9250 C.3   225  GLU225      0.1699
    100  C          7.8910    8.2010  -45.2100 C.2   225  GLU225      0.2592
    101  O          7.7470    9.3350  -45.6740 O.2   225  GLU225     -0.2718
    102  CB         6.3130    7.4230  -43.4390 C.3   225  GLU225      0.0402
    103  CG         5.8830    8.8270  -43.0030 C.3   225  GLU225      0.1161
    104  CD         5.7570    8.9790  -41.4960 C.2   225  GLU225      0.3649
    105  OE1        5.7270    7.9570  -40.7770 O.co2 225  GLU225     -0.2457
    106  OE2        5.6830   10.1320  -41.0270 O.co2 225  GLU225     -0.2457
    107  N          9.0820    7.6780  -44.9350 N.am  226  MET226     -0.1979
    108  CA        10.3020    8.4530  -45.0940 C.3   226  MET226      0.1605
    109  C         10.4850    8.9430  -46.5230 C.2   226  MET226      0.2287
    110  O         10.5960   10.1420  -46.7550 O.2   226  MET226     -0.2864
    111  CB        11.5240    7.6400  -44.6690 C.3   226  MET226      0.0413
    112  CG        12.8110    8.4420  -44.7180 C.3   226  MET226      0.0598
    113  SD        12.6420   10.0260  -43.8710 S.3   226  MET226     -0.1393
    114  CE        12.8080    9.5000  -42.1680 C.3   226  MET226      0.0692
    115  N          7.5370   11.5500  -47.4850 N.3   229  GLU229     -0.1231
    116  CA         7.8020   12.9470  -47.1090 C.3   229  GLU229      0.1699
    117  C          8.7680   13.6110  -48.0910 C.2   229  GLU229      0.2592
    118  O          8.3970   14.5420  -48.8100 O.2   229  GLU229     -0.2718
    119  CB         8.4050   13.0440  -45.7020 C.3   229  GLU229      0.0402
    120  CG         7.4380   12.7970  -44.5570 C.3   229  GLU229      0.1161
    121  CD         7.9400   13.3750  -43.2320 C.2   229  GLU229      0.3649
    122  OE1        9.1520   13.6730  -43.1140 O.co2 229  GLU229     -0.2457
    123  OE2        7.1160   13.5380  -42.3040 O.co2 229  GLU229     -0.2457
    124  N         10.0020   13.1090  -48.1130 N.am  230  ILE230     -0.1980
    125  CA        11.0700   13.6230  -48.9770 C.3   230  ILE230      0.1595
    126  C         10.6330   13.8280  -50.4330 C.2   230  ILE230      0.2287
    127  O         11.0470   14.7950  -51.0760 O.2   230  ILE230     -0.2864
    128  CB        12.3040   12.6840  -48.9300 C.3   230  ILE230      0.0276
    129  CG1       13.0620   12.8900  -47.6150 C.3   230  ILE230      0.0022
    130  CG2       13.2250   12.9210  -50.1160 C.3   230  ILE230      0.0022
    131  CD1       14.1450   11.8640  -47.3540 C.3   230  ILE230      0.0001
    132  N          7.4320   14.3720  -51.3530 N.3   232  THR232     -0.1203
    133  CA         6.3840   15.4020  -51.3500 C.3   232  THR232      0.1994
    134  C          6.9590   16.7780  -51.6600 C.2   232  THR232      0.2617
    135  O          6.3810   17.5280  -52.4420 O.2   232  THR232     -0.2717
    136  CB         5.6480   15.4890  -49.9880 C.3   232  THR232      0.1784
    137  OG1        5.4140   14.1720  -49.4750 O.3   232  THR232     -0.2211
    138  CG2        4.3170   16.2290  -50.1340 C.3   232  THR232      0.0376
    139  N          8.0970   17.0970  -51.0470 N.am  233  ASN233     -0.1974
    140  CA         8.7590   18.3920  -51.2480 C.3   233  ASN233      0.1688
    141  C          9.7160   18.4370  -52.4490 C.2   233  ASN233      0.2292
    142  O         10.4900   19.3860  -52.5900 O.2   233  ASN233     -0.2864
    143  CB         9.5010   18.8110  -49.9690 C.3   233  ASN233      0.1181
    144  CG         8.5650   19.3470  -48.9000 C.2   233  ASN233      0.2629
    145  OD1        8.3830   18.7280  -47.8490 O.2   233  ASN233     -0.2716
    146  ND2        7.9640   20.5050  -49.1660 N.am  233  ASN233     -0.0877
@<TRIPOS>BOND
     1   142   141    2
     2   141   140    1
     3   135   134    2
     4   134   133    1
     5   134   139   am
     6   132   133    1
     7   133   136    1
     8   140   139    1
     9   140   143    1
    10    92    91    2
    11   127   126    2
    12   126   125    1
    13    91    90    1
    14   138   136    1
    15   130   128    1
    16   136   137    1
    17   143   144    1
    18   146   144   am
    19   125   128    1
    20   125   124    1
    21   128   129    1
    22   144   145    2
    23   118   117    2
    24    90    93    1
    25    90    89    1
    26    93    94    1
    27    84    83    2
    28    96    95    2
    29   124   117   am
    30   117   116    1
    31    89    83   am
    32    94    95    1
    33   129   131    1
    34    83    82    1
    35   115   116    1
    36    95    97   am
    37   116   119    1
    38   110   109    2
    39   109   108    1
    40    82    81    1
    41    82    85    1
    42    76    75    2
    43   119   120    1
    44   101   100    2
    45    98    99    1
    46    75    74    1
    47   100   107   am
    48   100    99    1
    49    85    86    1
    50   108   107    1
    51   108   111    1
    52    99   102    1
    53   112   111    1
    54   112   113    1
    55   120   121    1
    56    67    66    2
    57    86    88    1
    58    86    87    1
    59   113   114    1
    60    74    77    1
    61    74    73    1
    62   102   103    1
    63    77    78    1
    64   121   122   ar
    65   121   123   ar
    66    66    73   am
    67    66    65    1
    68     1     2    1
    69   103   104    1
    70    64    65    1
    71    65    68    1
    72    42    44   ar
    73    42    40   ar
    74    78    79    1
    75    15    13    1
    76    44    43   ar
    77     9    10    1
    78    80    79    1
    79     2     5    1
    80     2     3    1
    81     8     6    1
    82     6     5    1
    83   104   106   ar
    84   104   105   ar
    85    40    39   ar
    86     5     7    1
    87     3     4    2
    88    68    69    1
    89    10    13    1
    90    10    11    1
    91    13    14    1
    92    43    41   ar
    93    59    58    2
    94    39    41   ar
    95    39    38    1
    96    69    70    1
    97    58    57    1
    98    11    16   am
    99    11    12    2
   100    38    35    1
   101    16    17    1
   102    35    34    1
   103    35    36    1
   104    70    71    2
   105    70    72   am
   106    57    56    1
   107    57    60    1
   108    25    26    1
   109    37    36    2
   110    18    17    1
   111    18    19    2
   112    17    20    1
   113    36    45   am
   114    60    61    1
   115    20    21    1
   116    26    29    1
   117    26    27    1
   118    21    22    1
   119    45    46    1
   120    29    30    1
   121    27    28    2
   122    30    31    1
   123    63    61    1
   124    61    62    1
   125    24    23    1
   126    22    23    1
   127    46    47    1
   128    46    49    1
   129    47    48    2
   130    31    32    1
   131    49    50    1
   132    32    33    1
   133    50    51    1
   134    51    52    1
   135    52    53    2
   136    53    55    1
   137    53    54    1
