@<TRIPOS>MOLECULE
tmp/3k23C00.pdb
 139 130 0 0 0
SMALL
GASTEIGER

@<TRIPOS>ATOM
      1  N         34.8500   -9.9870  -19.1810 N.3    46  ILE46      -0.1245
      2  CA        35.6400  -10.3840  -18.0100 C.3    46  ILE46       0.1561
      3  C         36.0850  -11.8470  -18.1580 C.2    46  ILE46       0.2260
      4  O         37.2190  -12.2100  -17.8220 O.2    46  ILE46      -0.2867
      5  CB        34.8600  -10.2570  -16.6750 C.3    46  ILE46       0.0252
      6  CG1       34.4890   -8.7980  -16.3710 C.3    46  ILE46       0.0019
      7  CG2       35.7000  -10.7980  -15.5050 C.3    46  ILE46       0.0019
      8  CD1       33.4030   -8.6450  -15.2590 C.3    46  ILE46       0.0001
      9  N         39.0430  -12.3020  -20.7160 N.3    49  VAL49      -0.1231
     10  CA        40.3810  -12.0310  -20.2070 C.3    49  VAL49       0.1692
     11  C         40.9520  -13.2030  -19.3910 C.2    49  VAL49       0.2591
     12  O         42.1320  -13.5100  -19.5130 O.2    49  VAL49      -0.2718
     13  CB        40.4190  -10.7420  -19.3640 C.3    49  VAL49       0.0266
     14  CG1       41.8490  -10.4100  -18.9640 C.3    49  VAL49       0.0020
     15  CG2       39.8000   -9.5910  -20.1350 C.3    49  VAL49       0.0020
     16  N         40.1340  -13.8690  -18.5770 N.am   50  LYS50      -0.1980
     17  CA        40.6290  -15.0190  -17.8090 C.3    50  LYS50       0.1596
     18  C         41.1620  -16.0710  -18.7550 C.2    50  LYS50       0.2287
     19  O         42.2670  -16.5810  -18.5880 O.2    50  LYS50      -0.2864
     20  CB        39.5260  -15.6400  -16.9470 C.3    50  LYS50       0.0298
     21  CG        38.9110  -14.6620  -15.9570 C.3    50  LYS50       0.0038
     22  CD        38.3480  -15.3600  -14.7240 C.3    50  LYS50       0.0206
     23  CE        37.9140  -14.3400  -13.6710 C.3    50  LYS50       0.1093
     24  NZ        37.8520  -14.9600  -12.3200 N.3    50  LYS50      -0.1314
     25  N         44.4160  -14.8420  -20.5420 N.3    53  LYS53      -0.1245
     26  CA        45.4820  -14.9330  -19.5470 C.3    53  LYS53       0.1561
     27  C         45.9610  -16.3660  -19.3300 C.2    53  LYS53       0.2260
     28  O         47.1300  -16.5810  -19.0340 O.2    53  LYS53      -0.2867
     29  CB        44.9800  -14.3410  -18.2290 C.3    53  LYS53       0.0271
     30  CG        46.0590  -14.0230  -17.2150 C.3    53  LYS53       0.0035
     31  CD        45.6040  -12.9670  -16.2030 C.3    53  LYS53       0.0206
     32  CE        44.3350  -13.3700  -15.4680 C.3    53  LYS53       0.1093
     33  NZ        43.9920  -12.3540  -14.4480 N.3    53  LYS53      -0.1314
     34  N         50.5850  -16.5090  -24.3780 N.3    58  PHE58      -0.1227
     35  CA        49.9740  -15.2040  -24.1290 C.3    58  PHE58       0.1736
     36  C         50.5150  -14.6230  -22.8550 C.2    58  PHE58       0.2595
     37  O         51.0830  -13.5340  -22.8550 O.2    58  PHE58      -0.2718
     38  CB        48.4570  -15.2970  -24.0190 C.3    58  PHE58       0.0547
     39  CG        47.7800  -13.9600  -23.9160 C.ar   58  PHE58      -0.0202
     40  CD1       47.8070  -13.0700  -24.9900 C.ar   58  PHE58      -0.0042
     41  CD2       47.1110  -13.5880  -22.7550 C.ar   58  PHE58      -0.0042
     42  CE1       47.1760  -11.8360  -24.9060 C.ar   58  PHE58      -0.0003
     43  CE2       46.4800  -12.3570  -22.6620 C.ar   58  PHE58      -0.0003
     44  CZ        46.5130  -11.4790  -23.7410 C.ar   58  PHE58      -0.0000
     45  N         50.3580  -15.3680  -21.7700 N.am   59  ARG59      -0.1980
     46  CA        50.7350  -14.8730  -20.4520 C.3    59  ARG59       0.1597
     47  C         52.1380  -14.2640  -20.4600 C.2    59  ARG59       0.2287
     48  O         52.3820  -13.2840  -19.7630 O.2    59  ARG59      -0.2864
     49  CB        50.6260  -15.9830  -19.4070 C.3    59  ARG59       0.0334
     50  CG        49.9300  -15.5270  -18.1300 C.3    59  ARG59       0.0492
     51  CD        49.6480  -16.7060  -17.1860 C.3    59  ARG59       0.2205
     52  NE        48.5780  -16.4140  -16.2330 N.pl3  59  ARG59      -0.0865
     53  CZ        48.6860  -15.5900  -15.1890 C.cat  59  ARG59       0.5346
     54  NH1       49.8240  -14.9370  -14.9390 N.pl3  59  ARG59       0.1354
     55  NH2       47.6350  -15.4100  -14.3850 N.pl3  59  ARG59       0.1354
     56  N         52.6460   -7.0310  -20.7320 N.3    63  LEU63      -0.1245
     57  CA        51.3300   -6.5790  -20.2320 C.3    63  LEU63       0.1561
     58  C         50.7340   -5.3920  -21.0080 C.2    63  LEU63       0.2260
     59  O         49.5480   -5.0980  -20.8670 O.2    63  LEU63      -0.2867
     60  CB        51.4190   -6.2370  -18.7320 C.3    63  LEU63       0.0270
     61  CG        50.2550   -5.5330  -18.0090 C.3    63  LEU63       0.0019
     62  CD1       48.9890   -6.3720  -17.9970 C.3    63  LEU63       0.0001
     63  CD2       50.6800   -5.1730  -16.5820 C.3    63  LEU63       0.0001
     64  N         49.1170   -7.5090  -24.0850 N.3    66  GLN66      -0.1231
     65  CA        47.9340   -8.2240  -23.6200 C.3    66  GLN66       0.1698
     66  C         46.7290   -7.3110  -23.6510 C.2    66  GLN66       0.2592
     67  O         45.6770   -7.6680  -24.1880 O.2    66  GLN66      -0.2718
     68  CB        48.1290   -8.7260  -22.1920 C.3    66  GLN66       0.0381
     69  CG        49.1570   -9.8290  -22.0730 C.3    66  GLN66       0.0905
     70  CD        49.2500  -10.3780  -20.6730 C.2    66  GLN66       0.2608
     71  OE1       48.2360  -10.4960  -19.9750 O.2    66  GLN66      -0.2717
     72  NE2       50.4720  -10.7200  -20.2470 N.am   66  GLN66      -0.0878
     73  N         46.8980   -6.1240  -23.0770 N.am   67  MET67      -0.1979
     74  CA        45.8320   -5.1440  -23.0500 C.3    67  MET67       0.1605
     75  C         45.4140   -4.7580  -24.4650 C.2    67  MET67       0.2287
     76  O         44.2390   -4.8600  -24.8170 O.2    67  MET67      -0.2864
     77  CB        46.2620   -3.9260  -22.2420 C.3    67  MET67       0.0413
     78  CG        46.3220   -4.2110  -20.7540 C.3    67  MET67       0.0598
     79  SD        47.0860   -2.8680  -19.8540 S.3    67  MET67      -0.1393
     80  CE        46.0260   -1.4940  -20.3060 C.3    67  MET67       0.0692
     81  N         43.5480   -7.6420  -26.2590 N.3    70  LEU70      -0.1231
     82  CA        42.1950   -7.8070  -25.7310 C.3    70  LEU70       0.1693
     83  C         41.2670   -6.6780  -26.2060 C.2    70  LEU70       0.2591
     84  O         40.1280   -6.9310  -26.5900 O.2    70  LEU70      -0.2718
     85  CB        42.1960   -7.8780  -24.1990 C.3    70  LEU70       0.0284
     86  CG        42.6780   -9.1940  -23.5900 C.3    70  LEU70       0.0019
     87  CD1       43.0050   -9.0260  -22.1300 C.3    70  LEU70       0.0001
     88  CD2       41.6440  -10.2860  -23.7550 C.3    70  LEU70       0.0001
     89  N         41.7520   -5.4430  -26.1820 N.am   71  GLN71      -0.1979
     90  CA        40.9550   -4.2860  -26.5990 C.3    71  GLN71       0.1601
     91  C         40.5630   -4.3230  -28.0930 C.2    71  GLN71       0.2287
     92  O         39.4410   -3.9510  -28.4840 O.2    71  GLN71      -0.2864
     93  CB        41.7350   -2.9980  -26.3010 C.3    71  GLN71       0.0394
     94  CG        41.8880   -2.6820  -24.8170 C.3    71  GLN71       0.0908
     95  CD        42.8540   -1.5320  -24.5590 C.2    71  GLN71       0.2608
     96  OE1       42.7760   -0.4830  -25.2010 O.2    71  GLN71      -0.2717
     97  NE2       43.7670   -1.7220  -23.6100 N.am   71  GLN71      -0.0878
     98  N         31.3830   -0.9970  -16.2340 N.3   222  GLU222     -0.1231
     99  CA        32.7420   -0.4660  -16.1430 C.3   222  GLU222      0.1699
    100  C         33.6690   -1.0230  -17.2280 C.2   222  GLU222      0.2592
    101  O         34.3240   -0.2540  -17.9220 O.2   222  GLU222     -0.2718
    102  CB        33.3450   -0.7320  -14.7590 C.3   222  GLU222      0.0402
    103  CG        34.7200   -0.0710  -14.5410 C.3   222  GLU222      0.1161
    104  CD        35.3900   -0.4820  -13.2350 C.2   222  GLU222      0.3649
    105  OE1       36.6050   -0.1930  -13.0810 O.co2 222  GLU222     -0.2457
    106  OE2       34.7030   -1.0900  -12.3760 O.co2 222  GLU222     -0.2457
    107  N         33.7190   -2.3440  -17.3770 N.am  223  MET223     -0.1979
    108  CA        34.6090   -2.9690  -18.3610 C.3   223  MET223      0.1605
    109  C         34.3700   -2.4450  -19.7710 C.2   223  MET223      0.2287
    110  O         35.2850   -1.9410  -20.4170 O.2   223  MET223     -0.2864
    111  CB        34.4600   -4.4960  -18.3690 C.3   223  MET223      0.0413
    112  CG        35.5890   -5.2480  -17.6780 C.3   223  MET223      0.0598
    113  SD        37.1980   -5.1610  -18.5090 S.3   223  MET223     -0.1393
    114  CE        36.7420   -5.5360  -20.1870 C.3   223  MET223      0.0692
    115  N         35.1030    1.1570  -20.1440 N.3   226  GLU226     -0.1231
    116  CA        36.5350    1.4840  -20.1980 C.3   226  GLU226      0.1699
    117  C         37.1850    1.0680  -21.5120 C.2   226  GLU226      0.2592
    118  O         37.9820    1.8110  -22.0820 O.2   226  GLU226     -0.2718
    119  CB        37.2780    0.8300  -19.0280 C.3   226  GLU226      0.0402
    120  CG        38.7410    1.2070  -18.9040 C.3   226  GLU226      0.1161
    121  CD        38.9660    2.5620  -18.3460 C.2   226  GLU226      0.3649
    122  OE1       38.2580    2.9490  -17.3810 O.co2 226  GLU226     -0.2457
    123  OE2       39.9830    3.1760  -18.8280 O.co2 226  GLU226     -0.2457
    124  N         36.8490   -0.1360  -21.9650 N.am  227  ILE227     -0.1980
    125  CA        37.4570   -0.7110  -23.1470 C.3   227  ILE227      0.1595
    126  C         37.0500    0.0840  -24.3480 C.2   227  ILE227      0.2287
    127  O         37.9010    0.5430  -25.1130 O.2   227  ILE227     -0.2864
    128  CB        37.0240   -2.1620  -23.3850 C.3   227  ILE227      0.0276
    129  CG1       37.8320   -3.1140  -22.5000 C.3   227  ILE227      0.0022
    130  CG2       37.2270   -2.5340  -24.8360 C.3   227  ILE227      0.0022
    131  CD1       37.8310   -4.5580  -22.9750 C.3   227  ILE227      0.0001
    132  N         38.7870    3.2380  -24.9530 N.3   230  ASN230     -0.1240
    133  CA        40.1720    3.0680  -25.3890 C.3   230  ASN230      0.1653
    134  C         40.3450    2.6120  -26.8270 C.2   230  ASN230      0.2266
    135  O         41.3020    3.0170  -27.4950 O.2   230  ASN230     -0.2867
    136  CB        40.8970    2.1040  -24.4650 C.3   230  ASN230      0.1155
    137  CG        41.7280    2.8210  -23.4580 C.2   230  ASN230      0.2627
    138  OD1       42.7890    3.3440  -23.7950 O.2   230  ASN230     -0.2716
    139  ND2       41.2500    2.8860  -22.2140 N.am  230  ASN230     -0.0877
@<TRIPOS>BOND
     1    92    91    2
     2    91    90    1
     3   135   134    2
     4   134   133    1
     5    90    93    1
     6    90    89    1
     7    84    83    2
     8    93    94    1
     9    81    82    1
    10    83    89   am
    11    83    82    1
    12    82    85    1
    13   133   132    1
    14   133   136    1
    15    96    95    2
    16   127   126    2
    17    40    42   ar
    18    40    39   ar
    19    42    44   ar
    20   130   128    1
    21    76    75    2
    22    94    95    1
    23    95    97   am
    24   136   137    1
    25    75    74    1
    26    34    35    1
    27   126   125    1
    28    85    86    1
    29    67    66    2
    30    35    38    1
    31    35    36    1
    32    64    65    1
    33    38    39    1
    34    39    41   ar
    35   138   137    2
    36    88    86    1
    37    44    43   ar
    38    66    65    1
    39    66    73   am
    40    65    68    1
    41    86    87    1
    42   137   139   am
    43   128   125    1
    44   128   129    1
    45   125   124    1
    46    73    74    1
    47    74    77    1
    48   131   129    1
    49    37    36    2
    50    36    45   am
    51    41    43   ar
    52    77    78    1
    53    68    69    1
    54   118   117    2
    55    69    70    1
    56   124   117   am
    57    45    46    1
    58   117   116    1
    59    58    59    2
    60    58    57    1
    61    78    79    1
    62    56    57    1
    63     9    10    1
    64    70    72   am
    65    70    71    2
    66    25    26    1
    67    47    46    1
    68    47    48    2
    69    46    49    1
    70   110   109    2
    71    80    79    1
    72    57    60    1
    73    10    11    1
    74    10    13    1
    75   116   115    1
    76   116   119    1
    77   114   113    1
    78    15    13    1
    79   109   108    1
    80    26    27    1
    81    26    29    1
    82    12    11    2
    83    49    50    1
    84    11    16   am
    85    13    14    1
    86    27    28    2
    87     1     2    1
    88   119   120    1
    89   120   121    1
    90   123   121   ar
    91    18    19    2
    92    18    17    1
    93    60    61    1
    94    16    17    1
    95   113   112    1
    96   111   108    1
    97   111   112    1
    98   108   107    1
    99   121   122   ar
   100    29    30    1
   101     3     2    1
   102     3     4    2
   103    50    51    1
   104     2     5    1
   105    61    62    1
   106    61    63    1
   107   101   100    2
   108    17    20    1
   109   107   100   am
   110   100    99    1
   111    30    31    1
   112    51    52    1
   113    20    21    1
   114     5     6    1
   115     5     7    1
   116     6     8    1
   117    98    99    1
   118    52    53    2
   119    31    32    1
   120    99   102    1
   121    21    22    1
   122    32    33    1
   123    53    54    1
   124    53    55    1
   125   102   103    1
   126    22    23    1
   127   103   104    1
   128    23    24    1
   129   104   105   ar
   130   104   106   ar
