@<TRIPOS>MOLECULE
tmp/3k24A00.pdb
 129 123 0 0 0
SMALL
GASTEIGER

@<TRIPOS>ATOM
      1  N         -6.9400  -23.2230  -12.4380 N.3    19  GLN19      -0.1245
      2  CA        -7.5060  -24.5400  -12.7210 C.3    19  GLN19       0.1566
      3  C         -9.0300  -24.4780  -12.7210 C.2    19  GLN19       0.2260
      4  O         -9.6990  -25.4770  -12.9850 O.2    19  GLN19      -0.2867
      5  CB        -7.0370  -25.5560  -11.6810 C.3    19  GLN19       0.0367
      6  CG        -7.6380  -25.3320  -10.3050 C.3    19  GLN19       0.0905
      7  CD        -7.0380  -26.2410   -9.2590 C.2    19  GLN19       0.2608
      8  OE1       -5.9230  -26.0100   -8.7830 O.2    19  GLN19      -0.2717
      9  NE2       -7.7370  -27.3310   -8.9560 N.am   19  GLN19      -0.0878
     10  N        -10.3870  -30.5680  -10.0840 N.3    23  GLY23      -0.1225
     11  CA        -9.2820  -31.0770   -9.2780 C.3    23  GLY23       0.1811
     12  C         -8.0710  -31.4350  -10.1180 C.2    23  GLY23       0.2280
     13  O         -7.6130  -32.5810  -10.1080 O.2    23  GLY23      -0.2866
     14  N         -5.0150  -29.7320  -10.2330 N.3    25  ALA25      -0.1231
     15  CA        -3.8030  -29.0660   -9.7750 C.3    25  ALA25       0.1694
     16  C         -2.5750  -29.9180  -10.0810 C.2    25  ALA25       0.2592
     17  O         -1.5390  -29.4070  -10.5180 O.2    25  ALA25      -0.2718
     18  CB        -3.8940  -28.7760   -8.2860 C.3    25  ALA25       0.0304
     19  N         -2.7090  -31.2250   -9.8790 N.am   26  TRP26      -0.1976
     20  CA        -1.6740  -32.1660  -10.2870 C.3    26  TRP26       0.1640
     21  C         -1.1760  -31.8740  -11.7020 C.2    26  TRP26       0.2290
     22  O         -0.0030  -32.0900  -12.0120 O.2    26  TRP26      -0.2864
     23  CB        -2.1830  -33.6060  -10.1880 C.3    26  TRP26       0.0576
     24  CG        -3.3880  -33.8770  -11.0350 C.ar   26  TRP26       0.0006
     25  CD1       -4.6940  -33.7630  -10.6590 C.ar   26  TRP26       0.0946
     26  CD2       -3.4000  -34.2960  -12.4050 C.ar   26  TRP26       0.0152
     27  NE1       -5.5170  -34.0850  -11.7070 N.ar   26  TRP26      -0.2442
     28  CE2       -4.7490  -34.4220  -12.7900 C.ar   26  TRP26       0.0810
     29  CE3       -2.4020  -34.5250  -13.3580 C.ar   26  TRP26       0.0012
     30  CZ2       -5.1260  -34.7830  -14.0820 C.ar   26  TRP26       0.0191
     31  CZ3       -2.7770  -34.9430  -14.6200 C.ar   26  TRP26       0.0001
     32  CH2       -4.1280  -35.0520  -14.9770 C.ar   26  TRP26       0.0015
     33  N         -2.8000  -43.2730  -14.4680 N.3    61  GLY61      -0.1225
     34  CA        -3.3660  -43.4030  -13.1300 C.3    61  GLY61       0.1811
     35  C         -4.2250  -42.2180  -12.7330 C.2    61  GLY61       0.2280
     36  O         -4.8420  -42.2180  -11.6690 O.2    61  GLY61      -0.2866
     37  N         -7.1650  -39.2100  -12.7550 N.3    63  GLU63      -0.1245
     38  CA        -8.6200  -39.2960  -12.7800 C.3    63  GLU63       0.1567
     39  C         -9.2280  -37.9200  -13.0470 C.2    63  GLU63       0.2260
     40  O        -10.2320  -37.5420  -12.4430 O.2    63  GLU63      -0.2867
     41  CB        -9.1490  -39.8820  -11.4620 C.3    63  GLU63       0.0388
     42  CG        -8.4320  -41.1560  -11.0140 C.3    63  GLU63       0.1160
     43  CD        -8.8930  -41.6710   -9.6530 C.2    63  GLU63       0.3649
     44  OE1       -9.6230  -40.9450   -8.9410 O.co2  63  GLU63      -0.2457
     45  OE2       -8.4850  -42.7930   -9.2740 O.co2  63  GLU63      -0.2457
     46  N        -11.0700  -35.2590  -10.9530 N.3    66  ASN66      -0.1225
     47  CA       -11.1960  -35.9440   -9.6720 C.3    66  ASN66       0.1785
     48  C         -9.8550  -36.1120   -8.9680 C.2    66  ASN66       0.2598
     49  O         -9.7950  -36.6530   -7.8660 O.2    66  ASN66      -0.2718
     50  CB       -11.8770  -37.3060   -9.8450 C.3    66  ASN66       0.1169
     51  CG       -13.1600  -37.2240  -10.6590 C.2    66  ASN66       0.2627
     52  OD1      -14.1800  -36.7330  -10.1780 O.2    66  ASN66      -0.2716
     53  ND2      -13.1360  -37.7880  -11.8630 N.am   66  ASN66      -0.0877
     54  N         -8.7790  -35.6680   -9.6130 N.am   67  GLY67      -0.1942
     55  CA        -7.4530  -35.6790   -8.9940 C.3    67  GLY67       0.2014
     56  C         -6.4420  -36.5320   -9.7430 C.2    67  GLY67       0.2639
     57  O         -6.7690  -37.1540  -10.7540 O.2    67  GLY67      -0.2714
     58  N         -5.2160  -36.5830   -9.2300 N.am   68  GLY68      -0.1939
     59  CA        -4.1040  -37.1810   -9.9610 C.3    68  GLY68       0.2014
     60  C         -2.7590  -36.9150   -9.3100 C.2    68  GLY68       0.2639
     61  O         -2.6780  -36.2300   -8.2910 O.2    68  GLY68      -0.2714
     62  N         -1.7030  -37.4880   -9.8850 N.am   69  LEU69      -0.1963
     63  CA        -0.3360  -37.2320   -9.4320 C.3    69  LEU69       0.1728
     64  C          0.5140  -36.6230  -10.5450 C.2    69  LEU69       0.2616
     65  O          0.5200  -37.1160  -11.6700 O.2    69  LEU69      -0.2715
     66  CB         0.3260  -38.5240   -8.9400 C.3    69  LEU69       0.0311
     67  CG        -0.1520  -39.1620   -7.6360 C.3    69  LEU69       0.0022
     68  CD1        0.6920  -40.3910   -7.3230 C.3    69  LEU69       0.0001
     69  CD2       -0.0950  -38.1690   -6.4870 C.3    69  LEU69       0.0001
     70  N          1.3860  -35.6970  -10.1620 N.am   70  MET70      -0.1977
     71  CA         2.4090  -35.1820  -11.0610 C.3    70  MET70       0.1605
     72  C          3.2360  -36.2950  -11.6980 C.2    70  MET70       0.2287
     73  O          3.4720  -36.2890  -12.9050 O.2    70  MET70      -0.2864
     74  CB         3.3120  -34.1950  -10.3250 C.3    70  MET70       0.0413
     75  CG         2.6160  -32.8950   -9.9450 C.3    70  MET70       0.0598
     76  SD         1.6070  -33.0390   -8.4570 S.3    70  MET70      -0.1393
     77  CE         2.7910  -32.5610   -7.2040 C.3    70  MET70       0.0692
     78  N          2.4810  -39.3880  -12.3430 N.3    72  TYR72      -0.1241
     79  CA         1.6690  -39.9760  -13.3970 C.3    72  TYR72       0.1605
     80  C          1.7140  -39.1360  -14.6730 C.2    72  TYR72       0.2264
     81  O          1.8120  -39.6730  -15.7770 O.2    72  TYR72      -0.2867
     82  CB         0.2260  -40.1470  -12.9230 C.3    72  TYR72       0.0534
     83  CG         0.0550  -41.1710  -11.8210 C.ar   72  TYR72      -0.0201
     84  CD1        1.0300  -42.1310  -11.5770 C.ar   72  TYR72      -0.0009
     85  CD2       -1.1150  -41.2210  -11.0700 C.ar   72  TYR72      -0.0009
     86  CE1        0.8530  -43.0980  -10.6040 C.ar   72  TYR72       0.0417
     87  CE2       -1.3110  -42.1980  -10.1140 C.ar   72  TYR72       0.0417
     88  CZ        -0.3140  -43.1170   -9.8640 C.ar   72  TYR72       0.1957
     89  OH        -0.5030  -44.0820   -8.8990 O.3    72  TYR72      -0.2866
     90  N          3.5410  -31.4880   -3.3340 N.3   135  ALA135     -0.1245
     91  CA         2.1760  -31.5800   -2.8360 C.3   135  ALA135      0.1562
     92  C          2.0970  -31.0190   -1.4230 C.2   135  ALA135      0.2260
     93  O          3.0210  -31.1970   -0.6270 O.2   135  ALA135     -0.2867
     94  CB         1.7060  -33.0240   -2.8600 C.3   135  ALA135      0.0290
     95  N         -1.3520  -34.5740    2.2760 N.3   161  MET161     -0.1230
     96  CA        -1.4090  -33.4800    1.3130 C.3   161  MET161      0.1702
     97  C         -2.5190  -33.7220    0.3000 C.2   161  MET161      0.2592
     98  O         -2.8860  -34.8660    0.0360 O.2   161  MET161     -0.2718
     99  CB        -0.0680  -33.3420    0.5910 C.3   161  MET161      0.0401
    100  CG         1.1220  -33.1900    1.5210 C.3   161  MET161      0.0596
    101  SD         1.7500  -34.7670    2.1260 S.3   161  MET161     -0.1393
    102  CE         2.8580  -35.2240    0.7930 C.3   161  MET161      0.0692
    103  N         -3.0410  -32.6450   -0.2790 N.am  162  ASP162     -0.1960
    104  CA        -4.2760  -32.7230   -1.0530 C.3   162  ASP162      0.1840
    105  C         -4.2500  -31.8550   -2.3090 C.2   162  ASP162      0.2622
    106  O         -5.2670  -31.7120   -2.9880 O.2   162  ASP162     -0.2715
    107  CB        -5.4800  -32.3520   -0.1840 C.3   162  ASP162      0.1450
    108  CG        -5.3660  -30.9570    0.4110 C.2   162  ASP162      0.3671
    109  OD1       -4.4270  -30.2190    0.0430 O.co2 162  ASP162     -0.2456
    110  OD2       -6.2140  -30.5990    1.2560 O.co2 162  ASP162     -0.2456
    111  N         -3.1140  -31.2200   -2.5760 N.am  163  HIS163     -0.1959
    112  CA        -3.0630  -30.1530   -3.5720 C.3   163  HIS163      0.1787
    113  C         -1.6550  -29.9540   -4.1270 C.2   163  HIS163      0.2620
    114  O         -0.7190  -29.6810   -3.3830 O.2   163  HIS163     -0.2715
    115  CB        -3.5880  -28.8440   -2.9780 C.3   163  HIS163      0.0785
    116  CG        -3.6300  -27.7100   -3.9540 C.ar  163  HIS163      0.0821
    117  ND1       -4.4480  -27.7140   -5.0650 N.ar  163  HIS163     -0.2267
    118  CD2       -3.0030  -26.5110   -3.9540 C.ar  163  HIS163      0.1154
    119  CE1       -4.2830  -26.5870   -5.7340 C.ar  163  HIS163      0.1986
    120  NE2       -3.3930  -25.8490   -5.0940 N.ar  163  HIS163     -0.2212
    121  N         -1.5130  -30.0860   -5.4400 N.am  164  GLY164     -0.1954
    122  CA        -0.2040  -29.9850   -6.0780 C.3   164  GLY164      0.1869
    123  C          0.1530  -28.5590   -6.4480 C.2   164  GLY164      0.2309
    124  O         -0.6600  -27.8370   -7.0250 O.2   164  GLY164     -0.2863
    125  N          6.4270  -35.1370   -1.0040 N.3   214  ALA214     -0.1245
    126  CA         6.0470  -35.6330   -2.3220 C.3   214  ALA214      0.1562
    127  C          6.5470  -34.7020   -3.4260 C.2   214  ALA214      0.2260
    128  O          5.7710  -34.2250   -4.2570 O.2   214  ALA214     -0.2867
    129  CB         4.5350  -35.8100   -2.4100 C.3   214  ALA214      0.0290
@<TRIPOS>BOND
     1    81    80    2
     2    32    31   ar
     3    32    30   ar
     4    80    79    1
     5    31    29   ar
     6    33    34    1
     7    30    28   ar
     8    79    82    1
     9    79    78    1
    10    29    26   ar
    11    34    35    1
    12    39    38    1
    13    39    40    2
    14     4     3    2
    15    82    83    1
    16    73    72    2
    17    28    26   ar
    18    28    27   ar
    19    38    37    1
    20    38    41    1
    21    35    36    2
    22     3     2    1
    23     2     1    1
    24     2     5    1
    25    26    24   ar
    26    22    21    2
    27    53    51   am
    28    83    84   ar
    29    83    85   ar
    30    27    25   ar
    31    21    20    1
    32    72    71    1
    33     5     6    1
    34    65    64    2
    35    84    86   ar
    36    41    42    1
    37    85    87   ar
    38    71    74    1
    39    71    70    1
    40    24    25   ar
    41    24    23    1
    42    42    43    1
    43    46    47    1
    44    57    56    2
    45    51    52    2
    46    51    50    1
    47    86    88   ar
    48    64    70   am
    49    64    63    1
    50    17    16    2
    51    74    75    1
    52     6     7    1
    53    20    23    1
    54    20    19    1
    55    14    15    1
    56    12    13    2
    57    12    11    1
    58    87    88   ar
    59    10    11    1
    60    16    19   am
    61    16    15    1
    62    59    60    1
    63    59    58    1
    64    75    76    1
    65    62    63    1
    66    62    60   am
    67    88    89    1
    68    50    47    1
    69    15    18    1
    70    56    58   am
    71    56    55    1
    72    47    48    1
    73    43    45   ar
    74    43    44   ar
    75    54    55    1
    76    54    48   am
    77    63    66    1
    78    60    61    2
    79     7     9   am
    80     7     8    2
    81    48    49    2
    82    66    67    1
    83    76    77    1
    84    67    68    1
    85    67    69    1
    86   124   123    2
    87   123   122    1
    88   122   121    1
    89   119   120   ar
    90   119   117   ar
    91   121   113   am
    92   120   118   ar
    93   117   116   ar
    94   128   127    2
    95   113   112    1
    96   113   114    2
    97   116   118   ar
    98   116   115    1
    99   112   115    1
   100   112   111    1
   101   127   126    1
   102    90    91    1
   103   106   105    2
   104    94    91    1
   105    91    92    1
   106   111   105   am
   107   129   126    1
   108   126   125    1
   109   105   104    1
   110    92    93    2
   111   104   103    1
   112   104   107    1
   113   103    97   am
   114   107   108    1
   115    98    97    2
   116   109   108   ar
   117    97    96    1
   118   108   110   ar
   119    99    96    1
   120    99   100    1
   121   102   101    1
   122    96    95    1
   123   100   101    1
