@<TRIPOS>MOLECULE
tmp/3k28D01.pdb
 101 96 0 0 0
SMALL
GASTEIGER

@<TRIPOS>ATOM
      1  N          9.7050  -13.7500   32.3030 N.3   112  SER112     -0.1202
      2  CA         8.3510  -13.2940   32.6450 C.3   112  SER112      0.2020
      3  C          8.0160  -12.0300   31.8820 C.2   112  SER112      0.2619
      4  O          8.9140  -11.3940   31.3120 O.2   112  SER112     -0.2717
      5  CB         8.2690  -12.9900   34.1450 C.3   112  SER112      0.2103
      6  OG         9.0840  -11.8660   34.4320 O.3   112  SER112     -0.2182
      7  N          6.7370  -11.6570   31.9150 N.am  113  GLY113     -0.1942
      8  CA         6.2630  -10.3990   31.3400 C.3   113  GLY113      0.2014
      9  C          6.9060   -9.2030   32.0400 C.2   113  GLY113      0.2639
     10  O          7.2990   -8.2360   31.3860 O.2   113  GLY113     -0.2714
     11  N          7.0510   -9.2810   33.3750 N.am  114  THR114     -0.1950
     12  CA         7.6760   -8.2250   34.2260 C.3   114  THR114      0.1897
     13  C          9.0990   -7.9600   33.7630 C.2   114  THR114      0.2313
     14  O          9.4990   -6.7950   33.6640 O.2   114  THR114     -0.2863
     15  CB         7.6280   -8.5970   35.7170 C.3   114  THR114      0.1794
     16  OG1        6.2640   -8.5290   36.1570 O.3   114  THR114     -0.2208
     17  CG2        8.4880   -7.6280   36.6120 C.3   114  THR114      0.0378
     18  N         -1.7780   -2.7060   33.3730 N.3   139  TYR139     -0.1227
     19  CA        -0.7590   -3.4370   34.1070 C.3   139  TYR139      0.1736
     20  C          0.3220   -3.9370   33.1680 C.2   139  TYR139      0.2595
     21  O          0.0200   -4.4930   32.1090 O.2   139  TYR139     -0.2718
     22  CB        -1.4150   -4.5760   34.9000 C.3   139  TYR139      0.0548
     23  CG        -0.4440   -5.3830   35.7340 C.ar  139  TYR139     -0.0200
     24  CD1        0.1720   -4.8300   36.8540 C.ar  139  TYR139     -0.0009
     25  CD2       -0.1380   -6.7010   35.4020 C.ar  139  TYR139     -0.0009
     26  CE1        1.1070   -5.5490   37.5900 C.ar  139  TYR139      0.0417
     27  CE2        0.7540   -7.4470   36.1660 C.ar  139  TYR139      0.0417
     28  CZ         1.3570   -6.8740   37.2700 C.ar  139  TYR139      0.1957
     29  OH         2.2440   -7.6070   38.0130 O.3   139  TYR139     -0.2866
     30  N          1.5920   -3.6760   33.5300 N.am  140  HIS140     -0.1961
     31  CA         2.7400   -4.0510   32.7190 C.3   140  HIS140      0.1787
     32  C          3.7220   -4.9260   33.5040 C.2   140  HIS140      0.2621
     33  O          4.7800   -5.2780   32.9980 O.2   140  HIS140     -0.2715
     34  CB         3.4110   -2.7680   32.1720 C.3   140  HIS140      0.0785
     35  CG         2.4830   -1.9380   31.3280 C.ar  140  HIS140      0.0821
     36  ND1        1.9780   -2.4170   30.1270 N.ar  140  HIS140     -0.2267
     37  CD2        2.0020   -0.6900   31.5380 C.ar  140  HIS140      0.1154
     38  CE1        1.1900   -1.4600   29.6610 C.ar  140  HIS140      0.1986
     39  NE2        1.2090   -0.3860   30.4540 N.ar  140  HIS140     -0.2212
     40  N          3.3290   -5.3470   34.6900 N.am  141  GLY141     -0.1940
     41  CA         4.2000   -6.1120   35.5750 C.3   141  GLY141      0.2014
     42  C          4.6400   -5.2150   36.7150 C.2   141  GLY141      0.2638
     43  O          4.2290   -4.0500   36.7670 O.2   141  GLY141     -0.2714
     44  N          5.4530   -5.7460   37.6460 N.am  142  HIS142     -0.1973
     45  CA         5.8240   -5.0070   38.8610 C.3   142  HIS142      0.1656
     46  C          7.1080   -4.1590   38.8840 C.2   142  HIS142      0.2291
     47  O          7.5070   -3.7470   39.9550 O.2   142  HIS142     -0.2864
     48  CB         5.6470   -5.8540   40.1350 C.3   142  HIS142      0.0771
     49  CG         6.5040   -7.0780   40.1690 C.ar  142  HIS142      0.0820
     50  ND1        7.7630   -7.0630   40.7450 N.ar  142  HIS142     -0.2267
     51  CD2        6.2480   -8.3180   39.6950 C.ar  142  HIS142      0.1154
     52  CE1        8.2400   -8.2910   40.5850 C.ar  142  HIS142      0.1986
     53  NE2        7.3600   -9.0760   39.9390 N.ar  142  HIS142     -0.2212
     54  N         -1.0130   -1.4430   26.0240 N.3   193  GLU193     -0.1245
     55  CA        -1.5800   -2.7520   25.6970 C.3   193  GLU193      0.1567
     56  C         -2.4670   -2.5070   24.4380 C.2   193  GLU193      0.2260
     57  O         -3.3960   -1.6870   24.5050 O.2   193  GLU193     -0.2867
     58  CB        -2.4680   -3.2580   26.8340 C.3   193  GLU193      0.0388
     59  CG        -1.7570   -3.7290   28.0890 C.3   193  GLU193      0.1160
     60  CD        -2.7680   -3.8870   29.2130 C.2   193  GLU193      0.3649
     61  OE1       -3.3830   -4.9680   29.3220 O.co2 193  GLU193     -0.2457
     62  OE2       -3.0320   -2.8870   29.9130 O.co2 193  GLU193     -0.2457
     63  N         -6.3040   -5.8500   31.7010 N.3   198  ASN198     -0.1240
     64  CA        -6.1910   -5.8440   33.1560 C.3   198  ASN198      0.1653
     65  C         -7.1750   -4.9090   33.8680 C.2   198  ASN198      0.2266
     66  O         -7.1220   -4.7810   35.0800 O.2   198  ASN198     -0.2867
     67  CB        -4.7230   -5.6220   33.5910 C.3   198  ASN198      0.1155
     68  CG        -3.7600   -6.6740   33.0560 C.2   198  ASN198      0.2627
     69  OD1       -3.0560   -6.4710   32.0630 O.2   198  ASN198     -0.2716
     70  ND2       -3.7240   -7.8290   33.6800 N.am  198  ASN198     -0.0877
     71  N          2.8630   -3.4860   24.7940 N.3   225  ASP225     -0.1239
     72  CA         2.9570   -4.5720   25.7670 C.3   225  ASP225      0.1674
     73  C          1.9530   -5.6340   25.2610 C.2   225  ASP225      0.2266
     74  O          0.7510   -5.5170   25.4870 O.2   225  ASP225     -0.2867
     75  CB         2.5620   -4.1200   27.1800 C.3   225  ASP225      0.1410
     76  CG         2.6310   -5.2310   28.2190 C.2   225  ASP225      0.3668
     77  OD1        2.7580   -6.4110   27.8250 O.co2 225  ASP225     -0.2456
     78  OD2        2.4920   -4.9310   29.4160 O.co2 225  ASP225     -0.2456
     79  N          2.1170   -8.8740   26.2800 N.3   227  VAL227     -0.1245
     80  CA         2.2730  -10.0180   27.1920 C.3   227  VAL227      0.1561
     81  C          0.9670  -10.8470   27.2070 C.2   227  VAL227      0.2260
     82  O          1.0030  -12.0740   27.0910 O.2   227  VAL227     -0.2867
     83  CB         2.7700   -9.5930   28.6110 C.3   227  VAL227      0.0252
     84  CG1        2.5680  -10.7160   29.6270 C.3   227  VAL227      0.0019
     85  CG2        4.2430   -9.1840   28.5630 C.3   227  VAL227      0.0019
     86  N         -1.9670   -9.9160   24.9690 N.3   228  THR228     -0.1218
     87  CA        -2.5320   -9.9670   23.6060 C.3   228  THR228      0.1862
     88  C         -1.7050  -10.8430   22.6450 C.2   228  THR228      0.2287
     89  O         -2.2490  -11.3240   21.6510 O.2   228  THR228     -0.2866
     90  CB        -2.7030   -8.5670   23.0170 C.3   228  THR228      0.1770
     91  OG1       -1.4350   -7.9210   23.0090 O.3   228  THR228     -0.2211
     92  CG2       -3.7320   -7.7020   23.7770 C.3   228  THR228      0.0375
     93  N          3.4300  -14.9270   28.7700 N.3   252  LYS252     -0.1245
     94  CA         2.2020  -15.6780   28.8450 C.3   252  LYS252      0.1561
     95  C          2.1970  -16.7980   27.7730 C.2   252  LYS252      0.2260
     96  O          2.8500  -17.7570   27.9160 O.2   252  LYS252     -0.2867
     97  CB         0.9580  -14.8010   28.9930 C.3   252  LYS252      0.0271
     98  CG         0.8740  -14.0480   30.3450 C.3   252  LYS252      0.0035
     99  CD        -0.4180  -13.2970   30.5370 C.3   252  LYS252      0.0206
    100  CE        -0.6040  -12.7620   31.9520 C.3   252  LYS252      0.1093
    101  NZ        -0.1670  -11.3950   32.2090 N.3   252  LYS252     -0.1314
@<TRIPOS>BOND
     1    89    88    2
     2    88    87    1
     3    91    90    1
     4    90    87    1
     5    90    92    1
     6    87    86    1
     7    56    57    2
     8    56    55    1
     9    71    72    1
    10    73    74    2
    11    73    72    1
    12    55    54    1
    13    55    58    1
    14    72    75    1
    15    79    80    1
    16    58    59    1
    17    82    81    2
    18    75    76    1
    19    80    81    1
    20    80    83    1
    21    95    96    2
    22    95    94    1
    23    77    76   ar
    24    59    60    1
    25    76    78   ar
    26    85    83    1
    27    83    84    1
    28    93    94    1
    29    94    97    1
    30    97    98    1
    31    60    61   ar
    32    60    62   ar
    33    38    36   ar
    34    38    39   ar
    35    36    35   ar
    36    98    99    1
    37    39    37   ar
    38    99   100    1
    39     4     3    2
    40    35    37   ar
    41    35    34    1
    42     8     7    1
    43     8     9    1
    44    10     9    2
    45    63    64    1
    46     3     7   am
    47     3     2    1
    48   100   101    1
    49     9    11   am
    50    69    68    2
    51    21    20    2
    52    34    31    1
    53     1     2    1
    54     2     5    1
    55    31    32    1
    56    31    30    1
    57    33    32    2
    58    68    67    1
    59    68    70   am
    60    64    67    1
    61    64    65    1
    62    20    30   am
    63    20    19    1
    64    18    19    1
    65    11    12    1
    66    32    40   am
    67    14    13    2
    68    13    12    1
    69    65    66    2
    70    19    22    1
    71     5     6    1
    72    12    15    1
    73    40    41    1
    74    22    23    1
    75    25    23   ar
    76    25    27   ar
    77    41    42    1
    78    15    16    1
    79    15    17    1
    80    23    24   ar
    81    27    28   ar
    82    42    43    2
    83    42    44   am
    84    24    26   ar
    85    28    26   ar
    86    28    29    1
    87    44    45    1
    88    45    46    1
    89    45    48    1
    90    46    47    2
    91    51    53   ar
    92    51    49   ar
    93    53    52   ar
    94    48    49    1
    95    49    50   ar
    96    52    50   ar
