@<TRIPOS>MOLECULE
tmp/3k2dA00.pdb
 144 139 0 0 0
SMALL
GASTEIGER

@<TRIPOS>ATOM
      1  N        -20.7800   19.9110   53.3390 N.3    17  GLU17      -0.1245
      2  CA       -19.7710   18.9070   53.0340 C.3    17  GLU17       0.1567
      3  C        -18.3650   19.2750   53.5050 C.2    17  GLU17       0.2260
      4  O        -17.5780   18.4000   53.8710 O.2    17  GLU17      -0.2867
      5  CB       -19.7990   18.5910   51.5380 C.3    17  GLU17       0.0388
      6  CG       -20.9330   17.6410   51.1910 C.3    17  GLU17       0.1160
      7  CD       -21.0720   17.3740   49.7030 C.2    17  GLU17       0.3649
      8  OE1      -20.0360   17.2050   49.0200 O.co2  17  GLU17      -0.2457
      9  OE2      -22.2220   17.3140   49.2240 O.co2  17  GLU17      -0.2457
     10  N        -19.3430   21.8150   40.4610 N.3    44  TYR44      -0.1241
     11  CA       -18.9580   20.4150   40.2690 C.3    44  TYR44       0.1605
     12  C        -17.8960   20.1500   39.1960 C.2    44  TYR44       0.2264
     13  O        -17.1250   19.2000   39.3260 O.2    44  TYR44      -0.2867
     14  CB       -20.1740   19.5360   39.9400 C.3    44  TYR44       0.0534
     15  CG       -21.1120   19.2490   41.0980 C.ar   44  TYR44      -0.0201
     16  CD1      -20.6560   19.2270   42.4240 C.ar   44  TYR44      -0.0009
     17  CD2      -22.4510   18.9430   40.8600 C.ar   44  TYR44      -0.0009
     18  CE1      -21.5190   18.9020   43.4760 C.ar   44  TYR44       0.0417
     19  CE2      -23.3120   18.6170   41.8930 C.ar   44  TYR44       0.0417
     20  CZ       -22.8480   18.5950   43.1950 C.ar   44  TYR44       0.1957
     21  OH       -23.7240   18.2390   44.1960 O.3    44  TYR44      -0.2866
     22  N        -16.2990   14.6440   46.4230 N.3    61  PHE61      -0.1227
     23  CA       -17.5350   15.3430   46.0770 C.3    61  PHE61       0.1736
     24  C        -18.4350   14.6370   45.0450 C.2    61  PHE61       0.2595
     25  O        -19.5780   15.0440   44.8440 O.2    61  PHE61      -0.2718
     26  CB       -17.1780   16.7150   45.5070 C.3    61  PHE61       0.0547
     27  CG       -16.6880   16.6500   44.0870 C.ar   61  PHE61      -0.0202
     28  CD1      -15.4800   16.0380   43.7840 C.ar   61  PHE61      -0.0042
     29  CD2      -17.4840   17.1080   43.0400 C.ar   61  PHE61      -0.0042
     30  CE1      -15.0710   15.8740   42.4600 C.ar   61  PHE61      -0.0003
     31  CE2      -17.0870   16.9510   41.7160 C.ar   61  PHE61      -0.0003
     32  CZ       -15.8750   16.3280   41.4230 C.ar   61  PHE61      -0.0000
     33  N        -17.9380   13.5920   44.3920 N.am   62  GLN62      -0.1965
     34  CA       -18.7250   12.9460   43.3440 C.3    62  GLN62       0.1733
     35  C        -19.0540   11.4830   43.5300 C.2    62  GLN62       0.2616
     36  O        -18.5420   10.8240   44.4320 O.2    62  GLN62      -0.2715
     37  CB       -17.9860   13.0730   42.0140 C.3    62  GLN62       0.0408
     38  CG       -16.7800   12.1430   41.9160 C.3    62  GLN62       0.0908
     39  CD       -15.7160   12.6570   40.9710 C.2    62  GLN62       0.2608
     40  OE1      -15.9550   12.8240   39.7710 O.2    62  GLN62      -0.2717
     41  NE2      -14.5280   12.9200   41.5100 N.am   62  GLN62      -0.0878
     42  N        -19.9270   10.9840   42.6550 N.am   63  HIS63      -0.1973
     43  CA       -20.2700    9.5650   42.6420 C.3    63  HIS63       0.1656
     44  C        -19.6640    8.9750   41.3570 C.2    63  HIS63       0.2291
     45  O        -19.2370    9.7130   40.4760 O.2    63  HIS63      -0.2864
     46  CB       -21.7900    9.3330   42.7340 C.3    63  HIS63       0.0771
     47  CG       -22.6280   10.2140   41.8550 C.ar   63  HIS63       0.0820
     48  ND1      -22.4920   10.2600   40.4820 N.ar   63  HIS63      -0.2267
     49  CD2      -23.6950   10.9990   42.1490 C.ar   63  HIS63       0.1154
     50  CE1      -23.4380   11.0300   39.9720 C.ar   63  HIS63       0.1986
     51  NE2      -24.1830   11.4900   40.9630 N.ar   63  HIS63      -0.2212
     52  N        -20.8110   10.1510   37.7260 N.3    66  TYR66      -0.1241
     53  CA       -20.3060   11.4780   37.4160 C.3    66  TYR66       0.1605
     54  C        -18.8290   11.5030   37.0330 C.2    66  TYR66       0.2264
     55  O        -18.4260   12.2160   36.1160 O.2    66  TYR66      -0.2867
     56  CB       -20.5380   12.4100   38.5960 C.3    66  TYR66       0.0534
     57  CG       -20.1690   13.8360   38.2850 C.ar   66  TYR66      -0.0201
     58  CD1      -18.8590   14.2830   38.4220 C.ar   66  TYR66      -0.0009
     59  CD2      -21.1310   14.7420   37.8400 C.ar   66  TYR66      -0.0009
     60  CE1      -18.5150   15.5920   38.1290 C.ar   66  TYR66       0.0417
     61  CE2      -20.7950   16.0500   37.5460 C.ar   66  TYR66       0.0417
     62  CZ       -19.4860   16.4690   37.6910 C.ar   66  TYR66       0.1957
     63  OH       -19.1470   17.7700   37.3860 O.3    66  TYR66      -0.2866
     64  N        -25.9860   10.2470   49.3910 N.3    87  TYR87      -0.1241
     65  CA       -26.8430   11.3740   49.7090 C.3    87  TYR87       0.1605
     66  C        -28.1020   11.2540   48.8510 C.2    87  TYR87       0.2264
     67  O        -28.2310   11.9040   47.8190 O.2    87  TYR87      -0.2867
     68  CB       -26.1140   12.6870   49.4260 C.3    87  TYR87       0.0534
     69  CG       -24.9280   12.9680   50.3370 C.ar   87  TYR87      -0.0201
     70  CD1      -25.1090   13.3770   51.6570 C.ar   87  TYR87      -0.0009
     71  CD2      -23.6190   12.8400   49.8630 C.ar   87  TYR87      -0.0009
     72  CE1      -24.0140   13.6570   52.4830 C.ar   87  TYR87       0.0417
     73  CE2      -22.5210   13.1130   50.6730 C.ar   87  TYR87       0.0417
     74  CZ       -22.7190   13.5220   51.9770 C.ar   87  TYR87       0.1957
     75  OH       -21.6180   13.8110   52.7590 O.3    87  TYR87      -0.2866
     76  N        -30.8160   11.8700   46.8320 N.3    89  ILE89      -0.1245
     77  CA       -31.3400   13.1290   46.3300 C.3    89  ILE89       0.1561
     78  C        -32.8460   13.2140   46.5240 C.2    89  ILE89       0.2260
     79  O        -33.5420   12.2000   46.5090 O.2    89  ILE89      -0.2867
     80  CB       -30.9760   13.3110   44.8290 C.3    89  ILE89       0.0252
     81  CG1      -31.0810   14.7860   44.4540 C.3    89  ILE89       0.0019
     82  CG2      -31.8870   12.4580   43.9430 C.3    89  ILE89       0.0019
     83  CD1      -29.9470   15.2560   43.5530 C.3    89  ILE89       0.0001
     84  N        -26.5330   13.4430   36.6270 N.3   116  ASN116     -0.1240
     85  CA       -27.5120   13.8610   37.6190 C.3   116  ASN116      0.1653
     86  C        -28.8490   14.1860   36.9550 C.2   116  ASN116      0.2266
     87  O        -29.8910   14.1820   37.6060 O.2   116  ASN116     -0.2867
     88  CB       -26.9720   15.0370   38.4390 C.3   116  ASN116      0.1155
     89  CG       -25.8670   14.6070   39.3980 C.2   116  ASN116      0.2627
     90  OD1      -26.1070   13.8520   40.3470 O.2   116  ASN116     -0.2716
     91  ND2      -24.6480   15.0670   39.1420 N.am  116  ASN116     -0.0877
     92  N        -30.3520   10.7860   36.6720 N.3   119  ARG119     -0.1245
     93  CA       -30.7310   10.3800   38.0110 C.3   119  ARG119      0.1563
     94  C        -32.0830   11.0040   38.3820 C.2   119  ARG119      0.2260
     95  O        -32.9680   10.3310   38.9320 O.2   119  ARG119     -0.2867
     96  CB       -29.6550   10.8450   38.9800 C.3   119  ARG119      0.0307
     97  CG       -29.8730   10.4790   40.4190 C.3   119  ARG119      0.0489
     98  CD       -28.7590   11.1080   41.2460 C.3   119  ARG119      0.2205
     99  NE       -28.8410   10.7790   42.6640 N.pl3 119  ARG119     -0.0865
    100  CZ       -28.0090   11.2530   43.5840 C.cat 119  ARG119      0.5346
    101  NH1      -27.0320   12.0740   43.2310 N.pl3 119  ARG119      0.1354
    102  NH2      -28.1630   10.9130   44.8560 N.pl3 119  ARG119      0.1354
    103  N        -29.4450   18.5450   44.6690 N.3   175  ASN175     -0.1225
    104  CA       -28.3980   17.7420   45.2990 C.3   175  ASN175      0.1785
    105  C        -28.3520   18.2340   46.7510 C.2   175  ASN175      0.2598
    106  O        -28.4760   19.4370   47.0000 O.2   175  ASN175     -0.2718
    107  CB       -27.0310   18.0110   44.6390 C.3   175  ASN175      0.1169
    108  CG       -26.9760   17.5830   43.1790 C.2   175  ASN175      0.2627
    109  OD1      -26.8070   16.4030   42.8670 O.2   175  ASN175     -0.2716
    110  ND2      -27.1210   18.5420   42.2770 N.am  175  ASN175     -0.0877
    111  N        -28.1760   17.3260   47.7060 N.am  176  THR176     -0.1939
    112  CA       -28.1260   17.7290   49.1130 C.3   176  THR176      0.2028
    113  C        -26.9770   18.7140   49.3460 C.2   176  THR176      0.2642
    114  O        -26.9950   19.5140   50.2750 O.2   176  THR176     -0.2714
    115  CB       -27.9650   16.4950   50.0400 C.3   176  THR176      0.1808
    116  OG1      -29.1140   15.6450   49.9150 O.3   176  THR176     -0.2208
    117  CG2      -27.8210   16.9260   51.4840 C.3   176  THR176      0.0379
    118  N        -25.9800   18.6460   48.4780 N.am  177  THR177     -0.1950
    119  CA       -24.8190   19.5210   48.5390 C.3   177  THR177      0.1897
    120  C        -25.2430   20.9740   48.5980 C.2   177  THR177      0.2313
    121  O        -24.5970   21.7910   49.2510 O.2   177  THR177     -0.2863
    122  CB       -23.9500   19.3800   47.2810 C.3   177  THR177      0.1794
    123  OG1      -23.5250   18.0230   47.1410 O.3   177  THR177     -0.2208
    124  CG2      -22.7430   20.3040   47.3650 C.3   177  THR177      0.0378
    125  N        -25.1830    5.9320   43.4880 N.3   200  TYR200     -0.1241
    126  CA       -24.6370    7.2610   43.7390 C.3   200  TYR200      0.1605
    127  C        -23.8340    7.5130   45.0140 C.2   200  TYR200      0.2264
    128  O        -23.7870    8.6440   45.4920 O.2   200  TYR200     -0.2867
    129  CB       -25.7720    8.2720   43.6400 C.3   200  TYR200      0.0534
    130  CG       -26.5290    8.1470   42.3490 C.ar  200  TYR200     -0.0201
    131  CD1      -25.9640    8.5610   41.1460 C.ar  200  TYR200     -0.0009
    132  CD2      -27.7980    7.5740   42.3200 C.ar  200  TYR200     -0.0009
    133  CE1      -26.6460    8.4070   39.9400 C.ar  200  TYR200      0.0417
    134  CE2      -28.4850    7.4150   41.1330 C.ar  200  TYR200      0.0417
    135  CZ       -27.9100    7.8340   39.9450 C.ar  200  TYR200      0.1957
    136  OH       -28.6160    7.7110   38.7690 O.3   200  TYR200     -0.2866
    137  N        -20.9470    8.6070   47.2240 N.3   202  ASN202     -0.1240
    138  CA       -19.8400    9.5130   46.9490 C.3   202  ASN202      0.1653
    139  C        -18.4780    8.8570   47.1470 C.2   202  ASN202      0.2266
    140  O        -18.3670    7.7720   47.7110 O.2   202  ASN202     -0.2867
    141  CB       -19.9580   10.7840   47.7790 C.3   202  ASN202      0.1155
    142  CG       -21.0560   11.6990   47.2750 C.2   202  ASN202      0.2627
    143  OD1      -21.1090   12.8740   47.6260 O.2   202  ASN202     -0.2716
    144  ND2      -21.9460   11.1560   46.4500 N.am  202  ASN202     -0.0877
@<TRIPOS>BOND
     1    55    54    2
     2    84    85    1
     3    92    93    1
     4    86    87    2
     5    86    85    1
     6    54    53    1
     7    63    62    1
     8    53    52    1
     9    53    56    1
    10    61    62   ar
    11    61    59   ar
    12    85    88    1
    13    62    60   ar
    14    59    57   ar
    15    93    94    1
    16    93    96    1
    17    60    58   ar
    18    57    58   ar
    19    57    56    1
    20    94    95    2
    21    88    89    1
    22   136   135    1
    23    96    97    1
    24    91    89   am
    25    12    13    2
    26    12    11    1
    27    89    90    2
    28    40    39    2
    29   133   135   ar
    30   133   131   ar
    31    14    11    1
    32    14    15    1
    33   135   134   ar
    34    50    48   ar
    35    50    51   ar
    36    11    10    1
    37    97    98    1
    38    45    44    2
    39    48    47   ar
    40    17    15   ar
    41    17    19   ar
    42    51    49   ar
    43    39    41   am
    44    39    38    1
    45    15    16   ar
    46   134   132   ar
    47   131   130   ar
    48    98    99    1
    49    44    43    1
    50    32    31   ar
    51    32    30   ar
    52    31    29   ar
    53    47    49   ar
    54    47    46    1
    55    19    20   ar
    56    38    37    1
    57    37    34    1
    58   110   108   am
    59   132   130   ar
    60   130   129    1
    61    16    18   ar
    62    30    28   ar
    63    43    42    1
    64    43    46    1
    65    42    35   am
    66    99   100    2
    67   109   108    2
    68    29    27   ar
    69   108   107    1
    70    20    18   ar
    71    20    21    1
    72   101   100    1
    73    34    35    1
    74    34    33    1
    75   125   126    1
    76    35    36    2
    77    83    81    1
    78   100   102    1
    79   129   126    1
    80   126   127    1
    81    28    27   ar
    82    82    80    1
    83    27    26    1
    84    33    24   am
    85    81    80    1
    86   107   104    1
    87   103   104    1
    88    80    77    1
    89    25    24    2
    90   127   128    2
    91    24    23    1
    92   104   105    1
    93    26    23    1
    94    23    22    1
    95    77    78    1
    96    77    76    1
    97   144   142   am
    98    79    78    2
    99   105   106    2
   100   105   111   am
   101   138   139    1
   102   138   137    1
   103   138   141    1
   104   123   122    1
   105   139   140    2
   106   142   143    2
   107   142   141    1
   108   122   124    1
   109   122   119    1
   110   111   112    1
   111    67    66    2
   112   118   119    1
   113   118   113   am
   114   119   120    1
   115   120   121    2
   116    66    65    1
   117     8     7   ar
   118   112   113    1
   119   112   115    1
   120     9     7   ar
   121   113   114    2
   122    64    65    1
   123    68    65    1
   124    68    69    1
   125     7     6    1
   126    71    69   ar
   127    71    73   ar
   128   116   115    1
   129   115   117    1
   130    69    70   ar
   131    73    74   ar
   132     6     5    1
   133     5     2    1
   134    70    72   ar
   135    74    72   ar
   136    74    75    1
   137     2     1    1
   138     2     3    1
   139     3     4    2
