@<TRIPOS>MOLECULE
tmp/3k2fA00.pdb
 226 219 0 0 0
SMALL
GASTEIGER

@<TRIPOS>ATOM
      1  N         10.7960   -0.5470    7.5260 N.3     1  HIS1       -0.1226
      2  CA         9.8450    0.0570    8.4940 C.3     1  HIS1        0.1752
      3  C          8.9920   -1.0080    9.1880 C.2     1  HIS1        0.2596
      4  O          9.0690   -2.1990    8.8490 O.2     1  HIS1       -0.2718
      5  CB         8.9840    1.1340    7.8250 C.3     1  HIS1        0.0759
      6  CG         9.0040    2.4450    8.5570 C.ar    1  HIS1        0.0818
      7  ND1        8.4930    2.5960    9.8300 N.ar    1  HIS1       -0.2268
      8  CD2        9.5120    3.6540    8.2100 C.ar    1  HIS1        0.1154
      9  CE1        8.6630    3.8440   10.2250 C.ar    1  HIS1        0.1986
     10  NE2        9.2810    4.5080    9.2630 N.ar    1  HIS1       -0.2212
     11  N          8.1970   -0.5840   10.1720 N.am    2  TRP2       -0.1976
     12  CA         7.4990   -1.5120   11.0620 C.3     2  TRP2        0.1640
     13  C          6.5440   -2.4190   10.2950 C.2     2  TRP2        0.2290
     14  O          6.0480   -2.0710    9.2240 O.2     2  TRP2       -0.2864
     15  CB         6.7940   -0.7610   12.2220 C.3     2  TRP2        0.0576
     16  CG         5.5350   -0.0330   11.8280 C.ar    2  TRP2        0.0006
     17  CD1        5.4280    1.2640   11.3650 C.ar    2  TRP2        0.0946
     18  CD2        4.2000   -0.5500   11.8690 C.ar    2  TRP2        0.0152
     19  NE1        4.1080    1.5620   11.1110 N.ar    2  TRP2       -0.2442
     20  CE2        3.3380    0.4680   11.4080 C.ar    2  TRP2        0.0810
     21  CE3        3.6480   -1.7830   12.2400 C.ar    2  TRP2        0.0012
     22  CZ2        1.9600    0.2920   11.3210 C.ar    2  TRP2        0.0191
     23  CZ3        2.2820   -1.9550   12.1360 C.ar    2  TRP2        0.0001
     24  CH2        1.4550   -0.9310   11.6870 C.ar    2  TRP2        0.0015
     25  N         -8.8720    2.0140    1.9130 N.3    57  LEU57      -0.1245
     26  CA        -7.4380    2.1330    1.6510 C.3    57  LEU57       0.1561
     27  C         -6.6290    0.9790    2.2470 C.2    57  LEU57       0.2260
     28  O         -6.7530    0.6760    3.4380 O.2    57  LEU57      -0.2867
     29  CB        -6.8950    3.4730    2.2010 C.3    57  LEU57       0.0270
     30  CG        -5.3630    3.6630    2.2530 C.3    57  LEU57       0.0019
     31  CD1       -4.7470    3.8720    0.8820 C.3    57  LEU57       0.0001
     32  CD2       -4.9480    4.7790    3.1820 C.3    57  LEU57       0.0001
     33  N         -3.0990    0.3130    3.4450 N.3    59  ASN59      -0.1240
     34  CA        -1.9470    1.1120    3.8640 C.3    59  ASN59       0.1653
     35  C         -0.7250    0.2500    4.1560 C.2    59  ASN59       0.2266
     36  O          0.2090    0.6980    4.8160 O.2    59  ASN59      -0.2867
     37  CB        -2.2990    2.0290    5.0490 C.3    59  ASN59       0.1155
     38  CG        -2.4920    1.2700    6.3750 C.2    59  ASN59       0.2627
     39  OD1       -2.4160    0.0430    6.4500 O.2    59  ASN59      -0.2716
     40  ND2       -2.7460    2.0180    7.4220 N.am   59  ASN59      -0.0877
     41  N         -0.5750   -2.2810    6.0650 N.3    61  HIS61      -0.1226
     42  CA        -0.7290   -2.8780    7.4150 C.3    61  HIS61       0.1752
     43  C         -2.1040   -3.5160    7.6050 C.2    61  HIS61       0.2595
     44  O         -2.2220   -4.6360    8.1090 O.2    61  HIS61      -0.2718
     45  CB        -0.5070   -1.8070    8.4830 C.3    61  HIS61       0.0759
     46  CG         0.7710   -1.0590    8.3040 C.ar   61  HIS61       0.0818
     47  ND1        2.0060   -1.6500    8.4800 N.ar   61  HIS61      -0.2268
     48  CD2        1.0130    0.2130    7.9160 C.ar   61  HIS61       0.1154
     49  CE1        2.9530   -0.7630    8.2230 C.ar   61  HIS61       0.1986
     50  NE2        2.3770    0.3740    7.8790 N.ar   61  HIS61      -0.2212
     51  N         -3.1400   -2.7750    7.2150 N.am   62  ALA62      -0.1980
     52  CA        -4.5160   -3.2630    7.1770 C.3    62  ALA62       0.1597
     53  C         -5.2430   -2.5610    6.0330 C.2    62  ALA62       0.2287
     54  O         -4.6140   -1.8990    5.2120 O.2    62  ALA62      -0.2864
     55  CB        -5.2220   -2.9770    8.5170 C.3    62  ALA62       0.0319
     56  N         -8.2800    0.3620    5.6750 N.3    64  ASN64      -0.1240
     57  CA        -9.0020    1.3880    6.3890 C.3    64  ASN64       0.1653
     58  C        -10.1920    1.8570    5.5780 C.2    64  ASN64       0.2266
     59  O        -10.0310    2.2750    4.4220 O.2    64  ASN64      -0.2867
     60  CB        -8.1000    2.5980    6.6100 C.3    64  ASN64       0.1155
     61  CG        -6.8470    2.2720    7.3920 C.2    64  ASN64       0.2627
     62  OD1       -5.7860    2.8810    7.1630 O.2    64  ASN64      -0.2716
     63  ND2       -6.9440    1.3260    8.3140 N.am   64  ASN64      -0.0877
     64  N        -12.4090    4.9710    5.5940 N.3    66  GLU66      -0.1245
     65  CA       -12.3450    6.3430    6.0790 C.3    66  GLU66       0.1567
     66  C        -13.6480    7.1010    5.8400 C.2    66  GLU66       0.2260
     67  O        -14.3220    6.8790    4.8430 O.2    66  GLU66      -0.2867
     68  CB       -11.1480    7.0240    5.4340 C.3    66  GLU66       0.0388
     69  CG        -9.9190    6.1750    5.6580 C.3    66  GLU66       0.1160
     70  CD        -8.6200    6.8200    5.2770 C.2    66  GLU66       0.3649
     71  OE1       -8.5990    7.5880    4.2890 O.co2  66  GLU66      -0.2457
     72  OE2       -7.6080    6.5090    5.9620 O.co2  66  GLU66      -0.2457
     73  N        -13.8710    8.4530   12.7320 N.3    88  ILE88      -0.1231
     74  CA       -13.0280    8.8610   11.6120 C.3    88  ILE88       0.1692
     75  C        -12.7210    7.7020   10.6480 C.2    88  ILE88       0.2591
     76  O        -12.6970    7.9030    9.4380 O.2    88  ILE88      -0.2718
     77  CB       -11.7420    9.6120   12.0730 C.3    88  ILE88       0.0266
     78  CG1      -10.9080   10.0490   10.8510 C.3    88  ILE88       0.0019
     79  CG2      -10.9200    8.7790   13.0750 C.3    88  ILE88       0.0020
     80  CD1       -9.8160   11.0250   11.1790 C.3    88  ILE88       0.0001
     81  N        -12.5340    6.4950   11.1790 N.am   89  GLN89      -0.1979
     82  CA       -12.2440    5.3220   10.3370 C.3    89  GLN89       0.1601
     83  C        -12.4560    4.0280   11.0960 C.2    89  GLN89       0.2287
     84  O        -12.6140    4.0550   12.2980 O.2    89  GLN89      -0.2864
     85  CB       -10.8120    5.3660    9.7560 C.3    89  GLN89       0.0394
     86  CG        -9.6910    5.2700   10.7990 C.3    89  GLN89       0.0908
     87  CD        -9.0890    3.8740   10.8480 C.2    89  GLN89       0.2608
     88  OE1       -9.6360    2.9740   11.4600 O.2    89  GLN89      -0.2717
     89  NE2       -7.9670    3.6990   10.1960 N.am   89  GLN89      -0.0878
     90  N        -11.0390   -0.4110   10.7950 N.3    91  HIS91      -0.1241
     91  CA       -10.1460   -1.3840   10.1900 C.3    91  HIS91       0.1621
     92  C        -10.2120   -2.6610   11.0000 C.2    91  HIS91       0.2264
     93  O        -10.8600   -2.7040   12.0480 O.2    91  HIS91      -0.2867
     94  CB        -8.7180   -0.8630   10.1760 C.3    91  HIS91       0.0745
     95  CG        -8.1870   -0.5760   11.5390 C.ar   91  HIS91       0.0817
     96  ND1       -8.2960    0.6630   12.1320 N.ar   91  HIS91      -0.2268
     97  CD2       -7.5880   -1.3810   12.4450 C.ar   91  HIS91       0.1154
     98  CE1       -7.7730    0.6100   13.3440 C.ar   91  HIS91       0.1986
     99  NE2       -7.3360   -0.6190   13.5560 N.ar   91  HIS91      -0.2212
    100  N         -7.8560   -6.4490   12.2400 N.3    93  HIS93      -0.1241
    101  CA        -6.6370   -7.2440   12.3020 C.3    93  HIS93       0.1621
    102  C         -7.1220   -8.6820   12.2830 C.2    93  HIS93       0.2264
    103  O         -8.1710   -8.9650   12.8520 O.2    93  HIS93      -0.2867
    104  CB        -5.8640   -6.9800   13.5980 C.3    93  HIS93       0.0745
    105  CG        -5.6750   -5.5300   13.9140 C.ar   93  HIS93       0.0817
    106  ND1       -4.5040   -4.8580   13.6440 N.ar   93  HIS93      -0.2268
    107  CD2       -6.5170   -4.6190   14.4600 C.ar   93  HIS93       0.1154
    108  CE1       -4.6310   -3.5980   14.0270 C.ar   93  HIS93       0.1986
    109  NE2       -5.8410   -3.4280   14.5340 N.ar   93  HIS93      -0.2212
    110  N        -11.7990   -2.5920   14.6480 N.3   116  HIS116     -0.1241
    111  CA       -11.6110   -1.3470   15.4040 C.3   116  HIS116      0.1621
    112  C        -12.2690   -0.1760   14.7070 C.2   116  HIS116      0.2264
    113  O        -11.9230    0.1500   13.5550 O.2   116  HIS116     -0.2867
    114  CB       -10.1090   -1.0650   15.6050 C.3   116  HIS116      0.0745
    115  CG        -9.4170   -2.1060   16.4360 C.ar  116  HIS116      0.0817
    116  ND1       -8.0580   -2.3380   16.3780 N.ar  116  HIS116     -0.2268
    117  CD2       -9.9000   -2.9660   17.3630 C.ar  116  HIS116      0.1154
    118  CE1       -7.7420   -3.3150   17.2120 C.ar  116  HIS116      0.1986
    119  NE2       -8.8390   -3.7110   17.8230 N.ar  116  HIS116     -0.2212
    120  N        -12.8050    3.7870   15.0010 N.3   118  VAL118     -0.1245
    121  CA       -11.9220    4.7570   15.6570 C.3   118  VAL118      0.1561
    122  C        -12.5800    6.1230   15.7430 C.2   118  VAL118      0.2260
    123  O        -13.0270    6.6790   14.7290 O.2   118  VAL118     -0.2867
    124  CB       -10.5400    4.8640   14.9600 C.3   118  VAL118      0.0252
    125  CG1       -9.6080    5.8620   15.7220 C.3   118  VAL118      0.0019
    126  CG2       -9.8780    3.4970   14.8060 C.3   118  VAL118      0.0019
    127  N         -8.6190   15.7340   14.5110 N.3   127  PHE127     -0.1241
    128  CA        -8.0130   14.4530   14.8270 C.3   127  PHE127      0.1605
    129  C         -6.5400   14.6210   15.2270 C.2   127  PHE127      0.2264
    130  O         -6.1020   14.0400   16.2150 O.2   127  PHE127     -0.2867
    131  CB        -8.1800   13.4850   13.6550 C.3   127  PHE127      0.0534
    132  CG        -7.3190   12.2610   13.7530 C.ar  127  PHE127     -0.0203
    133  CD1       -6.0860   12.2200   13.1220 C.ar  127  PHE127     -0.0042
    134  CD2       -7.7400   11.1550   14.4750 C.ar  127  PHE127     -0.0042
    135  CE1       -5.2770   11.1040   13.2190 C.ar  127  PHE127     -0.0003
    136  CE2       -6.9380   10.0220   14.5690 C.ar  127  PHE127     -0.0003
    137  CZ        -5.7130    9.9960   13.9490 C.ar  127  PHE127     -0.0000
    138  N         -5.0130   13.2200   19.1780 N.3   131  VAL131     -0.1245
    139  CA        -4.0570   12.1120   19.3460 C.3   131  VAL131      0.1561
    140  C         -2.8550   12.5190   20.1890 C.2   131  VAL131      0.2260
    141  O         -2.0880   11.6750   20.6010 O.2   131  VAL131     -0.2867
    142  CB        -3.5810   11.5020   17.9970 C.3   131  VAL131      0.0252
    143  CG1       -4.7550   11.2580   17.1060 C.3   131  VAL131      0.0019
    144  CG2       -2.5430   12.3860   17.3000 C.3   131  VAL131      0.0019
    145  N         -8.7810    9.8090   21.9750 N.3   137  LEU137     -0.1245
    146  CA        -9.4630    8.8380   21.1130 C.3   137  LEU137      0.1561
    147  C        -10.2460    7.8350   21.9070 C.2   137  LEU137      0.2260
    148  O         -9.8720    7.5210   23.0240 O.2   137  LEU137     -0.2867
    149  CB        -8.4680    8.0360   20.2500 C.3   137  LEU137      0.0270
    150  CG        -7.4770    8.6270   19.2360 C.3   137  LEU137      0.0019
    151  CD1       -6.8120    7.4390   18.5360 C.3   137  LEU137      0.0001
    152  CD2       -8.1420    9.5480   18.2130 C.3   137  LEU137      0.0001
    153  N        -11.6370    3.8470   20.9580 N.3   139  VAL139     -0.1245
    154  CA       -11.7330    2.8100   19.9190 C.3   139  VAL139      0.1561
    155  C        -12.7210    1.7710   20.3910 C.2   139  VAL139      0.2260
    156  O        -12.6130    1.2820   21.5160 O.2   139  VAL139     -0.2867
    157  CB       -10.3520    2.1900   19.4990 C.3   139  VAL139      0.0252
    158  CG1      -10.5250    1.1900   18.3620 C.3   139  VAL139      0.0019
    159  CG2       -9.3790    3.2870   19.0680 C.3   139  VAL139      0.0019
    160  N         -0.3520   -2.4330   -1.1160 N.3   166  LYS166     -0.1245
    161  CA        -0.0530   -1.2070   -0.3600 C.3   166  LYS166      0.1561
    162  C         -0.2080    0.0450   -1.2170 C.2   166  LYS166      0.2260
    163  O          0.3180    0.1090   -2.3260 O.2   166  LYS166     -0.2867
    164  CB         1.3700   -1.2880    0.2310 C.3   166  LYS166      0.0271
    165  CG         1.8210   -0.0690    1.0660 C.3   166  LYS166      0.0035
    166  CD         3.2810   -0.2150    1.5140 C.3   166  LYS166      0.0206
    167  CE         3.6870    0.8880    2.4910 C.3   166  LYS166      0.1093
    168  NZ         2.8090    0.9840    3.7320 N.3   166  LYS166     -0.1314
    169  N         -2.9920    3.2930   21.0090 N.3   194  LEU194     -0.1231
    170  CA        -2.8730    2.7490   19.6610 C.3   194  LEU194      0.1693
    171  C         -2.1450    1.3680   19.6970 C.2   194  LEU194      0.2593
    172  O         -1.1570    1.2200   20.4070 O.2   194  LEU194     -0.2718
    173  CB        -2.1190    3.7520   18.7670 C.3   194  LEU194      0.0284
    174  CG        -2.8000    5.1130   18.5290 C.3   194  LEU194      0.0019
    175  CD1       -1.9480    6.0290   17.6690 C.3   194  LEU194      0.0001
    176  CD2       -4.1730    4.9380   17.9010 C.3   194  LEU194      0.0001
    177  N         -2.6320    0.3730   18.9480 N.am  195  THR195     -0.1939
    178  CA        -1.9670   -0.9420   18.8980 C.3   195  THR195      0.2028
    179  C         -0.9340   -1.0770   17.7640 C.2   195  THR195      0.2643
    180  O         -0.2530   -2.1210   17.6650 O.2   195  THR195     -0.2714
    181  CB        -2.9490   -2.0980   18.6830 C.3   195  THR195      0.1808
    182  OG1       -3.6100   -1.8810   17.4320 O.3   195  THR195     -0.2208
    183  CG2       -3.9550   -2.2330   19.8280 C.3   195  THR195      0.0379
    184  N         -0.8610   -0.0630   16.9030 N.am  196  THR196     -0.1937
    185  CA         0.1750    0.0660   15.8800 C.3   196  THR196      0.2013
    186  C          1.0600    1.2650   16.2300 C.2   196  THR196      0.2484
    187  O          0.5980    2.2100   16.8880 O.2   196  THR196     -0.2729
    188  CB        -0.4240    0.3710   14.4780 C.3   196  THR196      0.1807
    189  OG1       -1.0050    1.6780   14.5020 O.3   196  THR196     -0.2208
    190  CG2       -1.4860   -0.6790   14.0330 C.3   196  THR196      0.0379
    191  N          2.3390    1.2460   15.8100 N.am  197  PRO197     -0.2715
    192  CA         3.0820    2.5030   15.9080 C.3   197  PRO197      0.1521
    193  C          2.2670    3.6870   15.4060 C.2   197  PRO197      0.2440
    194  O          1.5530    3.5480   14.4040 O.2   197  PRO197     -0.2731
    195  CB         4.2490    2.2560   14.9750 C.3   197  PRO197      0.0310
    196  CG         4.5590    0.8210   15.1900 C.3   197  PRO197      0.0237
    197  CD         3.1840    0.1570   15.2970 C.3   197  PRO197      0.0939
    198  N          2.3860    4.8630   16.0580 N.am  198  PRO198     -0.2727
    199  CA         3.2930    5.2660   17.1270 C.3   198  PRO198      0.1402
    200  C          2.8720    4.8460   18.5430 C.2   198  PRO198      0.2269
    201  O          3.4530    5.3250   19.5030 O.2   198  PRO198     -0.2865
    202  CB         3.2970    6.8100   17.0230 C.3   198  PRO198      0.0296
    203  CG         2.4130    7.1560   15.8540 C.3   198  PRO198      0.0237
    204  CD         1.5080    5.9830   15.6820 C.3   198  PRO198      0.0939
    205  N          0.8200    5.5260   20.5820 N.3   200  LEU200     -0.1245
    206  CA         0.4730    6.6410   21.4550 C.3   200  LEU200      0.1561
    207  C         -0.5890    6.2600   22.4750 C.2   200  LEU200      0.2260
    208  O         -1.5670    5.5780   22.1610 O.2   200  LEU200     -0.2867
    209  CB         0.0010    7.8440   20.6170 C.3   200  LEU200      0.0270
    210  CG         1.0180    8.5330   19.7010 C.3   200  LEU200      0.0019
    211  CD1        0.3240    9.2410   18.5300 C.3   200  LEU200      0.0001
    212  CD2        1.9210    9.5120   20.4800 C.3   200  LEU200      0.0001
    213  N        -10.3360    2.3530   25.5860 N.3   205  TRP205     -0.1241
    214  CA       -10.7480    1.1460   24.8690 C.3   205  TRP205      0.1605
    215  C        -12.1030    0.7120   25.3120 C.2   205  TRP205      0.2264
    216  O        -12.3930    0.7010   26.5040 O.2   205  TRP205     -0.2867
    217  CB        -9.7350    0.0090   25.0140 C.3   205  TRP205      0.0550
    218  CG        -8.7060    0.1330   24.0280 C.ar  205  TRP205      0.0003
    219  CD1       -7.4790    0.7210   24.1860 C.ar  205  TRP205      0.0946
    220  CD2       -8.7950   -0.2720   22.6640 C.ar  205  TRP205      0.0152
    221  NE1       -6.7990    0.6950   22.9990 N.ar  205  TRP205     -0.2442
    222  CE2       -7.5760    0.0850   22.0490 C.ar  205  TRP205      0.0810
    223  CE3       -9.7910   -0.9100   21.9000 C.ar  205  TRP205      0.0012
    224  CZ2       -7.3190   -0.1760   20.7250 C.ar  205  TRP205      0.0191
    225  CZ3       -9.5380   -1.1710   20.5920 C.ar  205  TRP205      0.0001
    226  CH2       -8.3040   -0.8030   20.0060 C.ar  205  TRP205      0.0015
@<TRIPOS>BOND
     1   163   162    2
     2   162   161    1
     3   160   161    1
     4   161   164    1
     5   164   165    1
     6    31    30    1
     7   165   166    1
     8   166   167    1
     9    26    25    1
    10    26    29    1
    11    26    27    1
    12    29    30    1
    13    27    28    2
    14    30    32    1
    15   167   168    1
    16    33    34    1
    17    34    35    1
    18    34    37    1
    19    35    36    2
    20    71    70   ar
    21    59    58    2
    22    67    66    2
    23    37    38    1
    24    54    53    2
    25    70    69    1
    26    70    72   ar
    27    68    69    1
    28    68    65    1
    29    58    57    1
    30    64    65    1
    31    56    57    1
    32    66    65    1
    33    53    52    1
    34    41    42    1
    35    38    39    2
    36    38    40   am
    37    57    60    1
    38    60    61    1
    39    62    61    2
    40    52    51    1
    41    52    55    1
    42    51    43   am
    43    61    63   am
    44    42    43    1
    45    42    45    1
    46     1     2    1
    47    43    44    2
    48     5     2    1
    49     5     6    1
    50    50    48   ar
    51    50    49   ar
    52    48    46   ar
    53     8     6   ar
    54     8    10   ar
    55    49    47   ar
    56    46    47   ar
    57    46    45    1
    58     2     3    1
    59     6     7   ar
    60     4     3    2
    61     3    11   am
    62    14    13    2
    63    10     9   ar
    64    76    75    2
    65    85    82    1
    66    85    86    1
    67     7     9   ar
    68    11    12    1
    69    94    91    1
    70    94    95    1
    71    91    90    1
    72    91    92    1
    73    89    87   am
    74    13    12    1
    75    82    83    1
    76    82    81    1
    77    75    81   am
    78    75    74    1
    79    86    87    1
    80    87    88    2
    81    78    80    1
    82    78    77    1
    83    92    93    2
    84    12    15    1
    85    83    84    2
    86    19    17   ar
    87    19    20   ar
    88    22    20   ar
    89    22    24   ar
    90    17    16   ar
    91    20    18   ar
    92    95    96   ar
    93    95    97   ar
    94    74    77    1
    95    74    73    1
    96    24    23   ar
    97    16    18   ar
    98    16    15    1
    99    18    21   ar
   100    77    79    1
   101    96    98   ar
   102    23    21   ar
   103   100   101    1
   104   102   101    1
   105   102   103    2
   106   101   104    1
   107    97    99   ar
   108   133   135   ar
   109   133   132   ar
   110   135   137   ar
   111    98    99   ar
   112   113   112    2
   113   104   105    1
   114   106   105   ar
   115   106   108   ar
   116   131   132    1
   117   131   128    1
   118   132   134   ar
   119   105   107   ar
   120   137   136   ar
   121   108   109   ar
   122   190   188    1
   123   194   193    2
   124   107   109   ar
   125   134   136   ar
   126   188   189    1
   127   188   185    1
   128   127   128    1
   129   110   111    1
   130   112   111    1
   131   123   122    2
   132   126   124    1
   133   128   129    1
   134   124   121    1
   135   124   125    1
   136   195   196    1
   137   195   192    1
   138   120   121    1
   139   196   197    1
   140   129   130    2
   141   197   191    1
   142   111   114    1
   143   193   192    1
   144   193   198   am
   145   114   115    1
   146   121   122    1
   147   204   203    1
   148   204   198    1
   149   191   192    1
   150   191   186   am
   151   203   202    1
   152   185   186    1
   153   185   184    1
   154   198   199    1
   155   186   187    2
   156   116   115   ar
   157   116   118   ar
   158   115   117   ar
   159   184   179   am
   160   202   199    1
   161   143   142    1
   162   199   200    1
   163   118   119   ar
   164   144   142    1
   165   117   119   ar
   166   182   181    1
   167   180   179    2
   168   175   174    1
   169   179   178    1
   170   176   174    1
   171   142   139    1
   172   152   150    1
   173   158   157    1
   174   174   173    1
   175   211   210    1
   176   151   150    1
   177   200   201    2
   178   181   178    1
   179   181   183    1
   180   173   170    1
   181   178   177    1
   182   177   171   am
   183   159   157    1
   184   138   139    1
   185   150   149    1
   186   139   140    1
   187   157   154    1
   188   170   171    1
   189   170   169    1
   190   171   172    2
   191   210   212    1
   192   210   209    1
   193   154   155    1
   194   154   153    1
   195   226   225   ar
   196   226   224   ar
   197   140   141    2
   198   149   146    1
   199   155   156    2
   200   205   206    1
   201   225   223   ar
   202   209   206    1
   203   224   222   ar
   204   146   147    1
   205   146   145    1
   206   206   207    1
   207   223   220   ar
   208   147   148    2
   209   222   220   ar
   210   222   221   ar
   211   208   207    2
   212   220   218   ar
   213   221   219   ar
   214   218   219   ar
   215   218   217    1
   216   214   217    1
   217   214   215    1
   218   214   213    1
   219   215   216    2
