@<TRIPOS>MOLECULE
tmp/3k2gB00.pdb
 123 120 0 0 0
SMALL
GASTEIGER

@<TRIPOS>ATOM
      1  N         26.9520   30.6320   68.0360 N.3    33  HIS33      -0.1241
      2  CA        26.3670   31.7800   68.7090 C.3    33  HIS33       0.1621
      3  C         24.8690   31.5370   68.6640 C.2    33  HIS33       0.2264
      4  O         24.3090   31.3030   67.5900 O.2    33  HIS33      -0.2867
      5  CB        26.7280   33.0700   67.9820 C.3    33  HIS33       0.0745
      6  CG        28.1940   33.3530   67.9720 C.ar   33  HIS33       0.0817
      7  ND1       28.8510   33.9070   69.0480 N.ar   33  HIS33      -0.2268
      8  CD2       29.1420   33.0970   67.0400 C.ar   33  HIS33       0.1154
      9  CE1       30.1420   33.9780   68.7820 C.ar   33  HIS33       0.1986
     10  NE2       30.3440   33.4920   67.5710 N.ar   33  HIS33      -0.2212
     11  N         23.2850   37.0540   69.4980 N.3    36  ASN36      -0.1225
     12  CA        24.4250   37.9630   69.4480 C.3    36  ASN36       0.1785
     13  C         24.0630   39.2770   68.7770 C.2    36  ASN36       0.2597
     14  O         22.9340   39.4700   68.3310 O.2    36  ASN36      -0.2718
     15  CB        25.6060   37.3190   68.7080 C.3    36  ASN36       0.1169
     16  CG        25.3750   37.2160   67.2100 C.2    36  ASN36       0.2627
     17  OD1       24.2960   37.5420   66.7110 O.2    36  ASN36      -0.2716
     18  ND2       26.3890   36.7520   66.4860 N.am   36  ASN36      -0.0877
     19  N         25.0390   40.1740   68.7030 N.am   37  ASP37      -0.1960
     20  CA        24.8460   41.4790   68.0850 C.3    37  ASP37       0.1840
     21  C         26.0980   41.8770   67.3000 C.2    37  ASP37       0.2622
     22  O         27.1440   42.1570   67.8840 O.2    37  ASP37      -0.2715
     23  CB        24.5300   42.5160   69.1690 C.3    37  ASP37       0.1450
     24  CG        24.4050   43.9200   68.6150 C.2    37  ASP37       0.3671
     25  OD1       23.7020   44.0990   67.5970 O.co2  37  ASP37      -0.2456
     26  OD2       25.0060   44.8450   69.2050 O.co2  37  ASP37      -0.2456
     27  N         25.9790   41.9000   65.9730 N.am   38  CYS38      -0.1968
     28  CA        27.0990   42.2400   65.0960 C.3    38  CYS38       0.1712
     29  C         26.8500   43.5160   64.2920 C.2    38  CYS38       0.2296
     30  O         27.4580   43.7210   63.2420 O.2    38  CYS38      -0.2864
     31  CB        27.3600   41.0880   64.1240 C.3    38  CYS38       0.0983
     32  SG        27.8940   39.5550   64.9130 S.3    38  CYS38      -0.0798
     33  N         29.4560   45.8200   62.6370 N.3    41  TRP41      -0.1241
     34  CA        30.2040   45.2890   61.5010 C.3    41  TRP41       0.1605
     35  C         29.4500   45.4670   60.1860 C.2    41  TRP41       0.2264
     36  O         29.8020   44.8730   59.1630 O.2    41  TRP41      -0.2867
     37  CB        30.5360   43.8100   61.7290 C.3    41  TRP41       0.0550
     38  CG        31.8890   43.6130   62.3480 C.ar   41  TRP41       0.0003
     39  CD1       33.0980   43.7140   61.7190 C.ar   41  TRP41       0.0946
     40  CD2       32.1760   43.3580   63.7290 C.ar   41  TRP41       0.0152
     41  NE1       34.1190   43.5430   62.6220 N.ar   41  TRP41      -0.2442
     42  CE2       33.5830   43.3250   63.8640 C.ar   41  TRP41       0.0810
     43  CE3       31.3820   43.1620   64.8670 C.ar   41  TRP41       0.0012
     44  CZ2       34.2140   43.0980   65.0920 C.ar   41  TRP41       0.0191
     45  CZ3       32.0120   42.9370   66.0940 C.ar   41  TRP41       0.0001
     46  CH2       33.4150   42.9090   66.1930 C.ar   41  TRP41       0.0015
     47  N         27.4760   41.2320   55.3760 N.3    71  PHE71      -0.1241
     48  CA        27.4080   42.4090   56.2330 C.3    71  PHE71       0.1605
     49  C         26.7370   43.6340   55.6390 C.2    71  PHE71       0.2264
     50  O         26.7430   44.6990   56.2530 O.2    71  PHE71      -0.2867
     51  CB        28.8080   42.7840   56.7120 C.3    71  PHE71       0.0534
     52  CG        29.4330   41.7550   57.6050 C.ar   71  PHE71      -0.0203
     53  CD1       28.7120   41.1990   58.6580 C.ar   71  PHE71      -0.0042
     54  CD2       30.7540   41.3740   57.4220 C.ar   71  PHE71      -0.0042
     55  CE1       29.3010   40.2730   59.5140 C.ar   71  PHE71      -0.0003
     56  CE2       31.3520   40.4490   58.2730 C.ar   71  PHE71      -0.0003
     57  CZ        30.6250   39.9010   59.3230 C.ar   71  PHE71      -0.0000
     58  N         29.6690   41.6640   72.1280 N.3   108  ILE108     -0.1245
     59  CA        28.8550   41.0540   71.0790 C.3   108  ILE108      0.1561
     60  C         27.5320   40.4250   71.5190 C.2   108  ILE108      0.2260
     61  O         26.9440   39.6430   70.7750 O.2   108  ILE108     -0.2867
     62  CB        29.6610   40.0050   70.2630 C.3   108  ILE108      0.0252
     63  CG1       30.3090   38.9790   71.1960 C.3   108  ILE108      0.0019
     64  CG2       30.7030   40.7140   69.4080 C.3   108  ILE108      0.0019
     65  CD1       31.0780   37.8800   70.4590 C.3   108  ILE108      0.0001
     66  N         36.1830   40.8500   72.8490 N.3   132  TYR132     -0.1227
     67  CA        36.3230   40.5140   71.4430 C.3   132  TYR132      0.1736
     68  C         37.2170   41.5190   70.7190 C.2   132  TYR132      0.2595
     69  O         38.0670   42.1630   71.3370 O.2   132  TYR132     -0.2718
     70  CB        34.9290   40.4710   70.8140 C.3   132  TYR132      0.0548
     71  CG        34.8380   39.6790   69.5380 C.ar  132  TYR132     -0.0200
     72  CD1       35.4810   38.4470   69.4140 C.ar  132  TYR132     -0.0009
     73  CD2       34.0660   40.1340   68.4700 C.ar  132  TYR132     -0.0009
     74  CE1       35.3540   37.6850   68.2590 C.ar  132  TYR132      0.0417
     75  CE2       33.9310   39.3780   67.3130 C.ar  132  TYR132      0.0417
     76  CZ        34.5750   38.1530   67.2150 C.ar  132  TYR132      0.1957
     77  OH        34.4220   37.3760   66.0900 O.3   132  TYR132     -0.2866
     78  N         37.0290   41.6530   69.4100 N.am  133  LEU133     -0.1980
     79  CA        37.8360   42.5730   68.6210 C.3   133  LEU133      0.1596
     80  C         37.7090   44.0160   69.1070 C.2   133  LEU133      0.2287
     81  O         36.6850   44.4140   69.6660 O.2   133  LEU133     -0.2864
     82  CB        37.4520   42.4700   67.1400 C.3   133  LEU133      0.0297
     83  CG        37.6990   41.0980   66.4970 C.3   133  LEU133      0.0022
     84  CD1       37.1310   41.0760   65.0850 C.3   133  LEU133      0.0001
     85  CD2       39.1890   40.7950   66.4820 C.3   133  LEU133      0.0001
     86  N         39.8980   33.8960   68.9120 N.3   203  HIS203     -0.1241
     87  CA        39.4290   34.2250   67.5760 C.3   203  HIS203      0.1621
     88  C         40.6380   34.6550   66.7470 C.2   203  HIS203      0.2264
     89  O         41.4090   35.5250   67.1460 O.2   203  HIS203     -0.2867
     90  CB        38.4260   35.3780   67.6260 C.3   203  HIS203      0.0745
     91  CG        38.2430   36.0800   66.3140 C.ar  203  HIS203      0.0817
     92  ND1       37.1120   35.9290   65.5430 N.ar  203  HIS203     -0.2268
     93  CD2       39.0570   36.9170   65.6260 C.ar  203  HIS203      0.1154
     94  CE1       37.2360   36.6380   64.4350 C.ar  203  HIS203      0.1986
     95  NE2       38.4090   37.2470   64.4590 N.ar  203  HIS203     -0.2212
     96  N         36.2720   42.5890   53.5960 N.3   263  GLN263     -0.1245
     97  CA        37.6430   42.1040   53.6960 C.3   263  GLN263      0.1566
     98  C         38.1810   41.6410   52.3510 C.2   263  GLN263      0.2260
     99  O         39.3930   41.5820   52.1470 O.2   263  GLN263     -0.2867
    100  CB        37.7100   40.9230   54.6670 C.3   263  GLN263      0.0367
    101  CG        37.3920   41.2290   56.1190 C.3   263  GLN263      0.0905
    102  CD        36.9740   39.9730   56.8740 C.2   263  GLN263      0.2608
    103  OE1       35.8120   39.5640   56.8220 O.2   263  GLN263     -0.2717
    104  NE2       37.9260   39.3400   57.5550 N.am  263  GLN263     -0.0878
    105  N         29.9250   28.1490   63.5470 N.3   294  ASP294     -0.1239
    106  CA        30.0890   29.5580   63.8820 C.3   294  ASP294      0.1674
    107  C         28.8820   30.3500   63.3640 C.2   294  ASP294      0.2266
    108  O         29.0240   31.4040   62.7370 O.2   294  ASP294     -0.2867
    109  CB        31.3760   30.1550   63.3020 C.3   294  ASP294      0.1410
    110  CG        31.6440   31.5590   63.8300 C.2   294  ASP294      0.3668
    111  OD1       31.1380   31.8720   64.9280 O.co2 294  ASP294     -0.2456
    112  OD2       32.3610   32.3450   63.1740 O.co2 294  ASP294     -0.2456
    113  N         26.4990   32.9540   63.1990 N.3   296  PHE296     -0.1241
    114  CA        26.5860   34.2640   63.8280 C.3   296  PHE296      0.1605
    115  C         25.7380   35.3450   63.1670 C.2   296  PHE296      0.2264
    116  O         25.8150   36.5050   63.5500 O.2   296  PHE296     -0.2867
    117  CB        28.0570   34.7130   63.9170 C.3   296  PHE296      0.0534
    118  CG        28.6170   35.2490   62.6340 C.ar  296  PHE296     -0.0203
    119  CD1       28.8330   36.6170   62.4730 C.ar  296  PHE296     -0.0042
    120  CD2       28.9460   34.3920   61.5930 C.ar  296  PHE296     -0.0042
    121  CE1       29.3650   37.1220   61.2900 C.ar  296  PHE296     -0.0003
    122  CE2       29.4770   34.8840   60.4020 C.ar  296  PHE296     -0.0003
    123  CZ        29.6880   36.2530   60.2520 C.ar  296  PHE296     -0.0000
@<TRIPOS>BOND
     1    99    98    2
     2    98    97    1
     3    96    97    1
     4    97   100    1
     5   100   101    1
     6    47    48    1
     7    49    48    1
     8    49    50    2
     9   101   102    1
    10    48    51    1
    11    51    52    1
    12   103   102    2
    13   102   104   am
    14    54    52   ar
    15    54    56   ar
    16    52    53   ar
    17    56    57   ar
    18    53    55   ar
    19    36    35    2
    20    57    55   ar
    21    35    34    1
    22   123   122   ar
    23   123   121   ar
    24   122   120   ar
    25   121   119   ar
    26    34    37    1
    27    34    33    1
    28   120   118   ar
    29    39    38   ar
    30    39    41   ar
    31    37    38    1
    32    38    40   ar
    33   119   118   ar
    34    41    42   ar
    35   118   117    1
    36   108   107    2
    37   115   116    2
    38   115   114    1
    39   112   110   ar
    40   113   114    1
    41    30    29    2
    42   109   110    1
    43   109   106    1
    44   107   106    1
    45   105   106    1
    46    40    42   ar
    47    40    43   ar
    48   114   117    1
    49   110   111   ar
    50    42    44   ar
    51    31    32    1
    52    31    28    1
    53    29    28    1
    54    94    95   ar
    55    94    92   ar
    56    95    93   ar
    57    43    45   ar
    58    84    83    1
    59    44    46   ar
    60    28    27    1
    61    92    91   ar
    62    93    91   ar
    63    27    21   am
    64    77    76    1
    65    45    46   ar
    66    91    90    1
    67    85    83    1
    68    18    16   am
    69    83    82    1
    70    17    16    2
    71    88    89    2
    72    88    87    1
    73     8    10   ar
    74     8     6   ar
    75    82    79    1
    76    16    15    1
    77    76    75   ar
    78    76    74   ar
    79    21    22    2
    80    21    20    1
    81    75    73   ar
    82    10     9   ar
    83    87    90    1
    84    87    86    1
    85     4     3    2
    86    25    24   ar
    87     6     5    1
    88     6     7   ar
    89     5     2    1
    90     1     2    1
    91    20    19    1
    92    20    23    1
    93    74    72   ar
    94    14    13    2
    95    73    71   ar
    96    24    23    1
    97    24    26   ar
    98    79    80    1
    99    79    78    1
   100     3     2    1
   101    19    13   am
   102    15    12    1
   103    13    12    1
   104     9     7   ar
   105    80    81    2
   106    64    62    1
   107    78    68   am
   108    72    71   ar
   109    12    11    1
   110    71    70    1
   111    62    59    1
   112    62    63    1
   113    65    63    1
   114    68    69    2
   115    68    67    1
   116    61    60    2
   117    70    67    1
   118    59    60    1
   119    59    58    1
   120    67    66    1
