@<TRIPOS>MOLECULE
tmp/3k2hA02.pdb
 224 218 0 0 0
SMALL
GASTEIGER

@<TRIPOS>ATOM
      1  N         14.9810   -1.7760  -14.2800 N.3    11  PHE11      -0.1227
      2  CA        14.7470   -2.7130  -15.3990 C.3    11  PHE11       0.1736
      3  C         14.4510   -1.8540  -16.5940 C.2    11  PHE11       0.2595
      4  O         13.6140   -0.9430  -16.4860 O.2    11  PHE11      -0.2718
      5  CB        13.5150   -3.5900  -15.1770 C.3    11  PHE11       0.0547
      6  CG        13.7800   -4.7990  -14.3630 C.ar   11  PHE11      -0.0202
      7  CD1       13.9820   -4.6890  -12.9870 C.ar   11  PHE11      -0.0042
      8  CD2       13.8150   -6.0410  -14.9540 C.ar   11  PHE11      -0.0042
      9  CE1       14.2260   -5.8100  -12.2130 C.ar   11  PHE11      -0.0003
     10  CE2       14.0600   -7.1920  -14.1830 C.ar   11  PHE11      -0.0003
     11  CZ        14.2720   -7.0650  -12.8060 C.ar   11  PHE11      -0.0000
     12  N         15.1060   -2.1410  -17.7190 N.am   12  VAL12      -0.1966
     13  CA        14.8710   -1.4320  -18.9840 C.3    12  VAL12       0.1727
     14  C         15.1890   -2.3950  -20.1290 C.2    12  VAL12       0.2616
     15  O         15.9470   -3.3680  -19.9260 O.2    12  VAL12      -0.2715
     16  CB        15.7880   -0.1740  -19.0350 C.3    12  VAL12       0.0290
     17  CG1       17.2740   -0.5820  -18.9770 C.3    12  VAL12       0.0023
     18  CG2       15.4760    0.7490  -20.2180 C.3    12  VAL12       0.0023
     19  N         14.5990   -2.1440  -21.3060 N.am   13  ALA13      -0.1977
     20  CA        14.9040   -2.8500  -22.5460 C.3    13  ALA13       0.1597
     21  C         15.4120   -1.8180  -23.5400 C.2    13  ALA13       0.2287
     22  O         14.7420   -0.8380  -23.7730 O.2    13  ALA13      -0.2864
     23  CB        13.6490   -3.5190  -23.0960 C.3    13  ALA13       0.0319
     24  N          6.4010    1.2460  -27.0690 N.3    26  ILE26      -0.1245
     25  CA         7.5980    0.4490  -27.2430 C.3    26  ILE26       0.1561
     26  C          7.9750    0.4920  -28.7540 C.2    26  ILE26       0.2260
     27  O          7.1220    0.3280  -29.6020 O.2    26  ILE26      -0.2867
     28  CB         7.3810   -0.9670  -26.6410 C.3    26  ILE26       0.0252
     29  CG1        7.1250   -0.8460  -25.1400 C.3    26  ILE26       0.0019
     30  CG2        8.5780   -1.8350  -26.8250 C.3    26  ILE26       0.0019
     31  CD1        6.0670   -1.8240  -24.6250 C.3    26  ILE26       0.0001
     32  N          9.7900   -1.5200  -30.6480 N.3    28  TRP28      -0.1241
     33  CA         9.8760   -2.7950  -31.3560 C.3    28  TRP28       0.1605
     34  C          8.5670   -3.5700  -31.2860 C.2    28  TRP28       0.2264
     35  O          7.7430   -3.2710  -30.4460 O.2    28  TRP28      -0.2867
     36  CB        11.0140   -3.6450  -30.7610 C.3    28  TRP28       0.0550
     37  CG        11.1790   -3.5340  -29.2660 C.ar   28  TRP28       0.0003
     38  CD1       10.6010   -4.3340  -28.3010 C.ar   28  TRP28       0.0946
     39  CD2       12.0170   -2.5990  -28.5610 C.ar   28  TRP28       0.0152
     40  NE1       11.0310   -3.9440  -27.0390 N.ar   28  TRP28      -0.2442
     41  CE2       11.9030   -2.8910  -27.1730 C.ar   28  TRP28       0.0810
     42  CE3       12.8610   -1.5480  -28.9670 C.ar   28  TRP28       0.0012
     43  CZ2       12.5740   -2.1510  -26.1950 C.ar   28  TRP28       0.0191
     44  CZ3       13.5470   -0.8190  -27.9810 C.ar   28  TRP28       0.0001
     45  CH2       13.3870   -1.1210  -26.6190 C.ar   28  TRP28       0.0015
     46  N          7.3380  -11.0090  -25.8430 N.3    32  THR32      -0.1218
     47  CA         6.6350  -11.4430  -24.6330 C.3    32  THR32       0.1862
     48  C          7.6190  -12.1010  -23.6400 C.2    32  THR32       0.2287
     49  O          7.4140  -12.0450  -22.4220 O.2    32  THR32      -0.2866
     50  CB         5.4000  -12.3460  -24.9330 C.3    32  THR32       0.1770
     51  OG1        5.8440  -13.6020  -25.4240 O.3    32  THR32      -0.2211
     52  CG2        4.4680  -11.7000  -25.9650 C.3    32  THR32       0.0375
     53  N         10.6300  -10.9520  -22.9970 N.3    34  ASP34      -0.1225
     54  CA        11.0970   -9.8020  -22.2220 C.3    34  ASP34       0.1805
     55  C         10.0740   -9.3750  -21.1500 C.2    34  ASP34       0.2598
     56  O         10.4410   -9.1300  -19.9980 O.2    34  ASP34      -0.2718
     57  CB        11.4800   -8.6250  -23.1450 C.3    34  ASP34       0.1424
     58  CG        12.1360   -7.4600  -22.3810 C.2    34  ASP34       0.3668
     59  OD1       13.0410   -7.6980  -21.5270 O.co2  34  ASP34      -0.2456
     60  OD2       11.7480   -6.3100  -22.6480 O.co2  34  ASP34      -0.2456
     61  N          8.7930   -9.3300  -21.4970 N.am   35  PHE35      -0.1962
     62  CA         7.7620   -8.9820  -20.4930 C.3    35  PHE35       0.1771
     63  C          7.7570   -9.9540  -19.3090 C.2    35  PHE35       0.2619
     64  O          7.5530   -9.5570  -18.1520 O.2    35  PHE35      -0.2715
     65  CB         6.3750   -8.9250  -21.1330 C.3    35  PHE35       0.0574
     66  CG         6.1510   -7.6970  -21.9820 C.ar   35  PHE35      -0.0200
     67  CD1        6.9490   -6.5420  -21.8050 C.ar   35  PHE35      -0.0042
     68  CD2        5.1140   -7.6660  -22.9340 C.ar   35  PHE35      -0.0042
     69  CE1        6.7570   -5.3920  -22.5880 C.ar   35  PHE35      -0.0003
     70  CE2        4.9080   -6.4950  -23.7230 C.ar   35  PHE35      -0.0003
     71  CZ         5.7340   -5.3610  -23.5400 C.ar   35  PHE35      -0.0000
     72  N          7.9920  -11.2240  -19.6220 N.am   36  ARG36      -0.1963
     73  CA         7.9530  -12.3090  -18.6400 C.3    36  ARG36       0.1729
     74  C          9.1760  -12.1760  -17.7200 C.2    36  ARG36       0.2616
     75  O          9.0640  -12.2790  -16.4940 O.2    36  ARG36      -0.2715
     76  CB         7.9540  -13.6420  -19.3970 C.3    36  ARG36       0.0348
     77  CG         7.3030  -14.8120  -18.7130 C.3    36  ARG36       0.0492
     78  CD         7.4000  -16.0490  -19.6360 C.3    36  ARG36       0.2205
     79  NE         6.7570  -15.8750  -20.9460 N.pl3  36  ARG36      -0.0865
     80  CZ         7.2780  -16.3080  -22.0990 C.cat  36  ARG36       0.5346
     81  NH1        6.6230  -16.1170  -23.2430 N.pl3  36  ARG36       0.1354
     82  NH2        8.4630  -16.9130  -22.1170 N.pl3  36  ARG36       0.1354
     83  N         10.3340  -11.9080  -18.3290 N.am   37  PHE37      -0.1960
     84  CA        11.5550  -11.6140  -17.5830 C.3    37  PHE37       0.1771
     85  C         11.3570  -10.4250  -16.6120 C.2    37  PHE37       0.2619
     86  O         11.6830  -10.5340  -15.4300 O.2    37  PHE37      -0.2715
     87  CB        12.7140  -11.3580  -18.5620 C.3    37  PHE37       0.0574
     88  CG        14.0120  -10.9450  -17.8970 C.ar   37  PHE37      -0.0200
     89  CD1       14.9500  -11.9000  -17.5140 C.ar   37  PHE37      -0.0042
     90  CD2       14.3090   -9.5910  -17.7020 C.ar   37  PHE37      -0.0042
     91  CE1       16.1650  -11.5150  -16.9190 C.ar   37  PHE37      -0.0003
     92  CE2       15.5080   -9.1990  -17.1060 C.ar   37  PHE37      -0.0003
     93  CZ        16.4440  -10.1620  -16.7140 C.ar   37  PHE37      -0.0000
     94  N         10.8150   -9.3160  -17.1230 N.am   38  LEU38      -0.1963
     95  CA        10.4570   -8.1330  -16.3250 C.3    38  LEU38       0.1728
     96  C          9.5670   -8.4900  -15.1440 C.2    38  LEU38       0.2616
     97  O          9.8470   -8.0780  -14.0080 O.2    38  LEU38      -0.2715
     98  CB         9.6730   -7.1500  -17.1870 C.3    38  LEU38       0.0311
     99  CG         9.1530   -5.8780  -16.5290 C.3    38  LEU38       0.0022
    100  CD1       10.3070   -5.0430  -15.9240 C.3    38  LEU38       0.0001
    101  CD2        8.4150   -5.0670  -17.5800 C.3    38  LEU38       0.0001
    102  N          8.4830   -9.2220  -15.4320 N.am   39  ARG39      -0.1977
    103  CA         7.4890   -9.5760  -14.4310 C.3    39  ARG39       0.1597
    104  C          8.0820  -10.4460  -13.3400 C.2    39  ARG39       0.2287
    105  O          7.7720  -10.2400  -12.1670 O.2    39  ARG39      -0.2864
    106  CB         6.2640  -10.2820  -15.0290 C.3    39  ARG39       0.0334
    107  CG         5.2380  -10.6880  -13.9340 C.3    39  ARG39       0.0492
    108  CD         4.0430  -11.5280  -14.3940 C.3    39  ARG39       0.2205
    109  NE         4.3340  -12.4920  -15.4680 N.pl3  39  ARG39      -0.0865
    110  CZ         5.0170  -13.6260  -15.3270 C.cat  39  ARG39       0.5346
    111  NH1        5.5440  -13.9680  -14.1480 N.pl3  39  ARG39       0.1354
    112  NH2        5.1990  -14.4100  -16.3870 N.pl3  39  ARG39       0.1354
    113  N          7.1940    4.5330  -12.1310 N.3    62  PHE62      -0.1241
    114  CA         7.2080    5.0600  -13.4980 C.3    62  PHE62       0.1605
    115  C          6.9640    6.5570  -13.5370 C.2    62  PHE62       0.2264
    116  O          6.2970    7.1170  -12.6530 O.2    62  PHE62      -0.2867
    117  CB         6.1120    4.4970  -14.4150 C.3    62  PHE62       0.0534
    118  CG         5.5830    3.1530  -14.0680 C.ar   62  PHE62      -0.0203
    119  CD1        6.0770    2.0200  -14.7080 C.ar   62  PHE62      -0.0042
    120  CD2        4.4610    3.0290  -13.2330 C.ar   62  PHE62      -0.0042
    121  CE1        5.5260    0.7590  -14.4530 C.ar   62  PHE62      -0.0003
    122  CE2        3.9070    1.7650  -12.9640 C.ar   62  PHE62      -0.0003
    123  CZ         4.4460    0.6340  -13.5650 C.ar   62  PHE62      -0.0000
    124  N          5.3260    6.7820  -19.2430 N.3    66  THR66      -0.1218
    125  CA         5.5560    5.3210  -19.3150 C.3    66  THR66       0.1862
    126  C          4.3500    4.5220  -18.8170 C.2    66  THR66       0.2287
    127  O          4.0180    3.4980  -19.3980 O.2    66  THR66      -0.2866
    128  CB         6.8600    4.8680  -18.6190 C.3    66  THR66       0.1770
    129  OG1        7.9770    5.4280  -19.3120 O.3    66  THR66      -0.2211
    130  CG2        7.0060    3.3460  -18.6450 C.3    66  THR66       0.0375
    131  N          1.8300    4.4440  -21.3540 N.3    69  SER69      -0.1202
    132  CA         2.4000    3.5870  -22.4110 C.3    69  SER69       0.2020
    133  C          2.0230    2.1020  -22.3510 C.2    69  SER69       0.2619
    134  O          2.2590    1.3570  -23.3040 O.2    69  SER69      -0.2717
    135  CB         3.9330    3.7310  -22.4200 C.3    69  SER69       0.2103
    136  OG         4.6150    2.4740  -22.4370 O.3    69  SER69      -0.2182
    137  N          1.4890    1.6590  -21.2200 N.am   70  ILE70      -0.1966
    138  CA         1.0850    0.2550  -21.0570 C.3    70  ILE70       0.1712
    139  C         -0.4410    0.2270  -21.1900 C.2    70  ILE70       0.2458
    140  O         -1.1090    1.1860  -20.7560 O.2    70  ILE70      -0.2730
    141  CB         1.5070   -0.3100  -19.6650 C.3    70  ILE70       0.0289
    142  CG1        2.9310    0.1320  -19.3030 C.3    70  ILE70       0.0022
    143  CG2        1.3720   -1.8310  -19.6140 C.3    70  ILE70       0.0023
    144  CD1        3.1500    0.2810  -17.8070 C.3    70  ILE70       0.0001
    145  N         -1.0000   -0.8470  -21.8030 N.am   71  PRO71      -0.2727
    146  CA        -2.4750   -1.0370  -21.8760 C.3    71  PRO71       0.1402
    147  C         -3.1840   -0.7860  -20.5310 C.2    71  PRO71       0.2269
    148  O         -2.6850   -1.2200  -19.4740 O.2    71  PRO71      -0.2865
    149  CB        -2.6270   -2.5170  -22.2790 C.3    71  PRO71       0.0296
    150  CG        -1.1860   -3.0870  -22.3610 C.3    71  PRO71       0.0237
    151  CD        -0.2870   -1.9040  -22.5460 C.3    71  PRO71       0.0939
    152  N         -3.7210   -4.1760  -18.5530 N.3    74  SER74      -0.1217
    153  CA        -2.5780   -4.8070  -17.8720 C.3    74  SER74       0.1889
    154  C         -2.1470   -4.0210  -16.6210 C.2    74  SER74       0.2288
    155  O         -1.1660   -4.3720  -15.9650 O.2    74  SER74      -0.2866
    156  CB        -1.4080   -4.9110  -18.8560 C.3    74  SER74       0.2089
    157  OG        -0.3050   -5.6020  -18.2970 O.3    74  SER74      -0.2183
    158  N          0.1260   -2.7280  -12.7110 N.3    77  LEU77      -0.1231
    159  CA         0.9270   -3.9600  -12.7240 C.3    77  LEU77       0.1693
    160  C          0.6610   -4.8510  -11.5100 C.2    77  LEU77       0.2591
    161  O          0.7730   -4.4230  -10.3630 O.2    77  LEU77      -0.2718
    162  CB         2.4240   -3.6660  -12.8520 C.3    77  LEU77       0.0284
    163  CG         2.9310   -3.1640  -14.2010 C.3    77  LEU77       0.0019
    164  CD1        4.4540   -3.2680  -14.2440 C.3    77  LEU77       0.0001
    165  CD2        2.3330   -3.9470  -15.3480 C.3    77  LEU77       0.0001
    166  N          0.3120   -6.0960  -11.7860 N.am   78  LYS78      -0.1980
    167  CA        -0.1830   -7.0190  -10.7740 C.3    78  LYS78       0.1596
    168  C          0.8650   -7.4020   -9.7070 C.2    78  LYS78       0.2287
    169  O          2.0450   -7.6190  -10.0330 O.2    78  LYS78      -0.2864
    170  CB        -0.7280   -8.2660  -11.4740 C.3    78  LYS78       0.0298
    171  CG        -1.4580   -9.1920  -10.5640 C.3    78  LYS78       0.0038
    172  CD        -2.5410   -9.9780  -11.2920 C.3    78  LYS78       0.0206
    173  CE        -3.6500  -10.3410  -10.2830 C.3    78  LYS78       0.1093
    174  NZ        -4.5690  -11.3870  -10.7980 N.3    78  LYS78      -0.1314
    175  N          2.3870   -5.8350   -7.3860 N.3    80  ARG80      -0.1245
    176  CA         3.3670   -4.8520   -6.9850 C.3    80  ARG80       0.1563
    177  C          2.6340   -3.5720   -6.6410 C.2    80  ARG80       0.2260
    178  O          1.4850   -3.3910   -7.0310 O.2    80  ARG80      -0.2867
    179  CB         4.3950   -4.6240   -8.1060 C.3    80  ARG80       0.0307
    180  CG         5.3110   -5.8130   -8.3320 C.3    80  ARG80       0.0489
    181  CD         5.6910   -6.0230   -9.8060 C.3    80  ARG80       0.2205
    182  NE         4.5840   -6.5920  -10.5640 N.pl3  80  ARG80      -0.0865
    183  CZ         4.6010   -6.8400  -11.8700 C.cat  80  ARG80       0.5346
    184  NH1        5.6770   -6.5690  -12.6080 N.pl3  80  ARG80       0.1354
    185  NH2        3.5280   -7.3510  -12.4460 N.pl3  80  ARG80       0.1354
    186  N         11.0970    1.6350  -13.4640 N.3   120  LEU120     -0.1245
    187  CA        10.7520    1.2030  -14.8290 C.3   120  LEU120      0.1561
    188  C         10.6090    2.3490  -15.8510 C.2   120  LEU120      0.2260
    189  O          9.9260    2.1710  -16.8700 O.2   120  LEU120     -0.2867
    190  CB         9.4930    0.3280  -14.8590 C.3   120  LEU120      0.0270
    191  CG         9.2720   -0.8410  -13.8940 C.3   120  LEU120      0.0019
    192  CD1        8.1700   -1.8300  -14.4360 C.3   120  LEU120      0.0001
    193  CD2       10.5340   -1.5710  -13.5160 C.3   120  LEU120      0.0001
    194  N         15.0160    7.5790  -15.4190 N.3   126  TYR126     -0.1241
    195  CA        16.2850    6.8670  -15.4880 C.3   126  TYR126      0.1605
    196  C         17.4590    7.8400  -15.3730 C.2   126  TYR126      0.2264
    197  O         18.4440    7.5510  -14.6790 O.2   126  TYR126     -0.2867
    198  CB        16.4440    6.1040  -16.8020 C.3   126  TYR126      0.0534
    199  CG        15.5260    4.9390  -17.0670 C.ar  126  TYR126     -0.0201
    200  CD1       15.3450    3.9240  -16.1270 C.ar  126  TYR126     -0.0009
    201  CD2       14.9030    4.8090  -18.2990 C.ar  126  TYR126     -0.0009
    202  CE1       14.5160    2.8300  -16.3930 C.ar  126  TYR126      0.0417
    203  CE2       14.0690    3.7110  -18.5830 C.ar  126  TYR126      0.0417
    204  CZ        13.8960    2.7170  -17.6180 C.ar  126  TYR126      0.1957
    205  OH        13.0820    1.6230  -17.8870 O.3   126  TYR126     -0.2866
    206  N         18.9520   -4.3350  -14.4970 N.3   139  TYR139     -0.1241
    207  CA        18.5290   -5.4520  -15.3220 C.3   139  TYR139      0.1605
    208  C         18.2100   -4.8790  -16.7170 C.2   139  TYR139      0.2264
    209  O         17.2510   -4.0960  -16.8830 O.2   139  TYR139     -0.2867
    210  CB        17.3150   -6.1380  -14.7070 C.3   139  TYR139      0.0534
    211  CG        17.6410   -6.8660  -13.4230 C.ar  139  TYR139     -0.0201
    212  CD1       17.7870   -6.1700  -12.2270 C.ar  139  TYR139     -0.0009
    213  CD2       17.8390   -8.2540  -13.4090 C.ar  139  TYR139     -0.0009
    214  CE1       18.0870   -6.8250  -11.0420 C.ar  139  TYR139      0.0417
    215  CE2       18.1490   -8.9100  -12.2400 C.ar  139  TYR139      0.0417
    216  CZ        18.2700   -8.1870  -11.0540 C.ar  139  TYR139      0.1957
    217  OH        18.5920   -8.8230   -9.8800 O.3   139  TYR139     -0.2866
    218  N         17.8030   -5.5820  -20.8720 N.3   141  THR141     -0.1218
    219  CA        17.5450   -6.4230  -22.0090 C.3   141  THR141      0.1862
    220  C         18.2060   -5.7610  -23.2090 C.2   141  THR141      0.2287
    221  O         17.8020   -4.6480  -23.6400 O.2   141  THR141     -0.2866
    222  CB        16.0300   -6.5380  -22.2620 C.3   141  THR141      0.1770
    223  OG1       15.3760   -6.9630  -21.0600 O.3   141  THR141     -0.2211
    224  CG2       15.7360   -7.5600  -23.3840 C.3   141  THR141      0.0375
@<TRIPOS>BOND
     1    33    34    1
     2    33    36    1
     3    33    32    1
     4    34    35    2
     5    36    37    1
     6    27    26    2
     7    37    39   ar
     8    37    38   ar
     9    42    39   ar
    10    42    44   ar
    11    26    25    1
    12    39    41   ar
    13    38    40   ar
    14    44    45   ar
    15    25    24    1
    16    25    28    1
    17    41    40   ar
    18    41    43   ar
    19    30    28    1
    20    28    29    1
    21    45    43   ar
    22    52    50    1
    23    46    47    1
    24    51    50    1
    25    29    31    1
    26    50    47    1
    27    47    48    1
    28    22    21    2
    29    70    71   ar
    30    70    68   ar
    31   221   220    2
    32    48    49    2
    33    21    20    1
    34    71    69   ar
    35   224   222    1
    36   134   133    2
    37    81    80    1
    38   220   219    1
    39    57    58    1
    40    57    54    1
    41    23    20    1
    42    53    54    1
    43    68    66   ar
    44    60    58   ar
    45    69    67   ar
    46    20    19    1
    47   151   150    1
    48   151   145    1
    49   136   135    1
    50   135   132    1
    51   132   133    1
    52   132   131    1
    53    58    59   ar
    54   150   149    1
    55   133   137   am
    56   149   146    1
    57   222   219    1
    58   222   223    1
    59    54    55    1
    60    82    80    1
    61    80    79    2
    62   219   218    1
    63    66    67   ar
    64    66    65    1
    65   146   145    1
    66   146   147    1
    67   145   139   am
    68    61    55   am
    69    61    62    1
    70    19    14   am
    71   137   138    1
    72   139   138    1
    73   139   140    2
    74    55    56    2
    75    65    62    1
    76   138   141    1
    77    79    78    1
    78   147   148    2
    79    62    63    1
    80    18    16    1
    81    14    15    2
    82    14    13    1
    83   141   143    1
    84   141   142    1
    85    78    77    1
    86    72    63   am
    87    72    73    1
    88   127   126    2
    89    76    77    1
    90    76    73    1
    91   125   124    1
    92   125   126    1
    93   125   128    1
    94   129   128    1
    95    63    64    2
    96   142   144    1
    97    16    13    1
    98    16    17    1
    99    13    12    1
   100   156   157    1
   101   156   153    1
   102   130   128    1
   103    73    74    1
   104   203   201   ar
   105   203   204   ar
   106    87    88    1
   107    87    84    1
   108   152   153    1
   109    83    74   am
   110    83    84    1
   111   201   199   ar
   112    88    90   ar
   113    88    89   ar
   114   205   204    1
   115   153   154    1
   116    74    75    2
   117    12     3   am
   118    90    92   ar
   119   204   202   ar
   120    84    85    1
   121   101    99    1
   122    89    91   ar
   123    98    99    1
   124    98    95    1
   125    94    85   am
   126    94    95    1
   127    92    93   ar
   128   199   198    1
   129   199   200   ar
   130    91    93   ar
   131   209   208    2
   132   189   188    2
   133   198   195    1
   134   208   207    1
   135   154   155    2
   136    85    86    2
   137     3     4    2
   138     3     2    1
   139    99   100    1
   140   202   200   ar
   141   112   110    1
   142    95    96    1
   143   188   187    1
   144   195   194    1
   145   195   196    1
   146   109   110    2
   147   109   108    1
   148   102    96   am
   149   102   103    1
   150     2     5    1
   151     2     1    1
   152   196   197    2
   153   165   163    1
   154   110   111    1
   155   207   210    1
   156   207   206    1
   157     5     6    1
   158    96    97    2
   159   106   103    1
   160   106   107    1
   161     8     6   ar
   162     8    10   ar
   163   190   187    1
   164   190   191    1
   165   187   186    1
   166   119   121   ar
   167   119   118   ar
   168   210   211    1
   169   121   123   ar
   170   192   191    1
   171   103   104    1
   172   117   118    1
   173   117   114    1
   174   108   107    1
   175     6     7   ar
   176   164   163    1
   177   163   162    1
   178    10    11   ar
   179   118   120   ar
   180   191   193    1
   181   123   122   ar
   182   115   114    1
   183   115   116    2
   184   114   113    1
   185   211   213   ar
   186   211   212   ar
   187   213   215   ar
   188   104   105    2
   189   120   122   ar
   190     7     9   ar
   191   162   159    1
   192    11     9   ar
   193   159   158    1
   194   159   160    1
   195   184   183    1
   196   185   183    1
   197   215   216   ar
   198   212   214   ar
   199   183   182    2
   200   166   160   am
   201   166   167    1
   202   160   161    2
   203   170   167    1
   204   170   171    1
   205   172   171    1
   206   172   173    1
   207   216   214   ar
   208   216   217    1
   209   174   173    1
   210   167   168    1
   211   182   181    1
   212   169   168    2
   213   181   180    1
   214   180   179    1
   215   179   176    1
   216   175   176    1
   217   178   177    2
   218   176   177    1
