@<TRIPOS>MOLECULE
tmp/3k2hA01.pdb
 226 217 0 0 0
SMALL
GASTEIGER

@<TRIPOS>ATOM
      1  N         53.9290  -28.9770  -36.3590 N.3   240  ARG240     -0.1231
      2  CA        54.2810  -29.0810  -37.7770 C.3   240  ARG240      0.1694
      3  C         54.6930  -27.7410  -38.4040 C.2   240  ARG240      0.2592
      4  O         55.5760  -27.7190  -39.2360 O.2   240  ARG240     -0.2718
      5  CB        53.0910  -29.7090  -38.5210 C.3   240  ARG240      0.0321
      6  CG        53.2800  -29.9630  -40.0110 C.3   240  ARG240      0.0489
      7  CD        51.9350  -30.3040  -40.6580 C.3   240  ARG240      0.2205
      8  NE        50.8770  -29.3640  -40.2690 N.pl3 240  ARG240     -0.0865
      9  CZ        50.6880  -28.1770  -40.8450 C.cat 240  ARG240      0.5346
     10  NH1       51.4870  -27.7790  -41.8370 N.pl3 240  ARG240      0.1354
     11  NH2       49.7110  -27.3820  -40.4290 N.pl3 240  ARG240      0.1354
     12  N         54.0570  -26.6400  -37.9820 N.am  241  THR241     -0.1953
     13  CA        54.2330  -25.3250  -38.6130 C.3   241  THR241      0.1897
     14  C         55.5290  -24.5850  -38.2550 C.2   241  THR241      0.2313
     15  O         55.8880  -23.6260  -38.9330 O.2   241  THR241     -0.2863
     16  CB        53.0490  -24.3530  -38.2870 C.3   241  THR241      0.1794
     17  OG1       53.1490  -23.8840  -36.9330 O.3   241  THR241     -0.2208
     18  CG2       51.6610  -25.0150  -38.5350 C.3   241  THR241      0.0378
     19  N         35.2180  -10.6570  -31.3210 N.3   267  LYS267     -0.1245
     20  CA        35.9900  -10.0200  -32.3880 C.3   267  LYS267      0.1561
     21  C         35.1260  -10.0570  -33.6340 C.2   267  LYS267      0.2260
     22  O         34.2230  -10.8690  -33.7180 O.2   267  LYS267     -0.2867
     23  CB        37.3450  -10.7360  -32.6360 C.3   267  LYS267      0.0271
     24  CG        37.1940  -12.0840  -33.3630 C.3   267  LYS267      0.0035
     25  CD        38.5240  -12.6790  -33.8340 C.3   267  LYS267      0.0206
     26  CE        38.3560  -14.1060  -34.3480 C.3   267  LYS267      0.1093
     27  NZ        39.6400  -14.6930  -34.8430 N.3   267  LYS267     -0.1314
     28  N         34.1940  -11.3540  -36.8570 N.3   269  VAL269     -0.1231
     29  CA        34.5640  -12.5810  -37.5590 C.3   269  VAL269      0.1692
     30  C         34.2180  -12.4190  -39.0610 C.2   269  VAL269      0.2591
     31  O         33.1350  -11.9050  -39.4080 O.2   269  VAL269     -0.2718
     32  CB        33.8830  -13.8300  -36.8970 C.3   269  VAL269      0.0266
     33  CG1       34.1380  -15.1020  -37.6750 C.3   269  VAL269      0.0020
     34  CG2       34.3330  -13.9990  -35.4430 C.3   269  VAL269      0.0020
     35  N         35.1470  -12.8450  -39.9330 N.am  270  ALA270     -0.1980
     36  CA        35.0000  -12.7330  -41.3950 C.3   270  ALA270      0.1597
     37  C         33.9600  -13.7250  -41.9500 C.2   270  ALA270      0.2287
     38  O         34.3020  -14.7190  -42.5900 O.2   270  ALA270     -0.2864
     39  CB        36.3820  -12.9360  -42.0880 C.3   270  ALA270      0.0319
     40  N         33.9100  -15.1160  -45.6470 N.3   273  SER273     -0.1217
     41  CA        34.9000  -16.1810  -45.8630 C.3   273  SER273      0.1889
     42  C         34.3900  -17.5110  -45.3760 C.2   273  SER273      0.2288
     43  O         34.6040  -18.5270  -46.0380 O.2   273  SER273     -0.2866
     44  CB        36.2280  -15.8540  -45.1810 C.3   273  SER273      0.2089
     45  OG        36.8100  -14.7300  -45.8150 O.3   273  SER273     -0.2183
     46  N         33.6840  -20.7570  -48.0020 N.3   277  GLU277     -0.1245
     47  CA        34.3840  -21.9760  -47.7320 C.3   277  GLU277      0.1567
     48  C         33.3860  -23.1310  -47.5980 C.2   277  GLU277      0.2260
     49  O         33.6100  -24.1940  -48.1520 O.2   277  GLU277     -0.2867
     50  CB        35.1970  -21.8460  -46.4530 C.3   277  GLU277      0.0388
     51  CG        35.9960  -23.0900  -46.1990 C.3   277  GLU277      0.1160
     52  CD        36.4940  -23.1950  -44.7730 C.2   277  GLU277      0.3649
     53  OE1       35.7510  -22.8200  -43.8330 O.co2 277  GLU277     -0.2457
     54  OE2       37.6170  -23.7020  -44.6190 O.co2 277  GLU277     -0.2457
     55  N         38.4930  -14.9850  -51.1630 N.3   296  VAL296     -0.1231
     56  CA        38.6910  -15.6650  -49.8890 C.3   296  VAL296      0.1692
     57  C         40.0800  -16.3270  -49.8870 C.2   296  VAL296      0.2592
     58  O         40.3980  -17.1610  -50.7460 O.2   296  VAL296     -0.2718
     59  CB        37.5510  -16.6910  -49.6040 C.3   296  VAL296      0.0266
     60  CG1       37.7760  -17.4120  -48.2700 C.3   296  VAL296      0.0020
     61  CG2       36.1810  -15.9560  -49.6020 C.3   296  VAL296      0.0020
     62  N         40.9170  -15.9380  -48.9250 N.am  297  ARG297     -0.1966
     63  CA        42.3510  -16.3160  -48.9650 C.3   297  ARG297      0.1729
     64  C         42.7770  -17.2620  -47.8270 C.2   297  ARG297      0.2616
     65  O         43.9600  -17.5640  -47.6440 O.2   297  ARG297     -0.2715
     66  CB        43.2100  -15.0580  -49.0250 C.3   297  ARG297      0.0348
     67  CG        42.7790  -14.0780  -50.1370 C.3   297  ARG297      0.0492
     68  CD        43.7590  -12.8950  -50.2960 C.3   297  ARG297      0.2205
     69  NE        45.0070  -13.3260  -50.9380 N.pl3 297  ARG297     -0.0865
     70  CZ        45.5010  -12.8520  -52.0810 C.cat 297  ARG297      0.5346
     71  NH1       44.8790  -11.8910  -52.7790 N.pl3 297  ARG297      0.1354
     72  NH2       46.6470  -13.3450  -52.5380 N.pl3 297  ARG297      0.1354
     73  N         41.8030  -17.7480  -47.0740 N.am  298  ILE298     -0.1963
     74  CA        42.0920  -18.6910  -45.9750 C.3   298  ILE298      0.1727
     75  C         42.8470  -19.9940  -46.3240 C.2   298  ILE298      0.2616
     76  O         43.5900  -20.5170  -45.4620 O.2   298  ILE298     -0.2715
     77  CB        40.8320  -19.0050  -45.1400 C.3   298  ILE298      0.0290
     78  CG1       39.8460  -19.8750  -45.9210 C.3   298  ILE298      0.0022
     79  CG2       40.1670  -17.7190  -44.6980 C.3   298  ILE298      0.0023
     80  CD1       38.5740  -20.1740  -45.1150 C.3   298  ILE298      0.0001
     81  N         42.6530  -20.5280  -47.5390 N.am  299  TRP299     -0.1974
     82  CA        43.3030  -21.7880  -47.9700 C.3   299  TRP299      0.1640
     83  C         44.5580  -21.5410  -48.8080 C.2   299  TRP299      0.2290
     84  O         45.2120  -22.4960  -49.2400 O.2   299  TRP299     -0.2864
     85  CB        42.3200  -22.7420  -48.7030 C.3   299  TRP299      0.0576
     86  CG        41.4910  -23.4890  -47.7140 C.ar  299  TRP299      0.0006
     87  CD1       40.2180  -23.1870  -47.3050 C.ar  299  TRP299      0.0946
     88  CD2       41.9250  -24.5970  -46.8980 C.ar  299  TRP299      0.0152
     89  NE1       39.8350  -24.0410  -46.3030 N.ar  299  TRP299     -0.2442
     90  CE2       40.8580  -24.9170  -46.0320 C.ar  299  TRP299      0.0810
     91  CE3       43.1160  -25.3470  -46.8230 C.ar  299  TRP299      0.0012
     92  CZ2       40.9270  -25.9790  -45.1020 C.ar  299  TRP299      0.0191
     93  CZ3       43.1840  -26.4200  -45.9030 C.ar  299  TRP299      0.0001
     94  CH2       42.0920  -26.7140  -45.0520 C.ar  299  TRP299      0.0015
     95  N         48.2000  -22.8580  -47.5290 N.3   302  ASN302     -0.1240
     96  CA        48.3320  -24.3270  -47.6300 C.3   302  ASN302      0.1653
     97  C         48.2930  -24.9410  -49.0750 C.2   302  ASN302      0.2266
     98  O         48.5020  -26.1390  -49.2230 O.2   302  ASN302     -0.2867
     99  CB        47.3390  -25.0460  -46.6940 C.3   302  ASN302      0.1155
    100  CG        47.5860  -24.7250  -45.2030 C.2   302  ASN302      0.2627
    101  OD1       46.8620  -23.9310  -44.6020 O.2   302  ASN302     -0.2716
    102  ND2       48.6110  -25.3280  -44.6240 N.am  302  ASN302     -0.0877
    103  N         38.3850  -32.0670  -47.8290 N.3   325  TYR325     -0.1241
    104  CA        36.9520  -32.1150  -47.4690 C.3   325  TYR325      0.1605
    105  C         35.9370  -32.3080  -48.6210 C.2   325  TYR325      0.2264
    106  O         35.1910  -33.2920  -48.6450 O.2   325  TYR325     -0.2867
    107  CB        36.5630  -30.8700  -46.6550 C.3   325  TYR325      0.0534
    108  CG        37.5160  -30.5090  -45.5340 C.ar  325  TYR325     -0.0201
    109  CD1       37.3180  -30.9820  -44.2170 C.ar  325  TYR325     -0.0009
    110  CD2       38.5840  -29.6570  -45.7730 C.ar  325  TYR325     -0.0009
    111  CE1       38.1660  -30.6020  -43.1940 C.ar  325  TYR325      0.0417
    112  CE2       39.4510  -29.2750  -44.7580 C.ar  325  TYR325      0.0417
    113  CZ        39.2460  -29.7370  -43.4850 C.ar  325  TYR325      0.1957
    114  OH        40.1530  -29.3350  -42.5240 O.3   325  TYR325     -0.2866
    115  N         46.7100  -30.8070  -46.4720 N.3   382  LEU382     -0.1245
    116  CA        46.4310  -30.6880  -45.0570 C.3   382  LEU382      0.1561
    117  C         45.2440  -31.5880  -44.7350 C.2   382  LEU382      0.2260
    118  O         44.0900  -31.2520  -45.0870 O.2   382  LEU382     -0.2867
    119  CB        46.0780  -29.2520  -44.6820 C.3   382  LEU382      0.0270
    120  CG        46.0430  -28.9450  -43.1860 C.3   382  LEU382      0.0019
    121  CD1       47.4500  -29.0740  -42.5520 C.3   382  LEU382      0.0001
    122  CD2       45.4490  -27.5180  -42.9600 C.3   382  LEU382      0.0001
    123  N         40.9820  -31.1080  -40.4200 N.3   385  CYS385     -0.1221
    124  CA        40.9220  -30.8090  -38.9930 C.3   385  CYS385      0.1808
    125  C         39.5810  -31.1800  -38.3980 C.2   385  CYS385      0.2601
    126  O         39.5170  -31.8700  -37.3910 O.2   385  CYS385     -0.2717
    127  CB        41.1970  -29.3310  -38.7400 C.3   385  CYS385      0.0970
    128  SG        42.8510  -28.8390  -39.3070 S.3   385  CYS385     -0.0800
    129  N         38.5110  -30.6930  -39.0040 N.am  386  HIS386     -0.1975
    130  CA        37.1800  -31.1630  -38.6750 C.3   386  HIS386      0.1656
    131  C         36.9900  -32.4060  -39.5240 C.2   386  HIS386      0.2291
    132  O         36.6120  -32.3230  -40.6860 O.2   386  HIS386     -0.2864
    133  CB        36.1040  -30.0990  -38.9310 C.3   386  HIS386      0.0771
    134  CG        36.2900  -29.2990  -40.1760 C.ar  386  HIS386      0.0820
    135  ND1       35.5200  -29.4970  -41.3100 N.ar  386  HIS386     -0.2267
    136  CD2       37.1200  -28.2640  -40.4590 C.ar  386  HIS386      0.1154
    137  CE1       35.8840  -28.6330  -42.2430 C.ar  386  HIS386      0.1986
    138  NE2       36.8520  -27.8740  -41.7520 N.ar  386  HIS386     -0.2212
    139  N         43.0620  -24.6450  -34.0430 N.3   408  ASP408     -0.1239
    140  CA        43.7220  -23.3370  -33.9810 C.3   408  ASP408      0.1674
    141  C         42.6810  -22.4320  -33.3500 C.2   408  ASP408      0.2266
    142  O         41.8390  -21.9040  -34.0510 O.2   408  ASP408     -0.2867
    143  CB        44.0740  -22.8370  -35.3890 C.3   408  ASP408      0.1410
    144  CG        44.7180  -21.4290  -35.3950 C.2   408  ASP408      0.3668
    145  OD1       44.4880  -20.6310  -34.4630 O.co2 408  ASP408     -0.2456
    146  OD2       45.4560  -21.1220  -36.3550 O.co2 408  ASP408     -0.2456
    147  N         42.3270  -18.7240  -34.8910 N.3   411  LEU411     -0.1231
    148  CA        41.8820  -18.4990  -36.2650 C.3   411  LEU411      0.1693
    149  C         40.7510  -19.3960  -36.7360 C.2   411  LEU411      0.2592
    150  O         39.7060  -18.9150  -37.1820 O.2   411  LEU411     -0.2718
    151  CB        43.0690  -18.5810  -37.2340 C.3   411  LEU411      0.0284
    152  CG        43.9200  -17.3190  -37.3210 C.3   411  LEU411      0.0019
    153  CD1       44.9470  -17.4420  -38.4660 C.3   411  LEU411      0.0001
    154  CD2       43.0260  -16.0670  -37.5220 C.3   411  LEU411      0.0001
    155  N         40.9540  -20.6940  -36.6330 N.am  412  GLY412     -0.1957
    156  CA        40.0740  -21.6360  -37.2810 C.3   412  GLY412      0.1869
    157  C         38.8650  -21.9920  -36.4900 C.2   412  GLY412      0.2309
    158  O         37.7670  -22.0780  -37.0510 O.2   412  GLY412     -0.2863
    159  N         35.9130  -20.0370  -37.0910 N.3   415  PHE415     -0.1227
    160  CA        35.3470  -20.4050  -38.4100 C.3   415  PHE415      0.1736
    161  C         34.5360  -21.7080  -38.3530 C.2   415  PHE415      0.2595
    162  O         33.3990  -21.7610  -38.8300 O.2   415  PHE415     -0.2718
    163  CB        36.4630  -20.5600  -39.4460 C.3   415  PHE415      0.0547
    164  CG        36.7590  -19.3070  -40.2010 C.ar  415  PHE415     -0.0202
    165  CD1       36.7620  -19.3130  -41.6040 C.ar  415  PHE415     -0.0042
    166  CD2       37.0380  -18.1110  -39.5210 C.ar  415  PHE415     -0.0042
    167  CE1       37.0570  -18.1700  -42.2920 C.ar  415  PHE415     -0.0003
    168  CE2       37.2970  -16.9680  -40.2170 C.ar  415  PHE415     -0.0003
    169  CZ        37.3110  -17.0010  -41.6170 C.ar  415  PHE415     -0.0000
    170  N         35.1400  -22.7510  -37.7770 N.am  416  ASN416     -0.1974
    171  CA        34.5050  -24.0970  -37.6210 C.3   416  ASN416      0.1688
    172  C         33.1840  -24.0110  -36.8580 C.2   416  ASN416      0.2292
    173  O         32.2190  -24.6190  -37.2700 O.2   416  ASN416     -0.2864
    174  CB        35.4740  -25.0760  -36.9080 C.3   416  ASN416      0.1181
    175  CG        36.8630  -25.1480  -37.6030 C.2   416  ASN416      0.2629
    176  OD1       37.9250  -25.0310  -36.9620 O.2   416  ASN416     -0.2716
    177  ND2       36.8440  -25.2810  -38.9250 N.am  416  ASN416     -0.0877
    178  N         48.5910  -20.5010  -30.8880 N.3   448  TYR448     -0.1241
    179  CA        49.9240  -20.1710  -31.3640 C.3   448  TYR448      0.1605
    180  C         50.4840  -19.0050  -30.5600 C.2   448  TYR448      0.2264
    181  O         49.7180  -18.1380  -30.0910 O.2   448  TYR448     -0.2867
    182  CB        49.9130  -19.9080  -32.8690 C.3   448  TYR448      0.0534
    183  CG        49.6330  -21.1630  -33.6950 C.ar  448  TYR448     -0.0201
    184  CD1       50.6600  -22.0700  -33.9970 C.ar  448  TYR448     -0.0009
    185  CD2       48.3400  -21.4500  -34.1610 C.ar  448  TYR448     -0.0009
    186  CE1       50.4140  -23.2250  -34.7620 C.ar  448  TYR448      0.0417
    187  CE2       48.0790  -22.6050  -34.9390 C.ar  448  TYR448      0.0417
    188  CZ        49.1200  -23.4900  -35.2330 C.ar  448  TYR448      0.1957
    189  OH        48.8880  -24.6420  -35.9920 O.3   448  TYR448     -0.2866
    190  N         40.3220   -8.5950  -34.7600 N.3   497  ILE497     -0.1231
    191  CA        41.6410   -8.7180  -34.1730 C.3   497  ILE497      0.1678
    192  C         42.5450   -9.4420  -35.1500 C.2   497  ILE497      0.2434
    193  O         42.3680  -10.6430  -35.3970 O.2   497  ILE497     -0.2733
    194  CB        41.6500   -9.4760  -32.8470 C.3   497  ILE497      0.0265
    195  CG1       40.7700   -8.7940  -31.7940 C.3   497  ILE497      0.0019
    196  CG2       43.0960   -9.5750  -32.3410 C.3   497  ILE497      0.0020
    197  CD1       40.5210   -9.7150  -30.6370 C.3   497  ILE497      0.0001
    198  N         43.5210   -8.7140  -35.7090 N.am  498  PRO498     -0.2718
    199  CA        44.4270   -9.3460  -36.6570 C.3   498  PRO498      0.1535
    200  C         45.1530  -10.5220  -36.0070 C.2   498  PRO498      0.2598
    201  O         45.6400  -10.4240  -34.8670 O.2   498  PRO498     -0.2715
    202  CB        45.4230   -8.2260  -37.0030 C.3   498  PRO498      0.0310
    203  CG        44.7120   -6.9710  -36.7260 C.3   498  PRO498      0.0237
    204  CD        43.7760   -7.2680  -35.5720 C.3   498  PRO498      0.0939
    205  N         45.1980  -11.6230  -36.7400 N.am  499  MET499     -0.1978
    206  CA        45.9240  -12.8170  -36.3340 C.3   499  MET499      0.1605
    207  C         46.4660  -13.5000  -37.5950 C.2   499  MET499      0.2287
    208  O         45.7300  -13.7020  -38.5890 O.2   499  MET499     -0.2864
    209  CB        45.0250  -13.7650  -35.5350 C.3   499  MET499      0.0413
    210  CG        44.7530  -13.3590  -34.0770 C.3   499  MET499      0.0598
    211  SD        43.7920  -14.6380  -33.1730 S.3   499  MET499     -0.1393
    212  CE        42.1880  -13.9120  -32.8930 C.3   499  MET499      0.0692
    213  N         48.1760  -16.5500  -39.8100 N.3   501  MET501     -0.1230
    214  CA        48.0790  -18.0100  -39.9220 C.3   501  MET501      0.1702
    215  C         49.4510  -18.6520  -40.0670 C.2   501  MET501      0.2593
    216  O         50.2980  -18.1590  -40.8210 O.2   501  MET501     -0.2718
    217  CB        47.2260  -18.4140  -41.1210 C.3   501  MET501      0.0401
    218  CG        46.5100  -19.7490  -40.9690 C.3   501  MET501      0.0596
    219  SD        46.1900  -20.4180  -42.6050 S.3   501  MET501     -0.1393
    220  CE        47.8120  -21.1870  -42.9320 C.3   501  MET501      0.0692
    221  N         49.6710  -19.7340  -39.3230 N.am  502  SER502     -0.1952
    222  CA        50.8810  -20.5300  -39.4570 C.3   502  SER502      0.1924
    223  C         50.5920  -21.7070  -40.3800 C.2   502  SER502      0.2314
    224  O         49.6770  -22.5350  -40.1170 O.2   502  SER502     -0.2863
    225  CB        51.3510  -20.9820  -38.0830 C.3   502  SER502      0.2116
    226  OG        51.7390  -19.8600  -37.2900 O.3   502  SER502     -0.2180
@<TRIPOS>BOND
     1    71    70    1
     2    72    70    1
     3    70    69    2
     4    55    56    1
     5    69    68    1
     6    58    57    2
     7    68    67    1
     8    67    66    1
     9    56    57    1
    10    56    59    1
    11    57    62   am
    12    59    61    1
    13    59    60    1
    14    84    83    2
    15    98    97    2
    16    97    96    1
    17    66    63    1
    18    63    62    1
    19    63    64    1
    20    83    82    1
    21    85    82    1
    22    85    86    1
    23   106   105    2
    24   105   104    1
    25    49    48    2
    26    46    47    1
    27    82    81    1
    28   103   104    1
    29    64    65    2
    30    64    73   am
    31    47    48    1
    32    47    50    1
    33    86    87   ar
    34    86    88   ar
    35    96    95    1
    36    96    99    1
    37    81    75   am
    38   104   107    1
    39    87    89   ar
    40    73    74    1
    41    88    91   ar
    42    88    90   ar
    43    91    93   ar
    44    99   100    1
    45   107   108    1
    46   115   116    1
    47    50    51    1
    48    75    74    1
    49    75    76    2
    50    89    90   ar
    51    51    52    1
    52    43    42    2
    53    90    92   ar
    54    74    77    1
    55    78    77    1
    56    78    80    1
    57    93    94   ar
    58    41    40    1
    59    41    42    1
    60    41    44    1
    61    45    44    1
    62   110   108   ar
    63   110   112   ar
    64   108   109   ar
    65   100   102   am
    66   100   101    2
    67    77    79    1
    68    92    94   ar
    69   118   117    2
    70   116   117    1
    71   116   119    1
    72    52    54   ar
    73    52    53   ar
    74   112   113   ar
    75   119   120    1
    76   109   111   ar
    77   113   111   ar
    78   113   114    1
    79   120   122    1
    80   120   121    1
    81   220   219    1
    82   219   218    1
    83    38    37    2
    84   167   169   ar
    85   167   165   ar
    86   137   138   ar
    87   137   135   ar
    88    39    36    1
    89    37    36    1
    90    10     9    1
    91   138   136   ar
    92   169   168   ar
    93   165   164   ar
    94    36    35    1
    95   135   134   ar
    96   217   218    1
    97   217   214    1
    98     9    11    1
    99     9     8    2
   100   216   215    2
   101   132   131    2
   102     7     8    1
   103     7     6    1
   104   136   134   ar
   105   123   124    1
   106   223   224    2
   107   223   222    1
   108   168   166   ar
   109   164   166   ar
   110   164   163    1
   111   134   133    1
   112   215   214    1
   113   215   221   am
   114     6     5    1
   115    35    30   am
   116   214   213    1
   117   131   130    1
   118   222   221    1
   119   222   225    1
   120   163   160    1
   121    31    30    2
   122   128   127    1
   123     4     3    2
   124    30    29    1
   125   129   130    1
   126   129   125   am
   127   124   127    1
   128   124   125    1
   129    15    14    2
   130   133   130    1
   131   177   175   am
   132   162   161    2
   133    13    16    1
   134    13    14    1
   135    13    12    1
   136   208   207    2
   137    18    16    1
   138     5     2    1
   139   153   152    1
   140   160   161    1
   141   160   159    1
   142     3    12   am
   143     3     2    1
   144   125   126    2
   145   161   170   am
   146    16    17    1
   147   225   226    1
   148     2     1    1
   149   170   171    1
   150    33    32    1
   151   171   174    1
   152   171   172    1
   153   175   176    2
   154   175   174    1
   155   207   206    1
   156    29    32    1
   157    29    28    1
   158   154   152    1
   159   152   151    1
   160   156   155    1
   161   156   157    1
   162   173   172    2
   163   151   148    1
   164   150   149    2
   165   158   157    2
   166   202   203    1
   167   202   199    1
   168    32    34    1
   169   205   206    1
   170   205   200   am
   171   149   155   am
   172   149   148    1
   173   203   204    1
   174   199   200    1
   175   199   198    1
   176   146   144   ar
   177   206   209    1
   178   148   147    1
   179   200   201    2
   180   189   188    1
   181   198   204    1
   182   198   192   am
   183   209   210    1
   184   193   192    2
   185   144   143    1
   186   144   145   ar
   187   143   140    1
   188   188   187   ar
   189   188   186   ar
   190   192   191    1
   191   187   185   ar
   192    27    26    1
   193   186   184   ar
   194   190   191    1
   195    26    25    1
   196   191   194    1
   197   185   183   ar
   198   210   211    1
   199   142   141    2
   200   139   140    1
   201   184   183   ar
   202   140   141    1
   203    25    24    1
   204    22    21    2
   205   183   182    1
   206    21    20    1
   207    24    23    1
   208   211   212    1
   209   182   179    1
   210   194   196    1
   211   194   195    1
   212    23    20    1
   213    20    19    1
   214   195   197    1
   215   179   178    1
   216   179   180    1
   217   180   181    2
