@<TRIPOS>MOLECULE
tmp/3k2hA00.pdb
 166 160 0 0 0
SMALL
GASTEIGER

@<TRIPOS>ATOM
      1  N         55.2020  -27.8800  -33.1900 N.3   239  ASN239     -0.1225
      2  CA        54.2530  -28.5660  -34.0330 C.3   239  ASN239      0.1785
      3  C         54.7350  -28.4640  -35.4480 C.2   239  ASN239      0.2597
      4  O         55.7810  -27.9060  -35.7150 O.2   239  ASN239     -0.2718
      5  CB        52.8350  -27.9510  -33.8760 C.3   239  ASN239      0.1169
      6  CG        52.8040  -26.4500  -34.1890 C.2   239  ASN239      0.2627
      7  OD1       53.0470  -26.0310  -35.3310 O.2   239  ASN239     -0.2716
      8  ND2       52.5200  -25.6340  -33.1650 N.am  239  ASN239     -0.0877
      9  N         53.9290  -28.9770  -36.3590 N.am  240  ARG240     -0.1966
     10  CA        54.2810  -29.0810  -37.7770 C.3   240  ARG240      0.1729
     11  C         54.6930  -27.7410  -38.4040 C.2   240  ARG240      0.2616
     12  O         55.5760  -27.7190  -39.2360 O.2   240  ARG240     -0.2715
     13  CB        53.0910  -29.7090  -38.5210 C.3   240  ARG240      0.0348
     14  CG        53.2800  -29.9630  -40.0110 C.3   240  ARG240      0.0492
     15  CD        51.9350  -30.3040  -40.6580 C.3   240  ARG240      0.2205
     16  NE        50.8770  -29.3640  -40.2690 N.pl3 240  ARG240     -0.0865
     17  CZ        50.6880  -28.1770  -40.8450 C.cat 240  ARG240      0.5346
     18  NH1       51.4870  -27.7790  -41.8370 N.pl3 240  ARG240      0.1354
     19  NH2       49.7110  -27.3820  -40.4290 N.pl3 240  ARG240      0.1354
     20  N         54.0570  -26.6400  -37.9820 N.am  241  THR241     -0.1951
     21  CA        54.2330  -25.3250  -38.6130 C.3   241  THR241      0.1897
     22  C         55.5290  -24.5850  -38.2550 C.2   241  THR241      0.2313
     23  O         55.8880  -23.6260  -38.9330 O.2   241  THR241     -0.2863
     24  CB        53.0490  -24.3530  -38.2870 C.3   241  THR241      0.1794
     25  OG1       53.1490  -23.8840  -36.9330 O.3   241  THR241     -0.2208
     26  CG2       51.6610  -25.0150  -38.5350 C.3   241  THR241      0.0378
     27  N         33.6840  -20.7570  -48.0020 N.3   277  GLU277     -0.1245
     28  CA        34.3840  -21.9760  -47.7320 C.3   277  GLU277      0.1567
     29  C         33.3860  -23.1310  -47.5980 C.2   277  GLU277      0.2260
     30  O         33.6100  -24.1940  -48.1520 O.2   277  GLU277     -0.2867
     31  CB        35.1970  -21.8460  -46.4530 C.3   277  GLU277      0.0388
     32  CG        35.9960  -23.0900  -46.1990 C.3   277  GLU277      0.1160
     33  CD        36.4940  -23.1950  -44.7730 C.2   277  GLU277      0.3649
     34  OE1       35.7510  -22.8200  -43.8330 O.co2 277  GLU277     -0.2457
     35  OE2       37.6170  -23.7020  -44.6190 O.co2 277  GLU277     -0.2457
     36  N         42.6530  -20.5280  -47.5390 N.3   299  TRP299     -0.1241
     37  CA        43.3030  -21.7880  -47.9700 C.3   299  TRP299      0.1605
     38  C         44.5580  -21.5410  -48.8080 C.2   299  TRP299      0.2264
     39  O         45.2120  -22.4960  -49.2400 O.2   299  TRP299     -0.2867
     40  CB        42.3200  -22.7420  -48.7030 C.3   299  TRP299      0.0550
     41  CG        41.4910  -23.4890  -47.7140 C.ar  299  TRP299      0.0003
     42  CD1       40.2180  -23.1870  -47.3050 C.ar  299  TRP299      0.0946
     43  CD2       41.9250  -24.5970  -46.8980 C.ar  299  TRP299      0.0152
     44  NE1       39.8350  -24.0410  -46.3030 N.ar  299  TRP299     -0.2442
     45  CE2       40.8580  -24.9170  -46.0320 C.ar  299  TRP299      0.0810
     46  CE3       43.1160  -25.3470  -46.8230 C.ar  299  TRP299      0.0012
     47  CZ2       40.9270  -25.9790  -45.1020 C.ar  299  TRP299      0.0191
     48  CZ3       43.1840  -26.4200  -45.9030 C.ar  299  TRP299      0.0001
     49  CH2       42.0920  -26.7140  -45.0520 C.ar  299  TRP299      0.0015
     50  N         38.3850  -32.0670  -47.8290 N.3   325  TYR325     -0.1241
     51  CA        36.9520  -32.1150  -47.4690 C.3   325  TYR325      0.1605
     52  C         35.9370  -32.3080  -48.6210 C.2   325  TYR325      0.2264
     53  O         35.1910  -33.2920  -48.6450 O.2   325  TYR325     -0.2867
     54  CB        36.5630  -30.8700  -46.6550 C.3   325  TYR325      0.0534
     55  CG        37.5160  -30.5090  -45.5340 C.ar  325  TYR325     -0.0201
     56  CD1       37.3180  -30.9820  -44.2170 C.ar  325  TYR325     -0.0009
     57  CD2       38.5840  -29.6570  -45.7730 C.ar  325  TYR325     -0.0009
     58  CE1       38.1660  -30.6020  -43.1940 C.ar  325  TYR325      0.0417
     59  CE2       39.4510  -29.2750  -44.7580 C.ar  325  TYR325      0.0417
     60  CZ        39.2460  -29.7370  -43.4850 C.ar  325  TYR325      0.1957
     61  OH        40.1530  -29.3350  -42.5240 O.3   325  TYR325     -0.2866
     62  N         46.7100  -30.8070  -46.4720 N.3   382  LEU382     -0.1231
     63  CA        46.4310  -30.6880  -45.0570 C.3   382  LEU382      0.1678
     64  C         45.2440  -31.5880  -44.7350 C.2   382  LEU382      0.2434
     65  O         44.0900  -31.2520  -45.0870 O.2   382  LEU382     -0.2733
     66  CB        46.0780  -29.2520  -44.6820 C.3   382  LEU382      0.0284
     67  CG        46.0430  -28.9450  -43.1860 C.3   382  LEU382      0.0019
     68  CD1       47.4500  -29.0740  -42.5520 C.3   382  LEU382      0.0001
     69  CD2       45.4490  -27.5180  -42.9600 C.3   382  LEU382      0.0001
     70  N         45.5150  -32.7230  -44.0680 N.am  383  PRO383     -0.2729
     71  CA        44.5030  -33.6560  -43.6210 C.3   383  PRO383      0.1401
     72  C         43.4320  -32.9070  -42.8520 C.2   383  PRO383      0.2269
     73  O         43.7460  -31.9560  -42.1650 O.2   383  PRO383     -0.2865
     74  CB        45.2840  -34.5800  -42.6840 C.3   383  PRO383      0.0296
     75  CG        46.6180  -34.6020  -43.2470 C.3   383  PRO383      0.0237
     76  CD        46.8660  -33.2180  -43.7950 C.3   383  PRO383      0.0939
     77  N         40.9820  -31.1080  -40.4200 N.3   385  CYS385     -0.1221
     78  CA        40.9220  -30.8090  -38.9930 C.3   385  CYS385      0.1808
     79  C         39.5810  -31.1800  -38.3980 C.2   385  CYS385      0.2601
     80  O         39.5170  -31.8700  -37.3910 O.2   385  CYS385     -0.2717
     81  CB        41.1970  -29.3310  -38.7400 C.3   385  CYS385      0.0970
     82  SG        42.8510  -28.8390  -39.3070 S.3   385  CYS385     -0.0800
     83  N         38.5110  -30.6930  -39.0040 N.am  386  HIS386     -0.1975
     84  CA        37.1800  -31.1630  -38.6750 C.3   386  HIS386      0.1656
     85  C         36.9900  -32.4060  -39.5240 C.2   386  HIS386      0.2291
     86  O         36.6120  -32.3230  -40.6860 O.2   386  HIS386     -0.2864
     87  CB        36.1040  -30.0990  -38.9310 C.3   386  HIS386      0.0771
     88  CG        36.2900  -29.2990  -40.1760 C.ar  386  HIS386      0.0820
     89  ND1       35.5200  -29.4970  -41.3100 N.ar  386  HIS386     -0.2267
     90  CD2       37.1200  -28.2640  -40.4590 C.ar  386  HIS386      0.1154
     91  CE1       35.8840  -28.6330  -42.2430 C.ar  386  HIS386      0.1986
     92  NE2       36.8520  -27.8740  -41.7520 N.ar  386  HIS386     -0.2212
     93  N         36.9610  -32.3400  -34.0030 N.3   404  GLN404     -0.1231
     94  CA        38.0770  -31.5820  -34.6000 C.3   404  GLN404      0.1698
     95  C         39.4130  -32.0440  -34.0080 C.2   404  GLN404      0.2592
     96  O         39.6830  -31.7970  -32.8510 O.2   404  GLN404     -0.2718
     97  CB        37.8790  -30.0940  -34.3700 C.3   404  GLN404      0.0381
     98  CG        38.7530  -29.2160  -35.2960 C.3   404  GLN404      0.0905
     99  CD        38.4210  -27.7340  -35.2100 C.2   404  GLN404      0.2608
    100  OE1       37.3050  -27.3540  -34.8500 O.2   404  GLN404     -0.2717
    101  NE2       39.3840  -26.8910  -35.5720 N.am  404  GLN404     -0.0878
    102  N         40.2470  -32.7140  -34.8040 N.am  405  ARG405     -0.1966
    103  CA        41.4930  -33.2840  -34.3090 C.3   405  ARG405      0.1729
    104  C         42.4880  -32.2260  -33.8410 C.2   405  ARG405      0.2616
    105  O         43.3070  -32.4590  -32.9550 O.2   405  ARG405     -0.2715
    106  CB        42.1780  -34.1580  -35.3590 C.3   405  ARG405      0.0348
    107  CG        42.5010  -33.4360  -36.6580 C.3   405  ARG405      0.0492
    108  CD        43.4320  -34.2510  -37.5520 C.3   405  ARG405      0.2205
    109  NE        43.8070  -33.3600  -38.6510 N.pl3 405  ARG405     -0.0865
    110  CZ        44.8500  -32.5340  -38.6200 C.cat 405  ARG405      0.5346
    111  NH1       45.6440  -32.5110  -37.5600 N.pl3 405  ARG405      0.1354
    112  NH2       45.0910  -31.7270  -39.6440 N.pl3 405  ARG405      0.1354
    113  N         42.4260  -31.0640  -34.4610 N.am  406  SER406     -0.1950
    114  CA        43.4360  -30.0780  -34.2260 C.3   406  SER406      0.1924
    115  C         42.7580  -28.7330  -34.3740 C.2   406  SER406      0.2314
    116  O         42.1310  -28.4750  -35.3980 O.2   406  SER406     -0.2863
    117  CB        44.5760  -30.2600  -35.2370 C.3   406  SER406      0.2116
    118  OG        45.5330  -29.2460  -35.0320 O.3   406  SER406     -0.2180
    119  N         43.0620  -24.6450  -34.0430 N.3   408  ASP408     -0.1239
    120  CA        43.7220  -23.3370  -33.9810 C.3   408  ASP408      0.1674
    121  C         42.6810  -22.4320  -33.3500 C.2   408  ASP408      0.2266
    122  O         41.8390  -21.9040  -34.0510 O.2   408  ASP408     -0.2867
    123  CB        44.0740  -22.8370  -35.3890 C.3   408  ASP408      0.1410
    124  CG        44.7180  -21.4290  -35.3950 C.2   408  ASP408      0.3668
    125  OD1       44.4880  -20.6310  -34.4630 O.co2 408  ASP408     -0.2456
    126  OD2       45.4560  -21.1220  -36.3550 O.co2 408  ASP408     -0.2456
    127  N         40.9540  -20.6940  -36.6330 N.3   412  GLY412     -0.1225
    128  CA        40.0740  -21.6360  -37.2810 C.3   412  GLY412      0.1811
    129  C         38.8650  -21.9920  -36.4900 C.2   412  GLY412      0.2280
    130  O         37.7670  -22.0780  -37.0510 O.2   412  GLY412     -0.2866
    131  N         35.1400  -22.7510  -37.7770 N.3   416  ASN416     -0.1240
    132  CA        34.5050  -24.0970  -37.6210 C.3   416  ASN416      0.1653
    133  C         33.1840  -24.0110  -36.8580 C.2   416  ASN416      0.2266
    134  O         32.2190  -24.6190  -37.2700 O.2   416  ASN416     -0.2867
    135  CB        35.4740  -25.0760  -36.9080 C.3   416  ASN416      0.1155
    136  CG        36.8630  -25.1480  -37.6030 C.2   416  ASN416      0.2627
    137  OD1       37.9250  -25.0310  -36.9620 O.2   416  ASN416     -0.2716
    138  ND2       36.8440  -25.2810  -38.9250 N.am  416  ASN416     -0.0877
    139  N         44.7310  -25.4970  -29.1930 N.3   446  HIS446     -0.1241
    140  CA        45.9750  -24.7750  -28.9610 C.3   446  HIS446      0.1621
    141  C         45.9010  -23.3410  -29.4020 C.2   446  HIS446      0.2264
    142  O         45.0490  -22.9520  -30.2090 O.2   446  HIS446     -0.2867
    143  CB        47.1260  -25.4450  -29.7090 C.3   446  HIS446      0.0745
    144  CG        46.8140  -25.7480  -31.1380 C.ar  446  HIS446      0.0817
    145  ND1       46.3670  -26.9870  -31.5580 N.ar  446  HIS446     -0.2268
    146  CD2       46.8750  -24.9760  -32.2440 C.ar  446  HIS446      0.1154
    147  CE1       46.1810  -26.9680  -32.8650 C.ar  446  HIS446      0.1986
    148  NE2       46.4720  -25.7560  -33.3060 N.ar  446  HIS446     -0.2212
    149  N         48.5910  -20.5010  -30.8880 N.3   448  TYR448     -0.1241
    150  CA        49.9240  -20.1710  -31.3640 C.3   448  TYR448      0.1605
    151  C         50.4840  -19.0050  -30.5600 C.2   448  TYR448      0.2264
    152  O         49.7180  -18.1380  -30.0910 O.2   448  TYR448     -0.2867
    153  CB        49.9130  -19.9080  -32.8690 C.3   448  TYR448      0.0534
    154  CG        49.6330  -21.1630  -33.6950 C.ar  448  TYR448     -0.0201
    155  CD1       50.6600  -22.0700  -33.9970 C.ar  448  TYR448     -0.0009
    156  CD2       48.3400  -21.4500  -34.1610 C.ar  448  TYR448     -0.0009
    157  CE1       50.4140  -23.2250  -34.7620 C.ar  448  TYR448      0.0417
    158  CE2       48.0790  -22.6050  -34.9390 C.ar  448  TYR448      0.0417
    159  CZ        49.1200  -23.4900  -35.2330 C.ar  448  TYR448      0.1957
    160  OH        48.8880  -24.6420  -35.9920 O.3   448  TYR448     -0.2866
    161  N         49.6710  -19.7340  -39.3230 N.3   502  SER502     -0.1217
    162  CA        50.8810  -20.5300  -39.4570 C.3   502  SER502      0.1889
    163  C         50.5920  -21.7070  -40.3800 C.2   502  SER502      0.2288
    164  O         49.6770  -22.5350  -40.1170 O.2   502  SER502     -0.2866
    165  CB        51.3510  -20.9820  -38.0830 C.3   502  SER502      0.2089
    166  OG        51.7390  -19.8600  -37.2900 O.3   502  SER502     -0.2183
@<TRIPOS>BOND
     1    39    38    2
     2    38    37    1
     3    40    37    1
     4    40    41    1
     5    53    52    2
     6    52    51    1
     7    30    29    2
     8    27    28    1
     9    37    36    1
    10    50    51    1
    11    28    29    1
    12    28    31    1
    13    41    42   ar
    14    41    43   ar
    15    51    54    1
    16    42    44   ar
    17    43    46   ar
    18    43    45   ar
    19    46    48   ar
    20    54    55    1
    21    62    63    1
    22    31    32    1
    23    44    45   ar
    24    32    33    1
    25    45    47   ar
    26    48    49   ar
    27    57    55   ar
    28    57    59   ar
    29    55    56   ar
    30    47    49   ar
    31    65    64    2
    32    63    64    1
    33    63    66    1
    34    33    35   ar
    35    33    34   ar
    36    59    60   ar
    37    64    70   am
    38    66    67    1
    39    56    58   ar
    40    70    76    1
    41    70    71    1
    42    76    75    1
    43    71    72    1
    44    71    74    1
    45    60    58   ar
    46    60    61    1
    47    75    74    1
    48    67    69    1
    49    67    68    1
    50    72    73    2
    51    91    92   ar
    52    91    89   ar
    53    18    17    1
    54    92    90   ar
    55    89    88   ar
    56    17    19    1
    57    17    16    2
    58    86    85    2
    59    15    16    1
    60    15    14    1
    61    90    88   ar
    62    77    78    1
    63   163   164    2
    64   163   162    1
    65    88    87    1
    66    14    13    1
    67   112   110    1
    68    85    84    1
    69   162   161    1
    70   162   165    1
    71    82    81    1
    72    12    11    2
    73    83    84    1
    74    83    79   am
    75    78    81    1
    76    78    79    1
    77    23    22    2
    78    87    84    1
    79   138   136   am
    80   109   110    2
    81   109   108    1
    82   110   111    1
    83    21    24    1
    84    21    22    1
    85    21    20    1
    86    26    24    1
    87    13    10    1
    88    11    20   am
    89    11    10    1
    90    79    80    2
    91    24    25    1
    92   165   166    1
    93   131   132    1
    94    10     9    1
    95   132   135    1
    96   132   133    1
    97   136   137    2
    98   136   135    1
    99   108   107    1
   100   128   127    1
   101   128   129    1
   102   134   133    2
   103   130   129    2
   104   107   106    1
   105     9     3   am
   106   126   124   ar
   107   160   159    1
   108     4     3    2
   109   101    99   am
   110     3     2    1
   111   116   115    2
   112   124   123    1
   113   124   125   ar
   114   123   120    1
   115   106   103    1
   116     7     6    2
   117    98    99    1
   118    98    97    1
   119   117   118    1
   120   117   114    1
   121   159   158   ar
   122   159   157   ar
   123    99   100    2
   124   158   156   ar
   125   102   103    1
   126   102    95   am
   127   157   155   ar
   128    94    97    1
   129    94    95    1
   130    94    93    1
   131   113   114    1
   132   113   104   am
   133   115   114    1
   134   103   104    1
   135     6     5    1
   136     6     8   am
   137   156   154   ar
   138   122   121    2
   139   119   120    1
   140     2     5    1
   141     2     1    1
   142    95    96    2
   143   155   154   ar
   144   120   121    1
   145   104   105    2
   146   154   153    1
   147   148   147   ar
   148   148   146   ar
   149   153   150    1
   150   147   145   ar
   151   146   144   ar
   152   145   144   ar
   153   150   149    1
   154   150   151    1
   155   144   143    1
   156   151   152    2
   157   142   141    2
   158   143   140    1
   159   141   140    1
   160   139   140    1
