@<TRIPOS>MOLECULE
tmp/3k2pB00.pdb
 77 71 0 0 0
SMALL
GASTEIGER

@<TRIPOS>ATOM
      1  N         12.2320   38.8060   -0.7190 N.3    17  ASP17      -0.1225
      2  CA        11.5920   38.3630   -1.9740 C.3    17  ASP17       0.1805
      3  C         12.5610   38.1880   -3.1440 C.2    17  ASP17       0.2595
      4  O         13.7280   38.6550   -3.1160 O.2    17  ASP17      -0.2718
      5  CB        10.4340   39.2170   -2.3610 C.3    17  ASP17       0.1424
      6  CG         9.4540   38.4460   -3.1930 C.2    17  ASP17       0.3668
      7  OD1        9.6110   37.2110   -3.3600 O.co2  17  ASP17      -0.2456
      8  OD2        8.5390   39.0800   -3.6800 O.co2  17  ASP17      -0.2456
      9  N         12.1500   37.3590   -4.1200 N.am   18  GLY18      -0.2014
     10  CA        12.7540   37.3350   -5.4400 C.3    18  GLY18       0.1506
     11  C         11.7090   37.4100   -6.5720 C.3    18  GLY18       0.2054
     12  O         10.4440   37.2810   -6.3840 O.3    18  GLY18      -0.2184
     13  N         12.6730   31.6920  -10.1280 N.3    48  ASN48      -0.1240
     14  CA        12.0900   32.3120   -8.9920 C.3    48  ASN48       0.1653
     15  C         12.5590   31.7120   -7.6440 C.2    48  ASN48       0.2266
     16  O         12.6250   32.4480   -6.6670 O.2    48  ASN48      -0.2867
     17  CB        10.5280   32.4180   -9.0410 C.3    48  ASN48       0.1155
     18  CG         9.9800   33.4330  -10.1260 C.2    48  ASN48       0.2627
     19  OD1        9.8730   33.0520  -11.3010 O.2    48  ASN48      -0.2716
     20  ND2        9.5880   34.6980   -9.7190 N.am   48  ASN48      -0.0877
     21  N         14.5680   33.3410   -4.4050 N.3    52  GLU52      -0.1245
     22  CA        13.9290   33.4770   -3.1110 C.3    52  GLU52       0.1567
     23  C         14.9650   33.0790   -2.0930 C.2    52  GLU52       0.2260
     24  O         15.0650   33.6670   -1.0090 O.2    52  GLU52      -0.2867
     25  CB        12.6740   32.5680   -3.0530 C.3    52  GLU52       0.0388
     26  CG        11.4980   32.9490   -4.0000 C.3    52  GLU52       0.1160
     27  CD        10.6430   34.0310   -3.4150 C.2    52  GLU52       0.3649
     28  OE1       10.9960   34.4810   -2.3090 O.co2  52  GLU52      -0.2457
     29  OE2        9.6420   34.4490   -4.0360 O.co2  52  GLU52      -0.2457
     30  N          7.7500   34.7530    1.4350 N.3    72  ASP72      -0.1225
     31  CA         6.5120   34.1150    0.9080 C.3    72  ASP72       0.1805
     32  C          6.8020   32.8430    0.1110 C.2    72  ASP72       0.2598
     33  O          5.9290   32.3070   -0.5350 O.2    72  ASP72      -0.2718
     34  CB         5.6920   35.0560    0.0520 C.3    72  ASP72       0.1424
     35  CG         6.4480   35.5550   -1.1160 C.2    72  ASP72       0.3668
     36  OD1        7.2770   34.8100   -1.7460 O.co2  72  ASP72      -0.2456
     37  OD2        6.1800   36.7250   -1.3800 O.co2  72  ASP72      -0.2456
     38  N          8.0260   32.3770    0.1680 N.am   73  SER73      -0.1952
     39  CA         8.4550   31.1410   -0.5270 C.3    73  SER73       0.1924
     40  C          8.3480   29.8850    0.3560 C.2    73  SER73       0.2314
     41  O          9.1160   29.6600    1.2970 O.2    73  SER73      -0.2863
     42  CB         9.8730   31.3930   -1.0590 C.3    73  SER73       0.2116
     43  OG        10.5140   30.2400   -1.5350 O.3    73  SER73      -0.2180
     44  N          2.2240   35.5370   -0.5360 N.3   112  ALA112     -0.1231
     45  CA         2.4420   36.6040   -1.5220 C.3   112  ALA112      0.1694
     46  C          1.1800   37.3270   -1.9520 C.2   112  ALA112      0.2592
     47  O          0.1110   36.7290   -2.1390 O.2   112  ALA112     -0.2718
     48  CB         3.2240   36.0720   -2.7630 C.3   112  ALA112      0.0304
     49  N          1.2890   38.6220   -2.0640 N.am  113  HIS113     -0.1976
     50  CA         0.2580   39.4680   -2.6720 C.3   113  HIS113      0.1656
     51  C         -1.0470   39.4560   -1.9260 C.2   113  HIS113      0.2291
     52  O         -2.1150   39.4680   -2.5260 O.2   113  HIS113     -0.2864
     53  CB         0.0580   39.1560   -4.1760 C.3   113  HIS113      0.0771
     54  CG         1.3060   39.2530   -4.9820 C.ar  113  HIS113      0.0820
     55  ND1        1.8090   40.4560   -5.3990 N.ar  113  HIS113     -0.2267
     56  CD2        2.1540   38.3160   -5.4480 C.ar  113  HIS113      0.1154
     57  CE1        2.9120   40.2740   -6.0900 C.ar  113  HIS113      0.1986
     58  NE2        3.1880   38.9820   -6.0910 N.ar  113  HIS113     -0.2212
     59  N          8.3410   42.9930   -2.6470 N.3   123  ASP123     -0.1239
     60  CA         7.9010   42.4310   -3.9150 C.3   123  ASP123      0.1674
     61  C          8.0260   43.5500   -5.0360 C.2   123  ASP123      0.2266
     62  O          8.6610   43.3180   -6.0680 O.2   123  ASP123     -0.2867
     63  CB         6.4480   41.9700   -3.7520 C.3   123  ASP123      0.1410
     64  CG         5.7880   41.6550   -5.0750 C.2   123  ASP123      0.3668
     65  OD1        4.9760   42.4470   -5.5260 O.co2 123  ASP123     -0.2456
     66  OD2        6.0920   40.6430   -5.6970 O.co2 123  ASP123     -0.2456
     67  N          9.1040   41.6420  -13.9120 N.3   131  ARG131     -0.1245
     68  CA         7.7250   41.4570  -14.4030 C.3   131  ARG131      0.1563
     69  C          7.3010   42.6720  -15.2250 C.2   131  ARG131      0.2260
     70  O          7.8440   43.7550  -15.0210 O.2   131  ARG131     -0.2867
     71  CB         6.7210   41.2310  -13.2650 C.3   131  ARG131      0.0307
     72  CG         6.8790   39.8620  -12.6570 C.3   131  ARG131      0.0489
     73  CD         5.6140   39.4100  -11.9460 C.3   131  ARG131      0.2205
     74  NE         5.7910   39.1500  -10.5060 N.pl3 131  ARG131     -0.0865
     75  CZ         5.3880   39.9650   -9.5260 C.cat 131  ARG131      0.5346
     76  NH1        4.8010   41.1400   -9.7910 N.pl3 131  ARG131      0.1354
     77  NH2        5.5760   39.6100   -8.2790 N.pl3 131  ARG131      0.1354
@<TRIPOS>BOND
     1    69    70    2
     2    69    68    1
     3    68    67    1
     4    68    71    1
     5    71    72    1
     6    72    73    1
     7    73    74    1
     8    19    18    2
     9    74    75    2
    10    13    14    1
    11    18    20   am
    12    18    17    1
    13    76    75    1
    14    75    77    1
    15    17    14    1
    16    14    15    1
    17    15    16    2
    18    11    12    1
    19    11    10    1
    20    58    57   ar
    21    58    56   ar
    22    57    55   ar
    23    62    61    2
    24    66    64   ar
    25    65    64   ar
    26    56    54   ar
    27    10     9    1
    28    55    54   ar
    29    64    63    1
    30    61    60    1
    31    54    53    1
    32    21    22    1
    33    53    50    1
    34     9     3   am
    35    29    27   ar
    36    26    27    1
    37    26    25    1
    38    60    63    1
    39    60    59    1
    40     8     6   ar
    41    27    28   ar
    42     7     6   ar
    43     6     5    1
    44     3     4    2
    45     3     2    1
    46    22    25    1
    47    22    23    1
    48    48    45    1
    49    50    49    1
    50    50    51    1
    51    52    51    2
    52     5     2    1
    53    47    46    2
    54    23    24    2
    55    49    46   am
    56     2     1    1
    57    46    45    1
    58    36    35   ar
    59    43    42    1
    60    45    44    1
    61    37    35   ar
    62    35    34    1
    63    42    39    1
    64    33    32    2
    65    39    38    1
    66    39    40    1
    67    34    31    1
    68    32    38   am
    69    32    31    1
    70    40    41    2
    71    31    30    1
