@<TRIPOS>MOLECULE
tmp/3k2sB21.pdb
 90 89 0 0 0
SMALL
GASTEIGER

@<TRIPOS>ATOM
      1  N         71.8800  154.8700   61.2600 N.3    57  PHE57      -0.1241
      2  CA        72.1000  153.4900   61.7400 C.3    57  PHE57       0.1605
      3  C         72.6500  153.4300   63.1800 C.2    57  PHE57       0.2264
      4  O         72.1800  152.6300   63.9900 O.2    57  PHE57      -0.2867
      5  CB        73.0200  152.7400   60.7500 C.3    57  PHE57       0.0534
      6  CG        72.3600  152.1100   59.5200 C.ar   57  PHE57      -0.0203
      7  CD1       70.9600  152.1200   59.3100 C.ar   57  PHE57      -0.0042
      8  CD2       73.1800  151.4300   58.5900 C.ar   57  PHE57      -0.0042
      9  CE1       70.3900  151.4000   58.2400 C.ar   57  PHE57      -0.0003
     10  CE2       72.6100  150.7500   57.5000 C.ar   57  PHE57      -0.0003
     11  CZ        71.2200  150.7000   57.3500 C.ar   57  PHE57      -0.0000
     12  N         69.4900  154.8900   65.2400 N.3    60  LEU60      -0.1231
     13  CA        68.5900  153.7400   65.4000 C.3    60  LEU60       0.1693
     14  C         69.0500  152.8200   66.5500 C.2    60  LEU60       0.2591
     15  O         68.3400  152.7300   67.5400 O.2    60  LEU60      -0.2718
     16  CB        68.4500  152.9500   64.0700 C.3    60  LEU60       0.0284
     17  CG        67.4200  153.5800   63.1000 C.3    60  LEU60       0.0019
     18  CD1       67.6600  153.0700   61.6700 C.3    60  LEU60       0.0001
     19  CD2       65.9700  153.3000   63.5200 C.3    60  LEU60       0.0001
     20  N         70.2400  152.2200   66.4700 N.am   61  ARG61      -0.1980
     21  CA        70.7700  151.3000   67.5000 C.3    61  ARG61       0.1597
     22  C         71.0700  151.9600   68.8800 C.2    61  ARG61       0.2287
     23  O         71.2100  151.2600   69.8800 O.2    61  ARG61      -0.2864
     24  CB        71.9900  150.5600   66.8900 C.3    61  ARG61       0.0334
     25  CG        73.4000  151.1600   67.1000 C.3    61  ARG61       0.0492
     26  CD        74.1800  150.4700   68.2300 C.3    61  ARG61       0.2205
     27  NE        75.2900  151.2900   68.7200 N.pl3  61  ARG61      -0.0865
     28  CZ        76.1700  150.9700   69.6400 C.cat  61  ARG61       0.5346
     29  NH1       76.1800  149.7700   70.1900 N.pl3  61  ARG61       0.1354
     30  NH2       77.0200  151.8900   70.0200 N.pl3  61  ARG61       0.1354
     31  N         66.9200  152.9200   69.8600 N.3    64  LEU64      -0.1231
     32  CA        66.6100  151.5100   70.1100 C.3    64  LEU64       0.1693
     33  C         67.8400  150.8300   70.7800 C.2    64  LEU64       0.2592
     34  O         68.2400  149.7200   70.4200 O.2    64  LEU64      -0.2718
     35  CB        66.2400  150.8200   68.7700 C.3    64  LEU64       0.0284
     36  CG        65.2500  151.5900   67.8700 C.3    64  LEU64       0.0019
     37  CD1       65.1100  150.8900   66.5200 C.3    64  LEU64       0.0001
     38  CD2       63.8800  151.7800   68.5200 C.3    64  LEU64       0.0001
     39  N         68.4100  151.5200   71.7700 N.am   65  GLY65      -0.1957
     40  CA        69.4800  151.1400   72.7000 C.3    65  GLY65       0.1869
     41  C         68.9300  151.2400   74.1400 C.2    65  GLY65       0.2309
     42  O         68.8500  150.2100   74.8100 O.2    65  GLY65      -0.2863
     43  N         65.6600  151.9800   74.2200 N.3    67  VAL67      -0.1231
     44  CA        64.4000  151.2600   73.9000 C.3    67  VAL67       0.1692
     45  C         64.6600  149.9400   73.1100 C.2    67  VAL67       0.2593
     46  O         63.7600  149.3400   72.5300 O.2    67  VAL67      -0.2718
     47  CB        63.2400  152.2000   73.4700 C.3    67  VAL67       0.0266
     48  CG1       63.2200  152.5400   71.9700 C.3    67  VAL67       0.0020
     49  CG2       61.8600  151.6400   73.8700 C.3    67  VAL67       0.0020
     50  N         65.9000  149.4700   73.2200 N.am   68  THR68      -0.1939
     51  CA        66.2500  148.0800   73.5700 C.3    68  THR68       0.2028
     52  C         66.4100  148.0800   75.1200 C.2    68  THR68       0.2642
     53  O         66.2100  149.1200   75.7500 O.2    68  THR68      -0.2714
     54  CB        67.6100  147.7400   72.8900 C.3    68  THR68       0.1808
     55  OG1       67.3200  147.5300   71.5400 O.3    68  THR68      -0.2208
     56  CG2       68.3600  146.4600   73.3000 C.3    68  THR68       0.0379
     57  N         66.7200  146.9500   75.7700 N.am   69  GLN69      -0.1976
     58  CA        67.0900  146.8400   77.1900 C.3    69  GLN69       0.1601
     59  C         65.9600  147.0300   78.2100 C.2    69  GLN69       0.2287
     60  O         65.8900  146.3000   79.2000 O.2    69  GLN69      -0.2864
     61  CB        68.2900  147.7400   77.5800 C.3    69  GLN69       0.0394
     62  CG        69.6700  147.1900   77.1700 C.3    69  GLN69       0.0908
     63  CD        70.8300  147.7300   78.0000 C.2    69  GLN69       0.2608
     64  OE1       71.9200  147.1700   77.9500 O.2    69  GLN69      -0.2717
     65  NE2       70.6600  148.7900   78.7800 N.am   69  GLN69      -0.0878
     66  N         62.3300  147.8600   78.0600 N.3    71  PHE71      -0.1227
     67  CA        61.0900  147.9600   77.2700 C.3    71  PHE71       0.1736
     68  C         60.0800  146.8000   77.3100 C.2    71  PHE71       0.2595
     69  O         58.8900  147.1000   77.3900 O.2    71  PHE71      -0.2718
     70  CB        61.3900  148.4700   75.8400 C.3    71  PHE71       0.0547
     71  CG        61.9500  147.4500   74.8700 C.ar   71  PHE71      -0.0202
     72  CD1       63.0700  146.6700   75.2000 C.ar   71  PHE71      -0.0042
     73  CD2       61.3400  147.2800   73.6000 C.ar   71  PHE71      -0.0042
     74  CE1       63.5700  145.7200   74.3000 C.ar   71  PHE71      -0.0003
     75  CE2       61.8600  146.3400   72.6900 C.ar   71  PHE71      -0.0003
     76  CZ        62.9700  145.5500   73.0400 C.ar   71  PHE71      -0.0000
     77  N         60.4500  145.4900   77.3300 N.am   72  TRP72      -0.1976
     78  CA        59.4300  144.4000   77.4000 C.3    72  TRP72       0.1640
     79  C         58.6900  144.2700   78.7700 C.2    72  TRP72       0.2290
     80  O         58.2000  143.2000   79.1200 O.2    72  TRP72      -0.2864
     81  CB        59.9500  143.0000   76.9700 C.3    72  TRP72       0.0576
     82  CG        61.1600  142.7600   76.1100 C.ar   72  TRP72       0.0006
     83  CD1       62.3200  142.2700   76.5900 C.ar   72  TRP72       0.0946
     84  CD2       61.2400  142.6200   74.6600 C.ar   72  TRP72       0.0152
     85  NE1       63.1000  141.8200   75.5500 N.ar   72  TRP72      -0.2442
     86  CE2       62.4600  141.9400   74.3400 C.ar   72  TRP72       0.0810
     87  CE3       60.3600  142.8600   73.5800 C.ar   72  TRP72       0.0012
     88  CZ2       62.7800  141.5100   73.0500 C.ar   72  TRP72       0.0191
     89  CZ3       60.6700  142.4300   72.2800 C.ar   72  TRP72       0.0001
     90  CH2       61.8700  141.7600   72.0000 C.ar   72  TRP72       0.0015
@<TRIPOS>BOND
     1    11    10   ar
     2    11     9   ar
     3    10     8   ar
     4     9     7   ar
     5     8     6   ar
     6     7     6   ar
     7     6     5    1
     8     5     2    1
     9     1     2    1
    10    18    17    1
    11     2     3    1
    12    17    19    1
    13    17    16    1
    14     3     4    2
    15    16    13    1
    16    12    13    1
    17    13    14    1
    18    20    14   am
    19    20    21    1
    20    37    36    1
    21    14    15    2
    22    24    25    1
    23    24    21    1
    24    25    26    1
    25    21    22    1
    26    36    38    1
    27    36    35    1
    28    26    27    1
    29    27    28    2
    30    35    32    1
    31    22    23    2
    32    28    30    1
    33    28    29    1
    34    31    32    1
    35    32    33    1
    36    34    33    2
    37    33    39   am
    38    55    54    1
    39    39    40    1
    40    48    47    1
    41    90    89   ar
    42    90    88   ar
    43    89    87   ar
    44    46    45    2
    45    75    76   ar
    46    75    73   ar
    47    40    41    1
    48    54    56    1
    49    54    51    1
    50    76    74   ar
    51    88    86   ar
    52    45    50   am
    53    45    44    1
    54    50    51    1
    55    47    49    1
    56    47    44    1
    57    51    52    1
    58    87    84   ar
    59    73    71   ar
    60    44    43    1
    61    41    42    2
    62    74    72   ar
    63    86    84   ar
    64    86    85   ar
    65    84    82   ar
    66    71    72   ar
    67    71    70    1
    68    52    53    2
    69    52    57   am
    70    85    83   ar
    71    57    58    1
    72    70    67    1
    73    82    83   ar
    74    82    81    1
    75    81    78    1
    76    62    61    1
    77    62    63    1
    78    58    61    1
    79    58    59    1
    80    67    68    1
    81    67    66    1
    82    68    77   am
    83    68    69    2
    84    77    78    1
    85    78    79    1
    86    64    63    2
    87    63    65   am
    88    59    60    2
    89    79    80    2
