@<TRIPOS>MOLECULE
tmp/3k2sB25.pdb
 109 104 0 0 0
SMALL
GASTEIGER

@<TRIPOS>ATOM
      1  N         73.2400   46.0000   71.0600 N.3   189  LEU189     -0.1245
      2  CA        72.3200   45.1700   70.2700 C.3   189  LEU189      0.1561
      3  C         72.5400   43.6500   70.5100 C.2   189  LEU189      0.2260
      4  O         71.5700   42.9100   70.6700 O.2   189  LEU189     -0.2867
      5  CB        72.4800   45.6300   68.8000 C.3   189  LEU189      0.0270
      6  CG        72.0100   44.7200   67.6500 C.3   189  LEU189      0.0019
      7  CD1       71.4300   45.5700   66.5100 C.3   189  LEU189      0.0001
      8  CD2       73.1900   43.8900   67.1000 C.3   189  LEU189      0.0001
      9  N         58.4700   27.4000   62.2400 N.3   221  VAL221     -0.1245
     10  CA        59.7300   27.9900   62.7000 C.3   221  VAL221      0.1561
     11  C         60.9300   27.0300   62.4700 C.2   221  VAL221      0.2260
     12  O         62.0300   27.5200   62.2500 O.2   221  VAL221     -0.2867
     13  CB        59.5900   28.3900   64.2000 C.3   221  VAL221      0.0252
     14  CG1       60.8700   29.0200   64.7900 C.3   221  VAL221      0.0019
     15  CG2       58.4100   29.3500   64.4000 C.3   221  VAL221      0.0019
     16  N         61.3900   26.8600   57.9700 N.3   224  SER224     -0.1202
     17  CA        62.0600   28.1200   57.5800 C.3   224  SER224      0.2020
     18  C         63.5700   28.1200   57.9200 C.2   224  SER224      0.2619
     19  O         64.4300   28.3200   57.0600 O.2   224  SER224     -0.2717
     20  CB        61.3100   29.2800   58.2600 C.3   224  SER224      0.2103
     21  OG        61.2000   29.1100   59.6600 O.3   224  SER224     -0.2182
     22  N         63.8600   27.7700   59.1700 N.am  225  PHE225     -0.1961
     23  CA        65.1100   27.2900   59.7700 C.3   225  PHE225      0.1771
     24  C         65.9200   26.2900   58.9200 C.2   225  PHE225      0.2619
     25  O         67.1200   26.4900   58.7200 O.2   225  PHE225     -0.2715
     26  CB        64.6800   26.8100   61.1700 C.3   225  PHE225      0.0574
     27  CG        65.4600   25.9300   62.1300 C.ar  225  PHE225     -0.0200
     28  CD1       65.4300   26.2700   63.5000 C.ar  225  PHE225     -0.0042
     29  CD2       65.9900   24.6700   61.7600 C.ar  225  PHE225     -0.0042
     30  CE1       65.9300   25.3900   64.4800 C.ar  225  PHE225     -0.0003
     31  CE2       66.5100   23.8000   62.7300 C.ar  225  PHE225     -0.0003
     32  CZ        66.4800   24.1500   64.0900 C.ar  225  PHE225     -0.0000
     33  N         65.2700   25.2400   58.4000 N.am  226  LYS226     -0.1977
     34  CA        65.9300   24.1300   57.7000 C.3   226  LYS226      0.1596
     35  C         66.4300   24.5000   56.2900 C.2   226  LYS226      0.2287
     36  O         67.4300   23.9500   55.8300 O.2   226  LYS226     -0.2864
     37  CB        64.9200   22.9600   57.6100 C.3   226  LYS226      0.0298
     38  CG        65.4300   21.6700   56.9400 C.3   226  LYS226      0.0038
     39  CD        66.6300   21.0100   57.6500 C.3   226  LYS226      0.0206
     40  CE        67.0300   19.6900   56.9800 C.3   226  LYS226      0.1093
     41  NZ        68.1600   19.0500   57.6500 N.3   226  LYS226     -0.1314
     42  N         67.3000   27.7700   55.3300 N.3   228  SER228     -0.1202
     43  CA        68.2300   28.8900   55.5800 C.3   228  SER228      0.2020
     44  C         69.7400   28.6900   55.2700 C.2   228  SER228      0.2618
     45  O         70.4500   29.6600   54.9800 O.2   228  SER228     -0.2717
     46  CB        68.0200   29.4500   57.0000 C.3   228  SER228      0.2103
     47  OG        68.6600   28.6700   58.0000 O.3   228  SER228     -0.2182
     48  N         70.2200   27.4400   55.2400 N.am  229  PHE229     -0.1975
     49  CA        71.5900   27.0400   54.9100 C.3   229  PHE229      0.1639
     50  C         71.8600   27.0100   53.3900 C.2   229  PHE229      0.2290
     51  O         72.9800   26.7100   52.9600 O.2   229  PHE229     -0.2864
     52  CB        71.8300   25.6100   55.4600 C.3   229  PHE229      0.0560
     53  CG        71.2700   25.3600   56.8500 C.ar  229  PHE229     -0.0200
     54  CD1       71.4300   26.3100   57.8700 C.ar  229  PHE229     -0.0042
     55  CD2       70.4800   24.2100   57.0900 C.ar  229  PHE229     -0.0042
     56  CE1       70.7800   26.1500   59.1100 C.ar  229  PHE229     -0.0003
     57  CE2       69.8500   24.0300   58.3400 C.ar  229  PHE229     -0.0003
     58  CZ        69.9900   25.0000   59.3400 C.ar  229  PHE229     -0.0000
     59  N         72.4000   29.3300   51.2800 N.3   231  SER231     -0.1217
     60  CA        73.3200   30.4400   50.9400 C.3   231  SER231      0.1889
     61  C         74.4900   30.0800   50.0100 C.2   231  SER231      0.2288
     62  O         74.7600   30.8200   49.0500 O.2   231  SER231     -0.2866
     63  CB        73.7500   31.1500   52.2500 C.3   231  SER231      0.2089
     64  OG        74.6100   30.3400   53.0400 O.3   231  SER231     -0.2183
     65  N         80.5900   27.4900   51.0900 N.3   236  TYR236     -0.1241
     66  CA        80.0000   26.5400   52.0500 C.3   236  TYR236      0.1605
     67  C         80.5700   26.5900   53.4900 C.2   236  TYR236      0.2264
     68  O         80.2800   25.6900   54.2800 O.2   236  TYR236     -0.2867
     69  CB        79.9400   25.1000   51.4700 C.3   236  TYR236      0.0534
     70  CG        79.2500   24.9700   50.1300 C.ar  236  TYR236     -0.0201
     71  CD1       77.8500   24.8100   50.0300 C.ar  236  TYR236     -0.0009
     72  CD2       80.0300   25.0200   48.9500 C.ar  236  TYR236     -0.0009
     73  CE1       77.2400   24.6900   48.7700 C.ar  236  TYR236      0.0417
     74  CE2       79.4100   24.9300   47.6900 C.ar  236  TYR236      0.0417
     75  CZ        78.0200   24.7600   47.5900 C.ar  236  TYR236      0.1957
     76  OH        77.4500   24.6500   46.3600 O.3   236  TYR236     -0.2866
     77  N         81.8300   30.1900   54.8600 N.3   238  LYS238     -0.1245
     78  CA        81.3200   31.5400   55.1300 C.3   238  LYS238      0.1561
     79  C         82.3500   32.5300   55.7200 C.2   238  LYS238      0.2260
     80  O         82.3200   33.7200   55.4200 O.2   238  LYS238     -0.2867
     81  CB        80.0200   31.5100   55.9700 C.3   238  LYS238      0.0271
     82  CG        78.9800   30.3900   55.6800 C.3   238  LYS238      0.0035
     83  CD        78.7500   29.5400   56.9400 C.3   238  LYS238      0.0206
     84  CE        77.5500   28.5900   56.9100 C.3   238  LYS238      0.1093
     85  NZ        77.0400   28.4400   58.2800 N.3   238  LYS238     -0.1314
     86  N         80.9100   32.5200   60.3600 N.3   241  ASN241     -0.1225
     87  CA        79.8900   31.4700   60.5900 C.3   241  ASN241      0.1785
     88  C         78.6800   32.0000   61.4200 C.2   241  ASN241      0.2598
     89  O         77.7900   31.2500   61.8200 O.2   241  ASN241     -0.2718
     90  CB        80.5600   30.2300   61.2200 C.3   241  ASN241      0.1169
     91  CG        79.7300   28.9400   61.0600 C.2   241  ASN241      0.2627
     92  OD1       79.3400   28.5600   59.9500 O.2   241  ASN241     -0.2716
     93  ND2       79.4200   28.2700   62.1500 N.am  241  ASN241     -0.0877
     94  N         78.5900   33.3300   61.5200 N.am  242  THR242     -0.1939
     95  CA        77.3900   34.1500   61.6900 C.3   242  THR242      0.2028
     96  C         76.7300   34.3600   60.3000 C.2   242  THR242      0.2642
     97  O         76.3300   35.4600   59.9300 O.2   242  THR242     -0.2714
     98  CB        77.8400   35.5500   62.2200 C.3   242  THR242      0.1808
     99  OG1       78.6800   35.4400   63.3500 O.3   242  THR242     -0.2208
    100  CG2       76.6800   36.4800   62.6300 C.3   242  THR242      0.0379
    101  N         76.6700   33.3100   59.4700 N.am  243  GLN243     -0.1976
    102  CA        76.1700   33.2800   58.0900 C.3   243  GLN243      0.1601
    103  C         76.0200   31.8100   57.6200 C.2   243  GLN243      0.2287
    104  O         76.2900   30.9100   58.4500 O.2   243  GLN243     -0.2864
    105  CB        77.0500   34.1500   57.1600 C.3   243  GLN243      0.0394
    106  CG        76.3000   34.8200   55.9900 C.3   243  GLN243      0.0908
    107  CD        75.5300   36.1100   56.3200 C.2   243  GLN243      0.2608
    108  OE1       74.9400   36.7200   55.4300 O.2   243  GLN243     -0.2717
    109  NE2       75.5100   36.5800   57.5600 N.am  243  GLN243     -0.0878
@<TRIPOS>BOND
     1    76    75    1
     2    75    74   ar
     3    75    73   ar
     4    74    72   ar
     5    73    71   ar
     6    72    70   ar
     7    62    61    2
     8    61    60    1
     9    71    70   ar
    10    70    69    1
    11    60    59    1
    12    60    63    1
    13    65    66    1
    14    69    66    1
    15    66    67    1
    16    63    64    1
    17    51    50    2
    18    50    49    1
    19    67    68    2
    20    77    78    1
    21    49    48    1
    22    49    52    1
    23    45    44    2
    24    78    79    1
    25    78    81    1
    26    48    44   am
    27    44    43    1
    28    42    43    1
    29    80    79    2
    30   108   107    2
    31    52    53    1
    32    43    46    1
    33    82    81    1
    34    82    83    1
    35    36    35    2
    36   106   107    1
    37   106   105    1
    38    35    34    1
    39   107   109   am
    40    53    55   ar
    41    53    54   ar
    42    84    83    1
    43    84    85    1
    44    38    37    1
    45    38    39    1
    46    40    41    1
    47    40    39    1
    48    46    47    1
    49    19    18    2
    50    55    57   ar
    51   105   102    1
    52    17    18    1
    53    17    16    1
    54    17    20    1
    55    37    34    1
    56   103   102    1
    57   103   104    2
    58    34    33    1
    59    54    56   ar
    60    18    22   am
    61   102   101    1
    62    20    21    1
    63    57    58   ar
    64    33    24   am
    65    25    24    2
    66    24    23    1
    67    56    58   ar
    68    22    23    1
    69   101    96   am
    70    23    26    1
    71    97    96    2
    72    92    91    2
    73    96    95    1
    74    86    87    1
    75    87    90    1
    76    87    88    1
    77    91    90    1
    78    91    93   am
    79    26    27    1
    80    88    94   am
    81    88    89    2
    82    94    95    1
    83    95    98    1
    84    29    27   ar
    85    29    31   ar
    86    27    28   ar
    87    98   100    1
    88    98    99    1
    89     9    10    1
    90    12    11    2
    91    11    10    1
    92    10    13    1
    93    31    32   ar
    94    28    30   ar
    95    32    30   ar
    96    13    15    1
    97    13    14    1
    98     7     6    1
    99     8     6    1
   100     6     5    1
   101     5     2    1
   102     2     3    1
   103     2     1    1
   104     3     4    2
