@<TRIPOS>MOLECULE
tmp/3k2sB07.pdb
 80 77 0 0 0
SMALL
GASTEIGER

@<TRIPOS>ATOM
      1  N         77.8400   52.2200   65.3900 N.3   182  LYS182     -0.1245
      2  CA        77.9300   50.8400   64.8800 C.3   182  LYS182      0.1561
      3  C         78.7000   49.8700   65.8200 C.2   182  LYS182      0.2260
      4  O         78.3600   48.6900   65.8500 O.2   182  LYS182     -0.2867
      5  CB        78.5200   50.8300   63.4500 C.3   182  LYS182      0.0271
      6  CG        78.3300   49.5000   62.6900 C.3   182  LYS182      0.0035
      7  CD        78.6200   49.6200   61.1800 C.3   182  LYS182      0.0206
      8  CE        78.4100   48.2900   60.4200 C.3   182  LYS182      0.1093
      9  NZ        78.6300   48.4500   58.9700 N.3   182  LYS182     -0.1314
     10  N         76.0700   48.3100   68.1400 N.3   186  GLY186     -0.1225
     11  CA        76.5300   46.9300   67.8500 C.3   186  GLY186      0.1811
     12  C         76.5900   45.9200   69.0100 C.2   186  GLY186      0.2280
     13  O         75.8200   44.9600   69.0600 O.2   186  GLY186     -0.2866
     14  N         73.2400   46.0000   71.0600 N.3   189  LEU189     -0.1231
     15  CA        72.3200   45.1700   70.2700 C.3   189  LEU189      0.1693
     16  C         72.5400   43.6500   70.5100 C.2   189  LEU189      0.2591
     17  O         71.5700   42.9100   70.6700 O.2   189  LEU189     -0.2718
     18  CB        72.4800   45.6300   68.8000 C.3   189  LEU189      0.0284
     19  CG        72.0100   44.7200   67.6500 C.3   189  LEU189      0.0019
     20  CD1       71.4300   45.5700   66.5100 C.3   189  LEU189      0.0001
     21  CD2       73.1900   43.8900   67.1000 C.3   189  LEU189      0.0001
     22  N         73.8100   43.2100   70.6400 N.am  190  ALA190     -0.1980
     23  CA        74.1600   41.8400   71.0500 C.3   190  ALA190      0.1597
     24  C         73.7500   41.5100   72.5000 C.2   190  ALA190      0.2287
     25  O         73.2100   40.4300   72.7500 O.2   190  ALA190     -0.2864
     26  CB        75.6700   41.6300   70.8600 C.3   190  ALA190      0.0319
     27  N         71.2700   43.3300   74.0500 N.3   192  TYR192     -0.1227
     28  CA        69.8000   43.4200   73.9200 C.3   192  TYR192      0.1736
     29  C         69.2100   42.0600   73.5100 C.2   192  TYR192      0.2595
     30  O         68.2200   41.6300   74.0900 O.2   192  TYR192     -0.2718
     31  CB        69.4100   44.5200   72.9000 C.3   192  TYR192      0.0548
     32  CG        68.0200   45.1100   73.0700 C.ar  192  TYR192     -0.0200
     33  CD1       66.8700   44.3700   72.7000 C.ar  192  TYR192     -0.0009
     34  CD2       67.8700   46.4100   73.5900 C.ar  192  TYR192     -0.0009
     35  CE1       65.5900   44.9400   72.8700 C.ar  192  TYR192      0.0417
     36  CE2       66.5900   46.9800   73.7500 C.ar  192  TYR192      0.0417
     37  CZ        65.4400   46.2400   73.3900 C.ar  192  TYR192      0.1957
     38  OH        64.2000   46.7700   73.5400 O.3   192  TYR192     -0.2866
     39  N         69.8700   41.3400   72.5900 N.am  193  HIS193     -0.1975
     40  CA        69.6700   39.9100   72.3300 C.3   193  HIS193      0.1656
     41  C         69.8500   39.0100   73.5700 C.2   193  HIS193      0.2291
     42  O         69.0000   38.1500   73.8000 O.2   193  HIS193     -0.2864
     43  CB        70.5400   39.4700   71.1300 C.3   193  HIS193      0.0771
     44  CG        71.1100   38.0700   71.0900 C.ar  193  HIS193      0.0820
     45  ND1       70.3400   36.9200   71.2300 N.ar  193  HIS193     -0.2267
     46  CD2       72.4200   37.6400   70.9100 C.ar  193  HIS193      0.1154
     47  CE1       71.1500   35.8700   71.1200 C.ar  193  HIS193      0.1986
     48  NE2       72.4100   36.2600   70.9100 N.ar  193  HIS193     -0.2212
     49  N         83.2100   32.0400   56.6200 N.3   239  LYS239     -0.1231
     50  CA        84.3300   32.7200   57.3100 C.3   239  LYS239      0.1693
     51  C         83.8900   33.6300   58.4700 C.2   239  LYS239      0.2592
     52  O         84.5200   33.6500   59.5300 O.2   239  LYS239     -0.2718
     53  CB        85.2800   33.3900   56.3000 C.3   239  LYS239      0.0285
     54  CG        86.7700   33.2300   56.6600 C.3   239  LYS239      0.0035
     55  CD        87.6600   33.8500   55.5800 C.3   239  LYS239      0.0206
     56  CE        89.0900   33.3000   55.5300 C.3   239  LYS239      0.1093
     57  NZ        89.8200   33.9100   54.4000 N.3   239  LYS239     -0.1314
     58  N         82.7400   34.2900   58.3000 N.am  240  LEU240     -0.1966
     59  CA        81.8000   34.6400   59.3600 C.3   240  LEU240      0.1728
     60  C         80.7800   33.4700   59.4100 C.2   240  LEU240      0.2616
     61  O         79.8400   33.4500   58.6100 O.2   240  LEU240     -0.2715
     62  CB        81.0400   35.9300   58.9700 C.3   240  LEU240      0.0311
     63  CG        81.8900   37.2200   58.9100 C.3   240  LEU240      0.0022
     64  CD1       81.0900   38.3700   58.2800 C.3   240  LEU240      0.0001
     65  CD2       82.4100   37.6300   60.2900 C.3   240  LEU240      0.0001
     66  N         80.9100   32.5200   60.3600 N.am  241  ASN241     -0.1958
     67  CA        79.8900   31.4700   60.5900 C.3   241  ASN241      0.1819
     68  C         78.6800   32.0000   61.4200 C.2   241  ASN241      0.2621
     69  O         77.7900   31.2500   61.8200 O.2   241  ASN241     -0.2715
     70  CB        80.5600   30.2300   61.2200 C.3   241  ASN241      0.1195
     71  CG        79.7300   28.9400   61.0600 C.2   241  ASN241      0.2630
     72  OD1       79.3400   28.5600   59.9500 O.2   241  ASN241     -0.2716
     73  ND2       79.4200   28.2700   62.1500 N.am  241  ASN241     -0.0877
     74  N         78.5900   33.3300   61.5200 N.am  242  THR242     -0.1951
     75  CA        77.3900   34.1500   61.6900 C.3   242  THR242      0.1897
     76  C         76.7300   34.3600   60.3000 C.2   242  THR242      0.2313
     77  O         76.3300   35.4600   59.9300 O.2   242  THR242     -0.2863
     78  CB        77.8400   35.5500   62.2200 C.3   242  THR242      0.1794
     79  OG1       78.6800   35.4400   63.3500 O.3   242  THR242     -0.2208
     80  CG2       76.6800   36.4800   62.6300 C.3   242  THR242      0.0378
@<TRIPOS>BOND
     1    57    56    1
     2    56    55    1
     3    55    54    1
     4    53    54    1
     5    53    50    1
     6    49    50    1
     7    50    51    1
     8    64    63    1
     9    58    51   am
    10    58    59    1
    11    51    52    2
    12    61    60    2
    13    63    62    1
    14    63    65    1
    15     9     8    1
    16    62    59    1
    17    59    60    1
    18    60    66   am
    19    77    76    2
    20    72    71    2
    21    76    75    1
    22    66    67    1
    23     8     7    1
    24    67    70    1
    25    67    68    1
    26    71    70    1
    27    71    73   am
    28     7     6    1
    29    68    74   am
    30    68    69    2
    31    74    75    1
    32    75    78    1
    33    78    80    1
    34    78    79    1
    35     6     5    1
    36     5     2    1
    37     2     1    1
    38     2     3    1
    39     3     4    2
    40    20    19    1
    41    21    19    1
    42    19    18    1
    43    11    10    1
    44    11    12    1
    45    18    15    1
    46    12    13    2
    47    15    16    1
    48    15    14    1
    49    16    22   am
    50    16    17    2
    51    22    23    1
    52    26    23    1
    53    48    46   ar
    54    48    47   ar
    55    46    44   ar
    56    23    24    1
    57    44    43    1
    58    44    45   ar
    59    47    45   ar
    60    43    40    1
    61    40    39    1
    62    40    41    1
    63    24    25    2
    64    39    29   am
    65    33    35   ar
    66    33    32   ar
    67    35    37   ar
    68    31    32    1
    69    31    28    1
    70    32    34   ar
    71    37    38    1
    72    37    36   ar
    73    29    28    1
    74    29    30    2
    75    41    42    2
    76    34    36   ar
    77    28    27    1
