@<TRIPOS>MOLECULE
tmp/3k2sA24.pdb
 94 93 0 0 0
SMALL
GASTEIGER

@<TRIPOS>ATOM
      1  N         27.1900  137.5100   61.0900 N.3   160  ARG160     -0.1245
      2  CA        26.8100  138.0400   62.4000 C.3   160  ARG160      0.1563
      3  C         25.9300  139.3200   62.3800 C.2   160  ARG160      0.2260
      4  O         26.1300  140.2500   63.1600 O.2   160  ARG160     -0.2867
      5  CB        28.0800  138.1500   63.2900 C.3   160  ARG160      0.0307
      6  CG        29.1500  139.2200   62.9800 C.3   160  ARG160      0.0489
      7  CD        30.3700  139.1000   63.9200 C.3   160  ARG160      0.2205
      8  NE        30.9200  140.4200   64.2700 N.pl3 160  ARG160     -0.0865
      9  CZ        30.7800  141.0900   65.4100 C.cat 160  ARG160      0.5346
     10  NH1       30.2200  140.5700   66.4800 N.pl3 160  ARG160      0.1354
     11  NH2       31.1800  142.3400   65.4500 N.pl3 160  ARG160      0.1354
     12  N         23.4400  149.1600   66.5000 N.3   165  PRO165     -0.2102
     13  CA        24.8600  149.4400   66.8200 C.3   165  PRO165      0.1504
     14  C         25.3700  148.8300   68.1500 C.2   165  PRO165      0.2575
     15  O         26.5300  148.4300   68.2700 O.2   165  PRO165     -0.2718
     16  CB        24.9700  150.9700   66.9000 C.3   165  PRO165      0.0282
     17  CG        23.7900  151.5000   66.1100 C.3   165  PRO165      0.0208
     18  CD        22.7400  150.4000   66.1500 C.3   165  PRO165      0.0893
     19  N         24.4900  148.7500   69.1600 N.am  166  TYR166     -0.1977
     20  CA        24.7400  148.3000   70.5300 C.3   166  TYR166      0.1639
     21  C         24.5200  146.7800   70.7300 C.2   166  TYR166      0.2290
     22  O         24.1300  146.3500   71.8100 O.2   166  TYR166     -0.2864
     23  CB        23.8300  149.1400   71.4700 C.3   166  TYR166      0.0560
     24  CG        24.1900  150.6200   71.4400 C.ar  166  TYR166     -0.0198
     25  CD1       25.4100  151.0300   72.0200 C.ar  166  TYR166     -0.0009
     26  CD2       23.3900  151.5600   70.7700 C.ar  166  TYR166     -0.0009
     27  CE1       25.8500  152.3600   71.8800 C.ar  166  TYR166      0.0417
     28  CE2       23.8300  152.8900   70.6300 C.ar  166  TYR166      0.0417
     29  CZ        25.0700  153.2900   71.1600 C.ar  166  TYR166      0.1957
     30  OH        25.5400  154.5500   70.9400 O.3   166  TYR166     -0.2866
     31  N         27.1800  144.4400   69.6500 N.3   168  ASP168     -0.1225
     32  CA        28.3700  144.0400   70.4000 C.3   168  ASP168      0.1805
     33  C         28.4600  144.9800   71.6300 C.2   168  ASP168      0.2598
     34  O         27.9700  146.1100   71.6000 O.2   168  ASP168     -0.2718
     35  CB        29.6600  144.2700   69.5700 C.3   168  ASP168      0.1424
     36  CG        29.8200  143.3700   68.3500 C.2   168  ASP168      0.3668
     37  OD1       29.9300  143.9100   67.2300 O.co2 168  ASP168     -0.2456
     38  OD2       29.8700  142.1300   68.5000 O.co2 168  ASP168     -0.2456
     39  N         29.1700  144.5500   72.6800 N.am  169  GLU169     -0.1965
     40  CA        29.9200  145.4300   73.5600 C.3   169  GLU169      0.1733
     41  C         31.4000  145.0500   73.4000 C.2   169  GLU169      0.2616
     42  O         31.7900  143.9000   73.6400 O.2   169  GLU169     -0.2715
     43  CB        29.4100  145.3300   75.0100 C.3   169  GLU169      0.0429
     44  CG        29.8900  146.5000   75.9200 C.3   169  GLU169      0.1163
     45  CD        31.0800  146.1600   76.8200 C.2   169  GLU169      0.3649
     46  OE1       30.9700  145.1900   77.5900 O.co2 169  GLU169     -0.2457
     47  OE2       32.0900  146.9100   76.8000 O.co2 169  GLU169     -0.2457
     48  N         32.2100  145.9900   72.9100 N.am  170  LEU170     -0.1963
     49  CA        33.5900  145.8100   72.4800 C.3   170  LEU170      0.1728
     50  C         34.4100  147.0700   72.8300 C.2   170  LEU170      0.2616
     51  O         33.8400  148.1300   73.1100 O.2   170  LEU170     -0.2715
     52  CB        33.6500  145.4300   70.9800 C.3   170  LEU170      0.0311
     53  CG        34.4400  144.1500   70.6300 C.3   170  LEU170      0.0022
     54  CD1       35.9100  144.1900   71.0700 C.3   170  LEU170      0.0001
     55  CD2       33.7500  142.8700   71.1200 C.3   170  LEU170      0.0001
     56  N         35.7300  146.9600   72.8200 N.am  171  ARG171     -0.1963
     57  CA        36.6800  148.0000   73.1900 C.3   171  ARG171      0.1729
     58  C         38.0200  147.7600   72.4600 C.2   171  ARG171      0.2616
     59  O         38.3700  146.6100   72.2000 O.2   171  ARG171     -0.2715
     60  CB        36.7800  148.1200   74.7300 C.3   171  ARG171      0.0348
     61  CG        37.3800  146.9300   75.5100 C.3   171  ARG171      0.0492
     62  CD        36.5000  145.6700   75.6400 C.3   171  ARG171      0.2205
     63  NE        35.2900  145.8900   76.4700 N.pl3 171  ARG171     -0.0865
     64  CZ        35.0400  145.4100   77.6800 C.cat 171  ARG171      0.5346
     65  NH1       33.8600  145.6200   78.2300 N.pl3 171  ARG171      0.1354
     66  NH2       35.9400  144.7100   78.3600 N.pl3 171  ARG171      0.1354
     67  N         38.7600  148.8300   72.1700 N.am  172  GLN172     -0.1963
     68  CA        40.0600  148.8000   71.5000 C.3   172  GLN172      0.1733
     69  C         41.1200  149.5000   72.3800 C.2   172  GLN172      0.2616
     70  O         40.8500  150.5500   72.9700 O.2   172  GLN172     -0.2715
     71  CB        39.9300  149.3900   70.0700 C.3   172  GLN172      0.0408
     72  CG        41.2100  149.4000   69.2100 C.3   172  GLN172      0.0908
     73  CD        41.8200  148.0200   68.9900 C.2   172  GLN172      0.2608
     74  OE1       42.3800  147.4200   69.9000 O.2   172  GLN172     -0.2717
     75  NE2       41.7200  147.4800   67.7800 N.am  172  GLN172     -0.0878
     76  N         42.3000  148.8800   72.4600 N.am  173  ARG173     -0.1963
     77  CA        43.3800  149.1400   73.4200 C.3   173  ARG173      0.1729
     78  C         44.7500  148.9800   72.7400 C.2   173  ARG173      0.2616
     79  O         45.0100  149.6400   71.7400 O.2   173  ARG173     -0.2715
     80  CB        43.1500  148.3100   74.7100 C.3   173  ARG173      0.0348
     81  CG        42.8900  146.8000   74.4600 C.3   173  ARG173      0.0492
     82  CD        43.3300  145.8800   75.6200 C.3   173  ARG173      0.2205
     83  NE        42.7100  144.5600   75.5100 N.pl3 173  ARG173     -0.0865
     84  CZ        43.1900  143.3800   75.9000 C.cat 173  ARG173      0.5346
     85  NH1       44.3900  143.2200   76.4200 N.pl3 173  ARG173      0.1354
     86  NH2       42.4300  142.3100   75.7700 N.pl3 173  ARG173      0.1354
     87  N         45.6300  148.1100   73.2700 N.am  174  LEU174     -0.1977
     88  CA        46.8700  147.6400   72.6500 C.3   174  LEU174      0.1596
     89  C         48.0800  148.5800   72.8600 C.2   174  LEU174      0.2287
     90  O         49.0900  148.5000   72.1400 O.2   174  LEU174     -0.2864
     91  CB        46.6700  147.0800   71.2100 C.3   174  LEU174      0.0297
     92  CG        45.4900  146.1000   71.0400 C.3   174  LEU174      0.0022
     93  CD1       45.4200  145.5900   69.6000 C.3   174  LEU174      0.0001
     94  CD2       45.5200  144.9300   72.0300 C.3   174  LEU174      0.0001
@<TRIPOS>BOND
     1     1     2    1
     2     3     2    1
     3     3     4    2
     4     2     5    1
     5     6     5    1
     6     6     7    1
     7     7     8    1
     8     8     9    2
     9     9    11    1
    10     9    10    1
    11    17    18    1
    12    17    16    1
    13    18    12    1
    14    12    13    1
    15    13    16    1
    16    13    14    1
    17    37    36   ar
    18    75    73   am
    19    14    15    2
    20    14    19   am
    21    36    38   ar
    22    36    35    1
    23    73    72    1
    24    73    74    2
    25    19    20    1
    26    72    71    1
    27    35    32    1
    28    93    92    1
    29    31    32    1
    30    71    68    1
    31    32    33    1
    32    20    21    1
    33    20    23    1
    34    53    52    1
    35    53    54    1
    36    53    55    1
    37    28    26   ar
    38    28    29   ar
    39    21    22    2
    40    26    24   ar
    41    30    29    1
    42    52    49    1
    43    92    91    1
    44    92    94    1
    45    29    27   ar
    46    91    88    1
    47    24    23    1
    48    24    25   ar
    49    68    67    1
    50    68    69    1
    51    34    33    2
    52    33    39   am
    53    79    78    2
    54    27    25   ar
    55    90    89    2
    56    67    58   am
    57    59    58    2
    58    69    76   am
    59    69    70    2
    60    58    57    1
    61    76    77    1
    62    49    50    1
    63    49    48    1
    64    88    89    1
    65    88    87    1
    66    39    40    1
    67    78    87   am
    68    78    77    1
    69    56    50   am
    70    56    57    1
    71    50    51    2
    72    48    41   am
    73    57    60    1
    74    41    40    1
    75    41    42    2
    76    77    80    1
    77    40    43    1
    78    81    80    1
    79    81    82    1
    80    60    61    1
    81    43    44    1
    82    61    62    1
    83    83    82    1
    84    83    84    2
    85    62    63    1
    86    86    84    1
    87    84    85    1
    88    44    45    1
    89    63    64    2
    90    47    45   ar
    91    45    46   ar
    92    64    65    1
    93    64    66    1
