@<TRIPOS>MOLECULE
tmp/3k2sB12.pdb
 125 122 0 0 0
SMALL
GASTEIGER

@<TRIPOS>ATOM
      1  N         72.4500  137.5800   37.5500 N.3     6  SER6       -0.1217
      2  CA        72.8300  136.4000   38.3300 C.3     6  SER6        0.1889
      3  C         71.6600  135.6600   39.0300 C.2     6  SER6        0.2288
      4  O         71.1600  136.1400   40.0500 O.2     6  SER6       -0.2866
      5  CB        73.7500  136.9000   39.4700 C.3     6  SER6        0.2089
      6  OG        75.0500  137.1700   38.9700 O.3     6  SER6       -0.2183
      7  N         71.9380  133.3600   41.5770 N.3     8  TRP8       -0.1227
      8  CA        72.1990  132.8490   42.9360 C.3     8  TRP8        0.1737
      9  C         73.2380  133.6900   43.6330 C.2     8  TRP8        0.2595
     10  O         73.0700  134.8700   43.7890 O.2     8  TRP8       -0.2718
     11  CB        72.4340  131.3340   42.8560 C.3     8  TRP8        0.0564
     12  CG        71.4520  130.2930   43.3260 C.ar    8  TRP8        0.0003
     13  CD1       70.3020  130.1430   42.6360 C.ar    8  TRP8        0.0946
     14  CD2       71.3620  129.3630   44.4560 C.ar    8  TRP8        0.0152
     15  NE1       69.4920  129.2230   43.2660 N.ar    8  TRP8       -0.2442
     16  CE2       70.1020  128.6830   44.3760 C.ar    8  TRP8        0.0810
     17  CE3       72.2220  128.9930   45.5160 C.ar    8  TRP8        0.0012
     18  CZ2       69.7320  127.6830   45.2960 C.ar    8  TRP8        0.0191
     19  CZ3       71.8620  128.0030   46.4360 C.ar    8  TRP8        0.0001
     20  CH2       70.6220  127.3430   46.3260 C.ar    8  TRP8        0.0015
     21  N         73.8400  133.1600   44.7100 N.am    9  ASP9       -0.1960
     22  CA        74.5900  134.1200   45.5400 C.3     9  ASP9        0.1840
     23  C         75.8800  134.5000   44.7500 C.2     9  ASP9        0.2622
     24  O         75.8400  135.4100   43.9300 O.2     9  ASP9       -0.2715
     25  CB        74.8600  133.4400   46.9200 C.3     9  ASP9        0.1450
     26  CG        75.5100  132.0600   46.8500 C.2     9  ASP9        0.3671
     27  OD1       74.8100  131.1100   46.4600 O.co2   9  ASP9       -0.2456
     28  OD2       76.7500  132.0300   47.0100 O.co2   9  ASP9       -0.2456
     29  N         76.9700  133.7300   44.9000 N.am   10  ARG10      -0.1963
     30  CA        78.0600  133.4700   43.9500 C.3    10  ARG10       0.1729
     31  C         79.3400  134.3100   44.0800 C.2    10  ARG10       0.2616
     32  O         79.6000  135.2100   43.2700 O.2    10  ARG10      -0.2715
     33  CB        77.5800  133.1900   42.5100 C.3    10  ARG10       0.0348
     34  CG        76.7000  131.9400   42.3900 C.3    10  ARG10       0.0492
     35  CD        76.3600  131.5500   40.9400 C.3    10  ARG10       0.2205
     36  NE        76.8400  130.1900   40.6500 N.pl3  10  ARG10      -0.0865
     37  CZ        76.1700  129.0800   40.4100 C.cat  10  ARG10       0.5346
     38  NH1       74.8500  129.0500   40.3300 N.pl3  10  ARG10       0.1354
     39  NH2       76.8700  127.9800   40.2600 N.pl3  10  ARG10       0.1354
     40  N         80.2200  133.9200   45.0100 N.am   11  VAL11      -0.1963
     41  CA        81.6400  134.3200   45.0600 C.3    11  VAL11       0.1727
     42  C         82.4600  133.7000   43.9000 C.2    11  VAL11       0.2616
     43  O         83.4100  134.3000   43.4000 O.2    11  VAL11      -0.2715
     44  CB        82.2400  133.8100   46.4200 C.3    11  VAL11       0.0290
     45  CG1       83.7600  134.0200   46.5800 C.3    11  VAL11       0.0023
     46  CG2       81.5300  134.3500   47.6800 C.3    11  VAL11       0.0023
     47  N         82.1200  132.4500   43.5300 N.am   12  LYS12      -0.1977
     48  CA        83.0400  131.4800   42.9200 C.3    12  LYS12       0.1596
     49  C         83.0300  131.4700   41.3700 C.2    12  LYS12       0.2287
     50  O         84.0600  131.7600   40.7600 O.2    12  LYS12      -0.2864
     51  CB        82.6400  130.0900   43.4800 C.3    12  LYS12       0.0298
     52  CG        82.9400  129.9500   44.9900 C.3    12  LYS12       0.0038
     53  CD        82.2700  128.7500   45.6800 C.3    12  LYS12       0.0206
     54  CE        82.5200  128.7600   47.2100 C.3    12  LYS12       0.1093
     55  NZ        81.9000  127.6100   47.9000 N.3    12  LYS12      -0.1314
     56  N         81.4700  133.2900   38.9300 N.3    14  LEU14      -0.1231
     57  CA        81.5700  134.6100   38.3100 C.3    14  LEU14       0.1693
     58  C         83.0100  135.1200   38.0900 C.2    14  LEU14       0.2591
     59  O         83.2100  136.1300   37.4000 O.2    14  LEU14      -0.2718
     60  CB        80.7400  135.6300   39.1300 C.3    14  LEU14       0.0284
     61  CG        79.2300  135.5900   38.8300 C.3    14  LEU14       0.0019
     62  CD1       78.4200  136.1900   39.9800 C.3    14  LEU14       0.0001
     63  CD2       78.8900  136.3300   37.5200 C.3    14  LEU14       0.0001
     64  N         84.0300  134.3800   38.5600 N.am   15  ALA15      -0.1980
     65  CA        85.4500  134.5000   38.1800 C.3    15  ALA15       0.1597
     66  C         85.7100  134.5600   36.6600 C.2    15  ALA15       0.2287
     67  O         86.5700  135.3200   36.2200 O.2    15  ALA15      -0.2864
     68  CB        86.2300  133.3700   38.8600 C.3    15  ALA15       0.0319
     69  N         83.8300  136.1000   34.5500 N.3    17  VAL17      -0.1231
     70  CA        83.5000  137.4900   34.2200 C.3    17  VAL17       0.1692
     71  C         84.4700  138.4300   34.9600 C.2    17  VAL17       0.2592
     72  O         85.0800  139.2900   34.3300 O.2    17  VAL17      -0.2718
     73  CB        82.0200  137.7900   34.6200 C.3    17  VAL17       0.0266
     74  CG1       81.6100  139.2600   34.4300 C.3    17  VAL17       0.0020
     75  CG2       81.0300  136.9000   33.8600 C.3    17  VAL17       0.0020
     76  N         84.6200  138.2600   36.2900 N.am   18  TYR18      -0.1962
     77  CA        85.4200  139.1100   37.1900 C.3    18  TYR18       0.1771
     78  C         86.9000  139.2600   36.7900 C.2    18  TYR18       0.2619
     79  O         87.4400  140.3700   36.8800 O.2    18  TYR18      -0.2715
     80  CB        85.3300  138.5800   38.6400 C.3    18  TYR18       0.0574
     81  CG        83.9900  138.6500   39.3700 C.ar   18  TYR18      -0.0198
     82  CD1       82.8700  139.3200   38.8300 C.ar   18  TYR18      -0.0009
     83  CD2       83.8800  138.0300   40.6300 C.ar   18  TYR18      -0.0009
     84  CE1       81.6600  139.3800   39.5600 C.ar   18  TYR18       0.0417
     85  CE2       82.6700  138.0800   41.3600 C.ar   18  TYR18       0.0417
     86  CZ        81.5700  138.7700   40.8300 C.ar   18  TYR18       0.1957
     87  OH        80.4100  138.8500   41.5400 O.3    18  TYR18      -0.2866
     88  N         87.5500  138.1800   36.3200 N.am   19  VAL19      -0.1977
     89  CA        88.9100  138.2200   35.7600 C.3    19  VAL19       0.1596
     90  C         88.9800  139.1400   34.5200 C.2    19  VAL19       0.2287
     91  O         89.6600  140.1600   34.5600 O.2    19  VAL19      -0.2864
     92  CB        89.4200  136.7700   35.4800 C.3    19  VAL19       0.0276
     93  CG1       90.7100  136.7000   34.6200 C.3    19  VAL19       0.0022
     94  CG2       89.6700  136.0100   36.8000 C.3    19  VAL19       0.0022
     95  N         86.6900  141.1900   32.9800 N.3    21  VAL21      -0.1231
     96  CA        86.2200  142.5600   33.2500 C.3    21  VAL21       0.1692
     97  C         87.3200  143.4400   33.9000 C.2    21  VAL21       0.2591
     98  O         87.6400  144.4900   33.3500 O.2    21  VAL21      -0.2718
     99  CB        84.8800  142.5400   34.0500 C.3    21  VAL21       0.0266
    100  CG1       84.4600  143.9100   34.6200 C.3    21  VAL21       0.0020
    101  CG2       83.7300  142.0000   33.1800 C.3    21  VAL21       0.0020
    102  N         87.9400  143.0100   35.0100 N.am   22  LEU22      -0.1980
    103  CA        89.0500  143.7200   35.6600 C.3    22  LEU22       0.1596
    104  C         90.3200  143.8400   34.7800 C.2    22  LEU22       0.2287
    105  O         90.9800  144.8900   34.7700 O.2    22  LEU22      -0.2864
    106  CB        89.3600  143.0300   37.0100 C.3    22  LEU22       0.0297
    107  CG        90.5400  143.6100   37.8300 C.3    22  LEU22       0.0022
    108  CD1       90.3200  145.0800   38.2100 C.3    22  LEU22       0.0001
    109  CD2       90.7900  142.7800   39.0900 C.3    22  LEU22       0.0001
    110  N         87.4400  147.0500   34.2100 N.3    26  GLY26      -0.1225
    111  CA        86.8600  147.2100   35.5500 C.3    26  GLY26       0.1811
    112  C         87.8500  147.8500   36.5500 C.2    26  GLY26       0.2280
    113  O         87.4500  148.3000   37.6200 O.2    26  GLY26      -0.2866
    114  N         87.1700  152.2800   35.0800 N.3    29  TYR29      -0.1241
    115  CA        85.8700  152.8500   35.4800 C.3    29  TYR29       0.1605
    116  C         85.9100  153.6000   36.8400 C.2    29  TYR29       0.2264
    117  O         85.3000  154.6600   36.9800 O.2    29  TYR29      -0.2867
    118  CB        84.7300  151.7900   35.3900 C.3    29  TYR29       0.0534
    119  CG        84.0600  151.3700   36.6900 C.ar   29  TYR29      -0.0201
    120  CD1       84.5400  150.2500   37.4000 C.ar   29  TYR29      -0.0009
    121  CD2       83.0200  152.1500   37.2400 C.ar   29  TYR29      -0.0009
    122  CE1       83.9800  149.9200   38.6500 C.ar   29  TYR29       0.0417
    123  CE2       82.4800  151.8300   38.5000 C.ar   29  TYR29       0.0417
    124  CZ        82.9600  150.7100   39.2100 C.ar   29  TYR29       0.1957
    125  OH        82.4400  150.4200   40.4300 O.3    29  TYR29      -0.2866
@<TRIPOS>BOND
     1    95    96    1
     2   101    99    1
     3    96    97    1
     4    96    99    1
     5    98    97    2
     6    75    73    1
     7    97   102   am
     8    99   100    1
     9   110   111    1
    10    70    69    1
    11    70    73    1
    12    70    71    1
    13    72    71    2
    14    74    73    1
    15    90    91    2
    16    90    89    1
    17    93    92    1
    18   105   104    2
    19   104   103    1
    20    71    76   am
    21   102   103    1
    22   114   115    1
    23   118   115    1
    24   118   119    1
    25   115   116    1
    26    92    89    1
    27    92    94    1
    28   111   112    1
    29   103   106    1
    30    89    88    1
    31    67    66    2
    32    76    77    1
    33    88    78   am
    34   112   113    2
    35    66    65    1
    36   119   121   ar
    37   119   120   ar
    38    78    79    2
    39    78    77    1
    40   116   117    2
    41   106   107    1
    42    77    80    1
    43   121   123   ar
    44   120   122   ar
    45    59    58    2
    46    63    61    1
    47     1     2    1
    48   107   108    1
    49   107   109    1
    50    58    57    1
    51    58    64   am
    52    65    64    1
    53    65    68    1
    54    57    56    1
    55    57    60    1
    56     2     3    1
    57     2     5    1
    58   123   124   ar
    59    80    81    1
    60   122   124   ar
    61    82    81   ar
    62    82    84   ar
    63    61    60    1
    64    61    62    1
    65     6     5    1
    66     3     4    2
    67   124   125    1
    68    81    83   ar
    69    84    86   ar
    70    39    37    1
    71    38    37    1
    72    37    36    2
    73    83    85   ar
    74    36    35    1
    75    50    49    2
    76    86    85   ar
    77    86    87    1
    78    35    34    1
    79    49    48    1
    80     7     8    1
    81    34    33    1
    82    33    30    1
    83    13    15   ar
    84    13    12   ar
    85    11     8    1
    86    11    12    1
    87    48    51    1
    88    48    47    1
    89     8     9    1
    90    15    16   ar
    91    32    31    2
    92    12    14   ar
    93    43    42    2
    94    51    52    1
    95    47    42   am
    96     9    10    2
    97     9    21   am
    98    42    41    1
    99    24    23    2
   100    30    31    1
   101    30    29    1
   102    31    40   am
   103    16    14   ar
   104    16    18   ar
   105    14    17   ar
   106    21    22    1
   107    23    29   am
   108    23    22    1
   109    52    53    1
   110    40    41    1
   111    41    44    1
   112    18    20   ar
   113    17    19   ar
   114    22    25    1
   115    53    54    1
   116    20    19   ar
   117    44    45    1
   118    44    46    1
   119    27    26   ar
   120    26    25    1
   121    26    28   ar
   122    54    55    1
