@<TRIPOS>MOLECULE
tmp/3k2sB10.pdb
 92 93 0 0 0
SMALL
GASTEIGER

@<TRIPOS>ATOM
      1  N         63.0800   79.0700   42.6700 N.3   155  HIS155     -0.1226
      2  CA        63.9200   79.4900   43.8000 C.3   155  HIS155      0.1752
      3  C         64.7100   78.3000   44.4200 C.2   155  HIS155      0.2596
      4  O         65.9300   78.3900   44.5900 O.2   155  HIS155     -0.2718
      5  CB        63.0600   80.1000   44.9300 C.3   155  HIS155      0.0759
      6  CG        62.2600   81.3700   44.7100 C.ar  155  HIS155      0.0818
      7  ND1       62.7300   82.4500   44.0000 N.ar  155  HIS155     -0.2268
      8  CD2       61.0500   81.7600   45.2700 C.ar  155  HIS155      0.1154
      9  CE1       61.8500   83.4400   44.1200 C.ar  155  HIS155      0.1986
     10  NE2       60.8200   83.0700   44.8700 N.ar  155  HIS155     -0.2212
     11  N         64.0100   77.2200   44.7900 N.am  156  VAL156     -0.1966
     12  CA        64.4500   76.0900   45.6100 C.3   156  VAL156      0.1727
     13  C         63.6000   74.8200   45.3400 C.2   156  VAL156      0.2616
     14  O         62.5700   74.6400   45.9800 O.2   156  VAL156     -0.2715
     15  CB        64.4700   76.4700   47.1200 C.3   156  VAL156      0.0290
     16  CG1       65.8100   77.0400   47.5700 C.3   156  VAL156      0.0023
     17  CG2       63.3300   77.4100   47.5600 C.3   156  VAL156      0.0023
     18  N         63.9400   73.9000   44.4300 N.am  157  ASP157     -0.1957
     19  CA        64.9900   73.9500   43.4100 C.3   157  ASP157      0.1840
     20  C         64.4100   73.6600   42.0100 C.2   157  ASP157      0.2622
     21  O         63.5800   72.7700   41.8400 O.2   157  ASP157     -0.2715
     22  CB        66.1500   73.0100   43.8200 C.3   157  ASP157      0.1450
     23  CG        67.2000   72.8400   42.7200 C.2   157  ASP157      0.3671
     24  OD1       67.6200   71.6900   42.4600 O.co2 157  ASP157     -0.2456
     25  OD2       67.5400   73.9000   42.1400 O.co2 157  ASP157     -0.2456
     26  N         64.9200   74.3700   40.9900 N.am  158  ALA158     -0.1963
     27  CA        64.8000   74.1200   39.5600 C.3   158  ALA158      0.1728
     28  C         65.5800   72.8300   39.1700 C.2   158  ALA158      0.2616
     29  O         66.5900   72.9000   38.4700 O.2   158  ALA158     -0.2715
     30  CB        65.3600   75.3500   38.8300 C.3   158  ALA158      0.0334
     31  N         65.0800   71.7000   39.7000 N.am  159  LEU159     -0.1963
     32  CA        65.7100   70.4100   40.0100 C.3   159  LEU159      0.1728
     33  C         67.0900   70.0900   39.4100 C.2   159  LEU159      0.2616
     34  O         67.1800   69.8500   38.2000 O.2   159  LEU159     -0.2715
     35  CB        64.7100   69.2400   39.8000 C.3   159  LEU159      0.0311
     36  CG        63.5100   69.1600   40.7900 C.3   159  LEU159      0.0022
     37  CD1       62.2800   69.9100   40.2700 C.3   159  LEU159      0.0001
     38  CD2       63.1300   67.6900   41.0500 C.3   159  LEU159      0.0001
     39  N         68.1400   69.9700   40.2400 N.am  160  ARG160     -0.1963
     40  CA        69.4600   69.4000   39.8900 C.3   160  ARG160      0.1729
     41  C         69.4900   67.9300   39.3800 C.2   160  ARG160      0.2617
     42  O         70.2000   67.0700   39.9000 O.2   160  ARG160     -0.2715
     43  CB        70.5000   69.6600   41.0100 C.3   160  ARG160      0.0348
     44  CG        70.2100   69.0400   42.3900 C.3   160  ARG160      0.0492
     45  CD        71.5000   68.6000   43.1100 C.3   160  ARG160      0.2205
     46  NE        71.9000   67.2600   42.6800 N.pl3 160  ARG160     -0.0865
     47  CZ        73.1100   66.8100   42.3500 C.cat 160  ARG160      0.5346
     48  NH1       74.1800   67.5700   42.3000 N.pl3 160  ARG160      0.1354
     49  NH2       73.2500   65.5300   42.0400 N.pl3 160  ARG160      0.1354
     50  N         68.7400   67.6800   38.3000 N.am  161  THR161     -0.1937
     51  CA        68.8100   66.5200   37.4100 C.3   161  THR161      0.2028
     52  C         69.8000   66.8600   36.2800 C.2   161  THR161      0.2642
     53  O         69.6800   67.8900   35.6200 O.2   161  THR161     -0.2714
     54  CB        67.4200   66.3000   36.7600 C.3   161  THR161      0.1808
     55  OG1       66.5600   65.7800   37.7500 O.3   161  THR161     -0.2208
     56  CG2       67.3800   65.2900   35.6100 C.3   161  THR161      0.0379
     57  N         70.7600   65.9600   36.0300 N.am  162  HIS162     -0.1973
     58  CA        71.7600   66.0900   34.9700 C.3   162  HIS162      0.1656
     59  C         71.3000   65.3300   33.7000 C.2   162  HIS162      0.2291
     60  O         70.5700   64.3400   33.8000 O.2   162  HIS162     -0.2864
     61  CB        73.0600   65.4100   35.4500 C.3   162  HIS162      0.0771
     62  CG        73.5000   65.7700   36.8400 C.ar  162  HIS162      0.0820
     63  ND1       73.9800   67.0300   37.2000 N.ar  162  HIS162     -0.2267
     64  CD2       73.5600   64.9800   37.9700 C.ar  162  HIS162      0.1154
     65  CE1       74.3500   66.9500   38.4700 C.ar  162  HIS162      0.1986
     66  NE2       74.1300   65.7500   38.9700 N.ar  162  HIS162     -0.2212
     67  N         77.4900   61.1300   34.5900 N.3   166  TYR166     -0.1227
     68  CA        78.8500   61.6900   34.6000 C.3   166  TYR166      0.1736
     69  C         78.8100   63.2300   34.7600 C.2   166  TYR166      0.2596
     70  O         78.6300   63.9600   33.7800 O.2   166  TYR166     -0.2718
     71  CB        79.5300   61.3100   33.2700 C.3   166  TYR166      0.0548
     72  CG        79.5000   59.8400   32.9200 C.ar  166  TYR166     -0.0200
     73  CD1       80.3200   58.9200   33.6200 C.ar  166  TYR166     -0.0009
     74  CD2       78.6600   59.3700   31.8900 C.ar  166  TYR166     -0.0009
     75  CE1       80.3000   57.5500   33.2800 C.ar  166  TYR166      0.0417
     76  CE2       78.6300   58.0000   31.5600 C.ar  166  TYR166      0.0417
     77  CZ        79.4600   57.0900   32.2500 C.ar  166  TYR166      0.1957
     78  OH        79.4400   55.7700   31.9200 O.3   166  TYR166     -0.2866
     79  N         78.9000   63.7200   36.0000 N.am  167  SER167     -0.1938
     80  CA        78.5400   65.1000   36.3600 C.3   167  SER167      0.2055
     81  C         79.1700   65.5200   37.6900 C.2   167  SER167      0.2643
     82  O         80.2200   66.1700   37.7200 O.2   167  SER167     -0.2714
     83  CB        77.0000   65.2500   36.3000 C.3   167  SER167      0.2130
     84  OG        76.3700   64.3600   37.2000 O.3   167  SER167     -0.2179
     85  N         78.5400   65.1200   38.8000 N.am  168  ASP168     -0.1971
     86  CA        79.0000   65.3600   40.1700 C.3   168  ASP168      0.1709
     87  C         80.2700   64.5300   40.5000 C.2   168  ASP168      0.2293
     88  O         80.3000   63.3100   40.3400 O.2   168  ASP168     -0.2864
     89  CB        77.9100   64.9500   41.1700 C.3   168  ASP168      0.1436
     90  CG        76.5500   65.6300   41.0800 C.2   168  ASP168      0.3671
     91  OD1       75.5200   64.9300   40.9600 O.co2 168  ASP168     -0.2456
     92  OD2       76.4800   66.8700   41.2300 O.co2 168  ASP168     -0.2456
@<TRIPOS>BOND
     1    76    74   ar
     2    76    77   ar
     3    74    72   ar
     4    78    77    1
     5    77    75   ar
     6    72    71    1
     7    72    73   ar
     8    71    68    1
     9    75    73   ar
    10    59    60    2
    11    59    58    1
    12    70    69    2
    13    67    68    1
    14    68    69    1
    15    69    79   am
    16    58    61    1
    17    58    57    1
    18    61    62    1
    19    56    54    1
    20    53    52    2
    21    79    80    1
    22    57    52   am
    23    52    51    1
    24    83    80    1
    25    83    84    1
    26    80    81    1
    27    54    51    1
    28    54    55    1
    29    62    63   ar
    30    62    64   ar
    31    63    65   ar
    32    51    50    1
    33    81    82    2
    34    81    85   am
    35    64    66   ar
    36    34    33    2
    37    50    41   am
    38    29    28    2
    39    65    66   ar
    40    85    86    1
    41    30    27    1
    42    28    27    1
    43    28    31   am
    44    41    40    1
    45    41    42    2
    46    33    32    1
    47    33    39   am
    48    27    26    1
    49    31    32    1
    50    35    32    1
    51    35    36    1
    52    40    39    1
    53    40    43    1
    54    86    87    1
    55    86    89    1
    56    37    36    1
    57    88    87    2
    58    36    38    1
    59    91    90   ar
    60    26    20   am
    61    43    44    1
    62    90    89    1
    63    90    92   ar
    64    21    20    2
    65    20    19    1
    66    49    47    1
    67    25    23   ar
    68    48    47    1
    69    47    46    2
    70    44    45    1
    71    24    23   ar
    72     1     2    1
    73    46    45    1
    74    23    22    1
    75    19    22    1
    76    19    18    1
    77     2     3    1
    78     2     5    1
    79     7     9   ar
    80     7     6   ar
    81     9    10   ar
    82     3     4    2
    83     3    11   am
    84    18    13   am
    85     6     5    1
    86     6     8   ar
    87    11    12    1
    88    10     8   ar
    89    13    12    1
    90    13    14    2
    91    12    15    1
    92    15    17    1
    93    15    16    1
