@<TRIPOS>MOLECULE
tmp/3k2sB20.pdb
 109 107 0 0 0
SMALL
GASTEIGER

@<TRIPOS>ATOM
      1  N         66.9200  152.9200   69.8600 N.3    64  LEU64      -0.1245
      2  CA        66.6100  151.5100   70.1100 C.3    64  LEU64       0.1561
      3  C         67.8400  150.8300   70.7800 C.2    64  LEU64       0.2260
      4  O         68.2400  149.7200   70.4200 O.2    64  LEU64      -0.2867
      5  CB        66.2400  150.8200   68.7700 C.3    64  LEU64       0.0270
      6  CG        65.2500  151.5900   67.8700 C.3    64  LEU64       0.0019
      7  CD1       65.1100  150.8900   66.5200 C.3    64  LEU64       0.0001
      8  CD2       63.8800  151.7800   68.5200 C.3    64  LEU64       0.0001
      9  N         65.6600  151.9800   74.2200 N.3    67  VAL67      -0.1245
     10  CA        64.4000  151.2600   73.9000 C.3    67  VAL67       0.1561
     11  C         64.6600  149.9400   73.1100 C.2    67  VAL67       0.2260
     12  O         63.7600  149.3400   72.5300 O.2    67  VAL67      -0.2867
     13  CB        63.2400  152.2000   73.4700 C.3    67  VAL67       0.0252
     14  CG1       63.2200  152.5400   71.9700 C.3    67  VAL67       0.0019
     15  CG2       61.8600  151.6400   73.8700 C.3    67  VAL67       0.0019
     16  N         62.3300  147.8600   78.0600 N.3    71  PHE71      -0.1227
     17  CA        61.0900  147.9600   77.2700 C.3    71  PHE71       0.1736
     18  C         60.0800  146.8000   77.3100 C.2    71  PHE71       0.2595
     19  O         58.8900  147.1000   77.3900 O.2    71  PHE71      -0.2718
     20  CB        61.3900  148.4700   75.8400 C.3    71  PHE71       0.0547
     21  CG        61.9500  147.4500   74.8700 C.ar   71  PHE71      -0.0202
     22  CD1       63.0700  146.6700   75.2000 C.ar   71  PHE71      -0.0042
     23  CD2       61.3400  147.2800   73.6000 C.ar   71  PHE71      -0.0042
     24  CE1       63.5700  145.7200   74.3000 C.ar   71  PHE71      -0.0003
     25  CE2       61.8600  146.3400   72.6900 C.ar   71  PHE71      -0.0003
     26  CZ        62.9700  145.5500   73.0400 C.ar   71  PHE71      -0.0000
     27  N         60.4500  145.4900   77.3300 N.am   72  TRP72      -0.1962
     28  CA        59.4300  144.4000   77.4000 C.3    72  TRP72       0.1771
     29  C         58.6900  144.2700   78.7700 C.2    72  TRP72       0.2620
     30  O         58.2000  143.2000   79.1200 O.2    72  TRP72      -0.2715
     31  CB        59.9500  143.0000   76.9700 C.3    72  TRP72       0.0590
     32  CG        61.1600  142.7600   76.1100 C.ar   72  TRP72       0.0006
     33  CD1       62.3200  142.2700   76.5900 C.ar   72  TRP72       0.0946
     34  CD2       61.2400  142.6200   74.6600 C.ar   72  TRP72       0.0152
     35  NE1       63.1000  141.8200   75.5500 N.ar   72  TRP72      -0.2442
     36  CE2       62.4600  141.9400   74.3400 C.ar   72  TRP72       0.0810
     37  CE3       60.3600  142.8600   73.5800 C.ar   72  TRP72       0.0012
     38  CZ2       62.7800  141.5100   73.0500 C.ar   72  TRP72       0.0191
     39  CZ3       60.6700  142.4300   72.2800 C.ar   72  TRP72       0.0001
     40  CH2       61.8700  141.7600   72.0000 C.ar   72  TRP72       0.0015
     41  N         58.5800  145.3700   79.5200 N.am   73  ASP73      -0.1957
     42  CA        57.8900  145.5400   80.8000 C.3    73  ASP73       0.1840
     43  C         56.4600  146.1000   80.5800 C.2    73  ASP73       0.2622
     44  O         55.4900  145.5400   81.1000 O.2    73  ASP73      -0.2715
     45  CB        58.8000  146.5200   81.5900 C.3    73  ASP73       0.1450
     46  CG        58.1900  147.2500   82.7900 C.2    73  ASP73       0.3671
     47  OD1       58.5600  146.9000   83.9200 O.co2  73  ASP73      -0.2456
     48  OD2       57.4400  148.2300   82.5600 O.co2  73  ASP73      -0.2456
     49  N         56.2900  147.1900   79.7900 N.am   74  ASN74      -0.1958
     50  CA        55.0600  148.0000   79.6900 C.3    74  ASN74       0.1819
     51  C         53.8300  147.3400   79.0000 C.2    74  ASN74       0.2621
     52  O         52.8800  148.0300   78.6200 O.2    74  ASN74      -0.2715
     53  CB        55.3600  149.3800   79.0300 C.3    74  ASN74       0.1195
     54  CG        55.8100  149.3500   77.5600 C.2    74  ASN74       0.2630
     55  OD1       57.0000  149.4200   77.2700 O.2    74  ASN74      -0.2716
     56  ND2       54.8700  149.2800   76.6300 N.am   74  ASN74      -0.0877
     57  N         53.8800  146.0200   78.7900 N.am   75  LEU75      -0.1963
     58  CA        53.0400  145.2600   77.8600 C.3    75  LEU75       0.1728
     59  C         52.5800  143.8600   78.3000 C.2    75  LEU75       0.2616
     60  O         51.6700  143.3100   77.6900 O.2    75  LEU75      -0.2715
     61  CB        53.6900  145.2400   76.4600 C.3    75  LEU75       0.0311
     62  CG        55.1700  144.8800   76.3100 C.3    75  LEU75       0.0022
     63  CD1       56.1000  146.1000   76.2700 C.3    75  LEU75       0.0001
     64  CD2       55.6800  143.7800   77.2500 C.3    75  LEU75       0.0001
     65  N         53.2000  143.2700   79.3400 N.am   76  GLU76      -0.1963
     66  CA        52.9800  141.8800   79.7700 C.3    76  GLU76       0.1733
     67  C         51.5000  141.5900   80.1000 C.2    76  GLU76       0.2616
     68  O         50.9300  140.5700   79.7200 O.2    76  GLU76      -0.2715
     69  CB        53.8300  141.6500   81.0300 C.3    76  GLU76       0.0429
     70  CG        55.3700  141.6500   80.8400 C.3    76  GLU76       0.1163
     71  CD        56.1600  142.0500   82.1000 C.2    76  GLU76       0.3649
     72  OE1       57.3900  141.8600   82.0900 O.co2  76  GLU76      -0.2457
     73  OE2       55.5100  142.5400   83.0500 O.co2  76  GLU76      -0.2457
     74  N         50.8900  142.5700   80.7900 N.am   77  LYS77      -0.1977
     75  CA        49.5200  142.6600   81.3000 C.3    77  LYS77       0.1596
     76  C         48.4100  142.2900   80.2800 C.2    77  LYS77       0.2287
     77  O         47.3800  141.7400   80.6600 O.2    77  LYS77      -0.2864
     78  CB        49.3100  144.0700   81.9300 C.3    77  LYS77       0.0298
     79  CG        50.5400  144.7100   82.6300 C.3    77  LYS77       0.0038
     80  CD        51.1400  143.8600   83.7700 C.3    77  LYS77       0.0206
     81  CE        52.6700  143.9800   83.9200 C.3    77  LYS77       0.1093
     82  NZ        53.2800  142.7000   84.3300 N.3    77  LYS77      -0.1314
     83  N         48.6600  139.8600   78.0100 N.3    79  THR79      -0.1203
     84  CA        48.7200  138.3800   77.8900 C.3    79  THR79       0.1994
     85  C         48.6100  137.6900   79.2600 C.2    79  THR79       0.2617
     86  O         48.1900  136.5300   79.3200 O.2    79  THR79      -0.2717
     87  CB        50.0700  137.9800   77.2600 C.3    79  THR79       0.1784
     88  OG1       50.2000  138.6200   76.0100 O.3    79  THR79      -0.2211
     89  CG2       50.2800  136.4800   76.9800 C.3    79  THR79       0.0376
     90  N         48.8700  138.4100   80.3700 N.am   80  GLU80      -0.1979
     91  CA        48.3600  138.0400   81.7000 C.3    80  GLU80       0.1602
     92  C         46.8100  138.0200   81.7000 C.2    80  GLU80       0.2287
     93  O         46.2000  137.1000   82.2500 O.2    80  GLU80      -0.2864
     94  CB        48.9200  139.0100   82.7700 C.3    80  GLU80       0.0415
     95  CG        50.4700  139.0700   82.8000 C.3    80  GLU80       0.1163
     96  CD        51.1000  139.4700   84.1300 C.2    80  GLU80       0.3649
     97  OE1       51.1300  138.6100   85.0400 O.co2  80  GLU80      -0.2457
     98  OE2       51.6100  140.6100   84.2500 O.co2  80  GLU80      -0.2457
     99  N         46.0900  134.3400   79.1200 N.3    83  ARG83      -0.1245
    100  CA        46.0300  133.1100   79.9400 C.3    83  ARG83       0.1563
    101  C         44.7700  133.0300   80.8500 C.2    83  ARG83       0.2260
    102  O         44.2200  131.9500   81.0500 O.2    83  ARG83      -0.2867
    103  CB        47.3200  132.9600   80.7800 C.3    83  ARG83       0.0307
    104  CG        47.5300  134.0200   81.8900 C.3    83  ARG83       0.0489
    105  CD        48.7500  133.7300   82.7700 C.3    83  ARG83       0.2205
    106  NE        48.8500  134.7500   83.8300 N.pl3  83  ARG83      -0.0865
    107  CZ        49.8500  135.5900   84.0700 C.cat  83  ARG83       0.5346
    108  NH1       50.9600  135.5600   83.3600 N.pl3  83  ARG83       0.1354
    109  NH2       49.7100  136.4700   85.0300 N.pl3  83  ARG83       0.1354
@<TRIPOS>BOND
     1     7     6    1
     2     6     8    1
     3     6     5    1
     4     5     2    1
     5     1     2    1
     6     2     3    1
     7     4     3    2
     8    14    13    1
     9    40    39   ar
    10    40    38   ar
    11    39    37   ar
    12    12    11    2
    13    25    26   ar
    14    25    23   ar
    15    26    24   ar
    16    38    36   ar
    17    11    10    1
    18    13    15    1
    19    13    10    1
    20    37    34   ar
    21    23    21   ar
    22    10     9    1
    23    24    22   ar
    24    36    34   ar
    25    36    35   ar
    26    34    32   ar
    27    21    22   ar
    28    21    20    1
    29    35    33   ar
    30    20    17    1
    31    88    87    1
    32    32    33   ar
    33    32    31    1
    34    63    62    1
    35    62    61    1
    36    62    64    1
    37    61    58    1
    38    56    54   am
    39    31    28    1
    40    89    87    1
    41    87    84    1
    42    55    54    2
    43    17    18    1
    44    17    16    1
    45    18    27   am
    46    18    19    2
    47    27    28    1
    48    28    29    1
    49    54    53    1
    50    60    59    2
    51    58    59    1
    52    58    57    1
    53    84    83    1
    54    84    85    1
    55    59    65   am
    56    52    51    2
    57    29    30    2
    58    29    41   am
    59    57    51   am
    60    51    50    1
    61    53    50    1
    62    99   100    1
    63    85    86    2
    64    85    90   am
    65    65    66    1
    66    41    42    1
    67    50    49    1
    68    68    67    2
    69    66    67    1
    70    66    69    1
    71    49    43   am
    72   100   103    1
    73   100   101    1
    74    67    74   am
    75    76    77    2
    76    76    75    1
    77    90    91    1
    78    43    42    1
    79    43    44    2
    80   103   104    1
    81    74    75    1
    82    42    45    1
    83    70    69    1
    84    70    71    1
    85   101   102    2
    86    75    78    1
    87    45    46    1
    88    92    91    1
    89    92    93    2
    90    91    94    1
    91   104   105    1
    92    78    79    1
    93    72    71   ar
    94    71    73   ar
    95    48    46   ar
    96    79    80    1
    97    94    95    1
    98   105   106    1
    99    46    47   ar
   100    95    96    1
   101   108   107    1
   102    80    81    1
   103   106   107    2
   104    81    82    1
   105   107   109    1
   106    96    98   ar
   107    96    97   ar
