@<TRIPOS>MOLECULE
tmp/3k2vA00.pdb
 125 119 0 0 0
SMALL
GASTEIGER

@<TRIPOS>ATOM
      1  N        -10.0360   25.8790   89.0630 N.3    54  ILE54      -0.1245
      2  CA       -10.0640   24.4550   88.7910 C.3    54  ILE54       0.1561
      3  C         -9.9500   24.2270   87.2930 C.2    54  ILE54       0.2260
      4  O        -10.1730   25.1440   86.4900 O.2    54  ILE54      -0.2867
      5  CB       -11.3580   23.7500   89.3230 C.3    54  ILE54       0.0252
      6  CG1      -12.5830   24.0640   88.4550 C.3    54  ILE54       0.0019
      7  CG2      -11.6080   24.0880   90.7780 C.3    54  ILE54       0.0019
      8  CD1      -13.3270   25.2450   88.9030 C.3    54  ILE54       0.0001
      9  N        -10.9050   20.8580   84.5800 N.3    56  THR56      -0.1218
     10  CA       -11.4230   19.5100   84.3620 C.3    56  THR56       0.1862
     11  C        -11.0700   18.9900   82.9620 C.2    56  THR56       0.2287
     12  O        -10.6540   19.7620   82.0860 O.2    56  THR56      -0.2866
     13  CB       -12.9670   19.4940   84.4680 C.3    56  THR56       0.1770
     14  OG1      -13.5330   20.2060   83.3590 O.3    56  THR56      -0.2211
     15  CG2      -13.4600   20.1110   85.7890 C.3    56  THR56       0.0375
     16  N        -13.2620   18.1440   80.8060 N.3    58  GLY58      -0.1210
     17  CA       -14.1620   18.9120   79.9510 C.3    58  GLY58       0.1956
     18  C        -13.5880   20.2780   79.5410 C.2    58  GLY58       0.2611
     19  O        -13.7780   20.7230   78.4100 O.2    58  GLY58      -0.2717
     20  N        -12.9380   20.9490   80.4780 N.am   59  ASP59      -0.1973
     21  CA       -12.2820   22.2210   80.1970 C.3    59  ASP59       0.1709
     22  C        -11.2030   22.0900   79.1100 C.2    59  ASP59       0.2293
     23  O        -11.0520   22.9880   78.2810 O.2    59  ASP59      -0.2864
     24  CB       -11.6760   22.8150   81.4640 C.3    59  ASP59       0.1436
     25  CG       -12.7290   23.2630   82.4680 C.2    59  ASP59       0.3671
     26  OD1      -13.8240   23.7010   82.0510 O.co2  59  ASP59      -0.2456
     27  OD2      -12.4500   23.1810   83.6750 O.co2  59  ASP59      -0.2456
     28  N        -11.1920   19.9220   76.6070 N.3    61  ARG61      -0.1231
     29  CA       -11.9200   19.8790   75.3460 C.3    61  ARG61       0.1694
     30  C        -12.3380   21.2660   74.8900 C.2    61  ARG61       0.2591
     31  O        -12.1540   21.6320   73.7350 O.2    61  ARG61      -0.2718
     32  CB       -13.1370   18.9260   75.4480 C.3    61  ARG61       0.0321
     33  CG       -14.1380   19.0960   74.3130 C.3    61  ARG61       0.0489
     34  CD       -15.2570   18.1130   74.3620 C.3    61  ARG61       0.2205
     35  NE       -15.7420   17.9210   75.6860 N.pl3  61  ARG61      -0.0865
     36  CZ       -16.5990   18.7140   76.3030 C.cat  61  ARG61       0.5346
     37  NH1      -16.9560   18.3970   77.5020 N.pl3  61  ARG61       0.1354
     38  NH2      -17.1120   19.8050   75.7030 N.pl3  61  ARG61       0.1354
     39  N        -12.8630   22.0620   75.8120 N.am   62  ARG62      -0.1980
     40  CA       -13.3220   23.3850   75.4580 C.3    62  ARG62       0.1597
     41  C        -12.1610   24.2930   75.0540 C.2    62  ARG62       0.2287
     42  O        -12.2670   24.9670   74.0380 O.2    62  ARG62      -0.2864
     43  CB       -14.1350   24.0310   76.5720 C.3    62  ARG62       0.0334
     44  CG       -15.5460   23.4450   76.6720 C.3    62  ARG62       0.0492
     45  CD       -16.3880   24.1890   77.7130 C.3    62  ARG62       0.2205
     46  NE       -16.0190   23.7100   79.0200 N.pl3  62  ARG62      -0.0865
     47  CZ       -16.4570   22.5820   79.5810 C.cat  62  ARG62       0.5346
     48  NH1      -17.3370   21.8180   78.9540 N.pl3  62  ARG62       0.1354
     49  NH2      -16.0060   22.2160   80.7800 N.pl3  62  ARG62       0.1354
     50  N        -10.6810   27.4370   84.9570 N.3    78  THR78      -0.1218
     51  CA       -11.9250   28.0760   85.4010 C.3    78  THR78       0.1862
     52  C        -11.6150   28.7690   86.7140 C.2    78  THR78       0.2287
     53  O        -11.0640   28.1590   87.6140 O.2    78  THR78      -0.2866
     54  CB       -13.0360   27.0120   85.6240 C.3    78  THR78       0.1770
     55  OG1      -13.3660   26.4170   84.3720 O.3    78  THR78      -0.2211
     56  CG2      -14.3110   27.5720   86.2710 C.3    78  THR78       0.0375
     57  N        -14.4970   27.9530   91.6500 N.3    81  GLY81      -0.1210
     58  CA       -14.8140   26.5400   91.6810 C.3    81  GLY81       0.1956
     59  C        -15.9780   26.3090   92.6230 C.2    81  GLY81       0.2611
     60  O        -16.0980   26.9800   93.6590 O.2    81  GLY81      -0.2717
     61  N        -16.8350   25.3640   92.2540 N.am   82  ILE82      -0.1979
     62  CA       -18.0180   25.0130   93.0220 C.3    82  ILE82       0.1595
     63  C        -17.5660   24.2100   94.2520 C.2    82  ILE82       0.2287
     64  O        -16.8040   23.2630   94.1450 O.2    82  ILE82      -0.2864
     65  CB       -19.0140   24.2200   92.1630 C.3    82  ILE82       0.0276
     66  CG1      -19.5200   25.1020   90.9900 C.3    82  ILE82       0.0022
     67  CG2      -20.2040   23.7690   92.9920 C.3    82  ILE82       0.0022
     68  CD1      -20.1240   24.2950   89.8110 C.3    82  ILE82       0.0001
     69  N        -25.7350   21.0990   88.8560 N.3    99  ARG99      -0.1231
     70  CA       -24.6950   21.8120   88.1160 C.3    99  ARG99       0.1694
     71  C        -24.0460   21.0050   86.9960 C.2    99  ARG99       0.2592
     72  O        -23.2180   21.5400   86.2630 O.2    99  ARG99      -0.2718
     73  CB       -23.6040   22.3120   89.0720 C.3    99  ARG99       0.0321
     74  CG       -24.1060   23.1400   90.2520 C.3    99  ARG99       0.0489
     75  CD       -24.8360   24.3880   89.8120 C.3    99  ARG99       0.2205
     76  NE       -23.9030   25.3480   89.2190 N.pl3  99  ARG99      -0.0865
     77  CZ       -23.2070   26.2600   89.9050 C.cat  99  ARG99       0.5346
     78  NH1      -23.3230   26.3660   91.2320 N.pl3  99  ARG99       0.1354
     79  NH2      -22.3890   27.0790   89.2520 N.pl3  99  ARG99       0.1354
     80  N        -24.4150   19.7360   86.8440 N.am  100  HIS100     -0.1962
     81  CA       -23.8160   18.8570   85.8230 C.3   100  HIS100      0.1787
     82  C        -22.2990   18.7590   85.9050 C.2   100  HIS100      0.2620
     83  O        -21.5890   18.9020   84.9110 O.2   100  HIS100     -0.2715
     84  CB       -24.2870   19.2510   84.4190 C.3   100  HIS100      0.0785
     85  CG       -25.7760   19.2860   84.3050 C.ar  100  HIS100      0.0821
     86  ND1      -26.5090   18.2500   83.7590 N.ar  100  HIS100     -0.2267
     87  CD2      -26.6750   20.1990   84.7450 C.ar  100  HIS100      0.1154
     88  CE1      -27.7960   18.5460   83.8320 C.ar  100  HIS100      0.1986
     89  NE2      -27.9240   19.7190   84.4350 N.ar  100  HIS100     -0.2212
     90  N        -21.8250   18.4610   87.1050 N.am  101  ILE101     -0.1963
     91  CA       -20.4090   18.2280   87.3710 C.3   101  ILE101      0.1727
     92  C        -20.2920   16.8800   88.0660 C.2   101  ILE101      0.2617
     93  O        -21.2770   16.3870   88.5940 O.2   101  ILE101     -0.2715
     94  CB       -19.8190   19.3590   88.2470 C.3   101  ILE101      0.0290
     95  CG1      -20.5550   19.4650   89.6000 C.3   101  ILE101      0.0022
     96  CG2      -19.8780   20.6930   87.4750 C.3   101  ILE101      0.0023
     97  CD1      -19.9830   20.5640   90.6070 C.3   101  ILE101      0.0001
     98  N        -19.1160   16.2710   88.0370 N.am  102  THR102     -0.1937
     99  CA       -18.9360   14.9860   88.6890 C.3   102  THR102      0.2028
    100  C        -17.9480   15.0120   89.8740 C.2   102  THR102      0.2642
    101  O        -17.6480   13.9780   90.4530 O.2   102  THR102     -0.2714
    102  CB       -18.5310   13.9320   87.7020 C.3   102  THR102      0.1808
    103  OG1      -17.3580   14.3670   87.0140 O.3   102  THR102     -0.2208
    104  CG2      -19.6950   13.6890   86.6690 C.3   102  THR102      0.0379
    105  N        -17.4580   16.1830   90.2410 N.am  103  CYS103     -0.1953
    106  CA       -16.4900   16.2840   91.3550 C.3   103  CYS103      0.1843
    107  C        -16.5970   17.6800   91.9680 C.2   103  CYS103      0.2625
    108  O        -16.5890   18.6680   91.2240 O.2   103  CYS103     -0.2714
    109  CB       -15.0530   15.9790   90.8450 C.3   103  CYS103      0.0997
    110  SG       -13.7920   15.5930   92.1380 S.3   103  CYS103     -0.0797
    111  N        -16.6960   17.7690   93.3100 N.am  104  VAL104     -0.1963
    112  CA       -16.9360   19.0240   94.0140 C.3   104  VAL104      0.1727
    113  C        -15.8140   19.2620   95.0420 C.2   104  VAL104      0.2616
    114  O        -15.2890   18.3140   95.6530 O.2   104  VAL104     -0.2715
    115  CB       -18.3580   19.0330   94.6530 C.3   104  VAL104      0.0290
    116  CG1      -18.4860   17.9370   95.7000 C.3   104  VAL104      0.0023
    117  CG2      -18.7100   20.3770   95.2880 C.3   104  VAL104      0.0023
    118  N        -15.4160   20.5230   95.1800 N.am  105  LEU105     -0.1977
    119  CA       -14.3760   20.8770   96.1370 C.3   105  LEU105      0.1596
    120  C        -15.0190   20.9440   97.5150 C.2   105  LEU105      0.2287
    121  O        -16.1860   21.3510   97.6470 O.2   105  LEU105     -0.2864
    122  CB       -13.7700   22.2370   95.8020 C.3   105  LEU105      0.0297
    123  CG       -13.2060   22.3780   94.3800 C.3   105  LEU105      0.0022
    124  CD1      -12.7920   23.8250   94.1800 C.3   105  LEU105      0.0001
    125  CD2      -12.0430   21.4160   94.1840 C.3   105  LEU105      0.0001
@<TRIPOS>BOND
     1    31    30    2
     2    42    41    2
     3    33    34    1
     4    33    32    1
     5    34    35    1
     6    30    29    1
     7    30    39   am
     8    41    40    1
     9    29    32    1
    10    29    28    1
    11    40    39    1
    12    40    43    1
    13    35    36    2
    14    38    36    1
    15    36    37    1
    16    43    44    1
    17    44    45    1
    18    45    46    1
    19    23    22    2
    20    19    18    2
    21    48    47    1
    22    46    47    2
    23    22    21    1
    24    18    17    1
    25    18    20   am
    26    47    49    1
    27    17    16    1
    28    21    20    1
    29    21    24    1
    30    24    25    1
    31    26    25   ar
    32    12    11    2
    33    25    27   ar
    34    11    10    1
    35    14    13    1
    36    86    88   ar
    37    86    85   ar
    38    88    89   ar
    39    85    84    1
    40    85    87   ar
    41    10    13    1
    42    10     9    1
    43    55    54    1
    44    84    81    1
    45    89    87   ar
    46    13    15    1
    47    83    82    2
    48    50    51    1
    49    51    54    1
    50    51    52    1
    51    54    56    1
    52    81    82    1
    53    81    80    1
    54    82    90   am
    55    72    71    2
    56     4     3    2
    57   104   102    1
    58    52    53    2
    59    80    71   am
    60    71    70    1
    61   103   102    1
    62    90    91    1
    63     3     2    1
    64    91    92    1
    65    91    94    1
    66    96    94    1
    67   102    99    1
    68    98    92   am
    69    98    99    1
    70    92    93    2
    71    70    69    1
    72    70    73    1
    73    94    95    1
    74     6     8    1
    75     6     5    1
    76    99   100    1
    77     2     1    1
    78     2     5    1
    79    73    74    1
    80    76    75    1
    81    76    77    2
    82    79    77    1
    83     5     7    1
    84    95    97    1
    85    68    66    1
    86    75    74    1
    87   100   105   am
    88   100   101    2
    89    77    78    1
    90   105   106    1
    91   109   106    1
    92   109   110    1
    93    66    65    1
    94   108   107    2
    95   106   107    1
    96    57    58    1
    97    58    59    1
    98   107   111   am
    99    65    67    1
   100    65    62    1
   101    61    59   am
   102    61    62    1
   103    59    60    2
   104    62    63    1
   105   111   112    1
   106   112   115    1
   107   112   113    1
   108    64    63    2
   109   124   123    1
   110   125   123    1
   111   123   122    1
   112   115   117    1
   113   115   116    1
   114   113   118   am
   115   113   114    2
   116   118   119    1
   117   122   119    1
   118   119   120    1
   119   120   121    2
