@<TRIPOS>MOLECULE
tmp/3k2xB00.pdb
 73 70 0 0 0
SMALL
GASTEIGER

@<TRIPOS>ATOM
      1  N         18.0800  -27.0590  -23.0840 N.3    97  ALA97      -0.1231
      2  CA        18.4470  -25.8860  -23.8710 C.3    97  ALA97       0.1694
      3  C         17.4600  -24.7900  -23.5740 C.2    97  ALA97       0.2591
      4  O         16.2300  -24.9980  -23.6160 O.2    97  ALA97      -0.2718
      5  CB        18.4290  -26.2230  -25.3550 C.3    97  ALA97       0.0304
      6  N         17.9820  -23.6080  -23.2690 N.am   98  GLN98      -0.1979
      7  CA        17.1260  -22.4940  -22.9080 C.3    98  GLN98       0.1601
      8  C         16.4060  -22.0190  -24.1860 C.2    98  GLN98       0.2287
      9  O         15.2440  -21.6000  -24.1460 O.2    98  GLN98      -0.2864
     10  CB        17.9620  -21.4010  -22.2110 C.3    98  GLN98       0.0394
     11  CG        17.1760  -20.3010  -21.4580 C.3    98  GLN98       0.0908
     12  CD        16.2950  -20.8170  -20.3110 C.2    98  GLN98       0.2608
     13  OE1       16.7260  -21.6170  -19.4810 O.2    98  GLN98      -0.2717
     14  NE2       15.0470  -20.3470  -20.2670 N.am   98  GLN98      -0.0878
     15  N         16.7780  -22.6730  -28.9160 N.3   100  PRO100     -0.2102
     16  CA        15.4240  -22.3180  -29.3850 C.3   100  PRO100      0.1504
     17  C         14.4010  -23.3770  -28.9920 C.2   100  PRO100      0.2576
     18  O         14.7560  -24.3410  -28.3070 O.2   100  PRO100     -0.2718
     19  CB        15.5910  -22.2950  -30.9070 C.3   100  PRO100      0.0282
     20  CG        16.6540  -23.3330  -31.1710 C.3   100  PRO100      0.0208
     21  CD        17.5730  -23.3120  -29.9830 C.3   100  PRO100      0.0893
     22  N         13.1530  -23.1940  -29.4240 N.am  101  LYS101     -0.1966
     23  CA        12.0900  -24.1780  -29.1740 C.3   101  LYS101      0.1728
     24  C         12.4090  -25.4680  -29.9320 C.2   101  LYS101      0.2616
     25  O         12.6040  -25.4490  -31.1520 O.2   101  LYS101     -0.2715
     26  CB        10.7220  -23.6190  -29.6010 C.3   101  LYS101      0.0311
     27  CG         9.4940  -24.4090  -29.1710 C.3   101  LYS101      0.0038
     28  CD         8.2860  -23.5690  -29.5190 C.3   101  LYS101      0.0206
     29  CE         6.9560  -24.2830  -29.5310 C.3   101  LYS101      0.1093
     30  NZ         6.8820  -25.1660  -28.3400 N.3   101  LYS101     -0.1314
     31  N         12.4980  -26.5720  -29.2040 N.am  102  LEU102     -0.1963
     32  CA        12.8420  -27.8690  -29.8020 C.3   102  LEU102      0.1728
     33  C         11.6510  -28.7810  -30.1060 C.2   102  LEU102      0.2616
     34  O         11.7790  -29.7260  -30.9000 O.2   102  LEU102     -0.2715
     35  CB        13.8280  -28.6270  -28.8990 C.3   102  LEU102      0.0311
     36  CG        15.1520  -27.8980  -28.6310 C.3   102  LEU102      0.0022
     37  CD1       15.9130  -28.6600  -27.6020 C.3   102  LEU102      0.0001
     38  CD2       15.9820  -27.7390  -29.8900 C.3   102  LEU102      0.0001
     39  N         10.5060  -28.5170  -29.4770 N.am  103  ALA103     -0.1977
     40  CA         9.3130  -29.3800  -29.6360 C.3   103  ALA103      0.1597
     41  C          8.9690  -29.7210  -31.1030 C.2   103  ALA103      0.2287
     42  O          8.6140  -30.8740  -31.4070 O.2   103  ALA103     -0.2864
     43  CB         8.0660  -28.7600  -28.9070 C.3   103  ALA103      0.0319
     44  N         12.5570  -32.4570  -23.9310 N.3   128  ALA128     -0.1231
     45  CA        13.2880  -31.1740  -23.9300 C.3   128  ALA128      0.1694
     46  C         12.9660  -30.3650  -22.6900 C.2   128  ALA128      0.2592
     47  O         11.8030  -30.3180  -22.2550 O.2   128  ALA128     -0.2718
     48  CB        12.9260  -30.3500  -25.2150 C.3   128  ALA128      0.0304
     49  N         13.9770  -29.7280  -22.1050 N.am  129  LYS129     -0.1966
     50  CA        13.7850  -28.8990  -20.9030 C.3   129  LYS129      0.1728
     51  C         14.5640  -27.5800  -21.0510 C.2   129  LYS129      0.2616
     52  O         15.5980  -27.5610  -21.6970 O.2   129  LYS129     -0.2715
     53  CB        14.3380  -29.6450  -19.6800 C.3   129  LYS129      0.0311
     54  CG        13.6100  -30.9530  -19.3190 C.3   129  LYS129      0.0038
     55  CD        12.2370  -30.7130  -18.7280 C.3   129  LYS129      0.0206
     56  CE        12.2570  -29.7270  -17.5510 C.3   129  LYS129      0.1093
     57  NZ        10.9490  -29.9220  -16.8180 N.3   129  LYS129     -0.1314
     58  N         14.0820  -26.4970  -20.4440 N.am  130  THR130     -0.1951
     59  CA        14.9510  -25.3470  -20.2160 C.3   130  THR130      0.1897
     60  C         15.6770  -25.5640  -18.8940 C.2   130  THR130      0.2313
     61  O         15.3840  -26.5400  -18.1380 O.2   130  THR130     -0.2863
     62  CB        14.1900  -24.0060  -20.1970 C.3   130  THR130      0.1794
     63  OG1       13.4810  -23.8840  -18.9580 O.3   130  THR130     -0.2208
     64  CG2       13.2040  -23.8980  -21.3760 C.3   130  THR130      0.0378
     65  N         15.5400  -23.0690  -16.6680 N.3   132  GLU132     -0.1245
     66  CA        14.8990  -21.9980  -15.8860 C.3   132  GLU132      0.1567
     67  C         15.8200  -20.8130  -15.6390 C.2   132  GLU132      0.2260
     68  O         15.8300  -20.2220  -14.5510 O.2   132  GLU132     -0.2867
     69  CB        14.3080  -22.5460  -14.5760 C.3   132  GLU132      0.0388
     70  CG        13.1680  -23.5630  -14.8000 C.3   132  GLU132      0.1160
     71  CD        11.8750  -22.9000  -15.2760 C.2   132  GLU132      0.3649
     72  OE1       11.6100  -21.7590  -14.8890 O.co2 132  GLU132     -0.2457
     73  OE2       11.1140  -23.5170  -16.0370 O.co2 132  GLU132     -0.2457
@<TRIPOS>BOND
     1    42    41    2
     2    20    19    1
     3    20    21    1
     4    25    24    2
     5    41    40    1
     6    19    16    1
     7    34    33    2
     8    33    32    1
     9    33    39   am
    10    21    15    1
    11    24    31   am
    12    24    23    1
    13    38    36    1
    14    32    31    1
    15    32    35    1
    16    40    39    1
    17    40    43    1
    18    26    23    1
    19    26    27    1
    20    29    28    1
    21    29    30    1
    22    28    27    1
    23    22    23    1
    24    22    17   am
    25    16    17    1
    26    16    15    1
    27    17    18    2
    28    35    36    1
    29    36    37    1
    30     5     2    1
    31    48    45    1
    32     8     9    2
    33     8     7    1
    34    44    45    1
    35    45    46    1
    36     2     3    1
    37     2     1    1
    38     4     3    2
    39     3     6   am
    40     6     7    1
    41     7    10    1
    42    46    47    2
    43    46    49   am
    44    10    11    1
    45    49    50    1
    46    52    51    2
    47    11    12    1
    48    64    62    1
    49    51    50    1
    50    51    58   am
    51    50    53    1
    52    58    59    1
    53    12    14   am
    54    12    13    2
    55    59    62    1
    56    59    60    1
    57    62    63    1
    58    53    54    1
    59    54    55    1
    60    60    61    2
    61    55    56    1
    62    56    57    1
    63    65    66    1
    64    73    71   ar
    65    66    67    1
    66    66    69    1
    67    67    68    2
    68    71    72   ar
    69    71    70    1
    70    70    69    1
