@<TRIPOS>MOLECULE
tmp/3k30B01.pdb
 174 165 0 0 0
SMALL
GASTEIGER

@<TRIPOS>ATOM
      1  N         12.1900  -10.2060   49.2200 N.3   391  VAL391     -0.1231
      2  CA        13.2500  -10.5360   50.1500 C.3   391  VAL391      0.1692
      3  C         14.4380   -9.5780   49.9680 C.2   391  VAL391      0.2593
      4  O         15.1170   -9.5940   48.9280 O.2   391  VAL391     -0.2718
      5  CB        13.7950  -11.9160   49.8460 C.3   391  VAL391      0.0266
      6  CG1       14.7280  -12.3240   50.9260 C.3   391  VAL391      0.0020
      7  CG2       12.6670  -12.9110   49.6670 C.3   391  VAL391      0.0020
      8  N         14.7430   -8.8040   50.9980 N.am  392  GLY392     -0.1942
      9  CA        15.8120   -7.8360   50.9100 C.3   392  GLY392      0.2014
     10  C         15.1980   -6.4520   50.8690 C.2   392  GLY392      0.2639
     11  O         14.3860   -6.1440   49.9930 O.2   392  GLY392     -0.2714
     12  N         15.5580   -5.6190   51.8370 N.am  393  ALA393     -0.1963
     13  CA        15.0750   -4.2440   51.8530 C.3   393  ALA393      0.1728
     14  C         16.2120   -3.2580   51.5080 C.2   393  ALA393      0.2617
     15  O         16.3790   -2.2470   52.1770 O.2   393  ALA393     -0.2715
     16  CB        14.4460   -3.9200   53.1970 C.3   393  ALA393      0.0334
     17  N         17.0070   -3.5630   50.4860 N.am  394  GLY394     -0.1941
     18  CA        18.0030   -2.6020   49.9950 C.3   394  GLY394      0.1998
     19  C         17.3290   -1.6530   49.0240 C.2   394  GLY394      0.2481
     20  O         16.1200   -1.6020   48.9510 O.2   394  GLY394     -0.2729
     21  N         18.0910   -0.8950   48.2510 N.am  395  PRO395     -0.2715
     22  CA        17.4120    0.0290   47.3270 C.3   395  PRO395      0.1536
     23  C         16.4390   -0.6960   46.3840 C.2   395  PRO395      0.2599
     24  O         15.3120   -0.2740   46.1540 O.2   395  PRO395     -0.2715
     25  CB        18.5720    0.6650   46.5460 C.3   395  PRO395      0.0310
     26  CG        19.8040   -0.0130   46.9840 C.3   395  PRO395      0.0237
     27  CD        19.5400   -0.6690   48.2910 C.3   395  PRO395      0.0939
     28  N         16.9060   -1.8060   45.8650 N.am  396  SER396     -0.1950
     29  CA        16.1840   -2.6080   44.9190 C.3   396  SER396      0.1924
     30  C         14.7770   -3.0300   45.3910 C.2   396  SER396      0.2314
     31  O         13.7550   -2.7240   44.7540 O.2   396  SER396     -0.2863
     32  CB        16.9910   -3.8680   44.7660 C.3   396  SER396      0.2116
     33  OG        16.7550   -4.3080   43.4960 O.3   396  SER396     -0.2180
     34  N         10.5740   -8.9180   53.4860 N.3   414  ALA414     -0.1231
     35  CA        11.3440   -9.5340   54.5340 C.3   414  ALA414      0.1694
     36  C         12.7850   -9.0280   54.4310 C.2   414  ALA414      0.2592
     37  O         13.3270   -8.9390   53.3350 O.2   414  ALA414     -0.2718
     38  CB        11.2820  -11.0300   54.4150 C.3   414  ALA414      0.0304
     39  N         13.3730   -8.6720   55.5730 N.am  415  GLU415     -0.1966
     40  CA        14.7200   -8.1810   55.6510 C.3   415  GLU415      0.1733
     41  C         15.4380   -8.9530   56.7490 C.2   415  GLU415      0.2616
     42  O         14.9100   -9.1270   57.8700 O.2   415  GLU415     -0.2715
     43  CB        14.7150   -6.6780   55.9370 C.3   415  GLU415      0.0429
     44  CG        16.0800   -6.0680   56.3800 C.3   415  GLU415      0.1163
     45  CD        17.2390   -6.4520   55.4380 C.2   415  GLU415      0.3649
     46  OE1       17.0750   -6.3560   54.1760 O.co2 415  GLU415     -0.2457
     47  OE2       18.3110   -6.8550   55.9590 O.co2 415  GLU415     -0.2457
     48  N         16.6450   -9.4020   56.4220 N.am  416  ALA416     -0.1963
     49  CA        17.5020  -10.1620   57.3170 C.3   416  ALA416      0.1728
     50  C         18.0300   -9.3860   58.5310 C.2   416  ALA416      0.2616
     51  O         18.2220   -9.9550   59.5940 O.2   416  ALA416     -0.2715
     52  CB        18.7050  -10.7390   56.5070 C.3   416  ALA416      0.0334
     53  N         18.2800   -8.0930   58.3790 N.am  417  GLY417     -0.1955
     54  CA        19.0030   -7.3330   59.4070 C.3   417  GLY417      0.1869
     55  C         18.1080   -6.4660   60.2580 C.2   417  GLY417      0.2309
     56  O         16.9100   -6.3920   60.0400 O.2   417  GLY417     -0.2863
     57  N         18.2560   -3.3080   60.2330 N.3   419  ASP419     -0.1239
     58  CA        17.9310   -2.1110   59.4540 C.3   419  ASP419      0.1674
     59  C         17.3320   -2.3830   58.0940 C.2   419  ASP419      0.2266
     60  O         17.5170   -3.4570   57.4930 O.2   419  ASP419     -0.2867
     61  CB        19.1720   -1.2360   59.2930 C.3   419  ASP419      0.1410
     62  CG        19.8800   -0.9700   60.6360 C.2   419  ASP419      0.3668
     63  OD1       19.2360   -1.2380   61.6910 O.co2 419  ASP419     -0.2456
     64  OD2       21.0650   -0.4990   60.6550 O.co2 419  ASP419     -0.2456
     65  N         19.8000   -1.5690   53.2560 N.3   422  GLY422     -0.1210
     66  CA        20.8610   -2.3300   52.6190 C.3   422  GLY422      0.1956
     67  C         22.0910   -1.4900   52.3650 C.2   422  GLY422      0.2611
     68  O         22.6420   -0.8930   53.2990 O.2   422  GLY422     -0.2717
     69  N         22.5290   -1.4450   51.1150 N.am  423  ARG423     -0.1979
     70  CA        23.7340   -0.7080   50.7980 C.3   423  ARG423      0.1597
     71  C         23.5600    0.8170   50.9680 C.2   423  ARG423      0.2287
     72  O         24.5280    1.5450   51.1950 O.2   423  ARG423     -0.2864
     73  CB        24.2540   -1.0830   49.4180 C.3   423  ARG423      0.0334
     74  CG        23.3150   -0.7560   48.3140 C.3   423  ARG423      0.0492
     75  CD        23.8380   -1.1650   46.9690 C.3   423  ARG423      0.2205
     76  NE        24.9550   -0.3110   46.6320 N.pl3 423  ARG423     -0.0865
     77  CZ        25.4210   -0.0890   45.4160 C.cat 423  ARG423      0.5346
     78  NH1       24.9000   -0.6700   44.3430 N.pl3 423  ARG423      0.1354
     79  NH2       26.4160    0.7600   45.2950 N.pl3 423  ARG423      0.1354
     80  N         24.5450    1.2700   54.6530 N.3   426  GLN426     -0.1245
     81  CA        25.9350    0.9910   54.8530 C.3   426  GLN426      0.1566
     82  C         26.8100    2.0950   54.2690 C.2   426  GLN426      0.2260
     83  O         27.7690    2.5250   54.9250 O.2   426  GLN426     -0.2867
     84  CB        26.2880   -0.3160   54.1740 C.3   426  GLN426      0.0367
     85  CG        25.6450   -1.5520   54.7450 C.3   426  GLN426      0.0905
     86  CD        25.8350   -2.7530   53.8060 C.2   426  GLN426      0.2608
     87  OE1       26.1400   -3.8630   54.2390 O.2   426  GLN426     -0.2717
     88  NE2       25.7060   -2.5110   52.5150 N.am  426  GLN426     -0.0878
     89  N         14.3830  -10.9690   59.6430 N.3   459  SER459     -0.1203
     90  CA        13.7830  -12.1700   59.1220 C.3   459  SER459      0.2005
     91  C         14.5110  -12.7270   57.9150 C.2   459  SER459      0.2461
     92  O         14.0330  -12.6040   56.7870 O.2   459  SER459     -0.2732
     93  CB        12.3400  -11.9010   58.7800 C.3   459  SER459      0.2103
     94  OG        11.7440  -11.3290   59.9190 O.3   459  SER459     -0.2182
     95  N         15.6680  -13.3690   58.1530 N.am  460  PRO460     -0.2717
     96  CA        16.3830  -14.0660   57.0730 C.3   460  PRO460      0.1535
     97  C         15.4710  -15.1120   56.5060 C.2   460  PRO460      0.2598
     98  O         14.7380  -15.7220   57.2750 O.2   460  PRO460     -0.2715
     99  CB        17.5360  -14.7640   57.7910 C.3   460  PRO460      0.0310
    100  CG        17.1640  -14.7690   59.2250 C.3   460  PRO460      0.0237
    101  CD        16.3120  -13.5680   59.4610 C.3   460  PRO460      0.0939
    102  N         15.4990  -15.3220   55.1990 N.am  461  MET461     -0.1978
    103  CA        14.5880  -16.2530   54.5590 C.3   461  MET461      0.1605
    104  C         15.3720  -17.2630   53.7760 C.2   461  MET461      0.2287
    105  O         16.4650  -16.9780   53.2940 O.2   461  MET461     -0.2864
    106  CB        13.6360  -15.5230   53.6170 C.3   461  MET461      0.0413
    107  CG        12.7730  -14.4160   54.2730 C.3   461  MET461      0.0598
    108  SD        11.0990  -14.9860   54.6360 S.3   461  MET461     -0.1393
    109  CE        11.3280  -15.2900   56.4040 C.3   461  MET461      0.0692
    110  N         15.8150   -9.6920   46.2000 N.3   477  ALA477     -0.1231
    111  CA        16.5940   -8.4720   46.1760 C.3   477  ALA477      0.1694
    112  C         17.7430   -8.6060   47.1720 C.2   477  ALA477      0.2593
    113  O         17.9670   -7.7450   47.9930 O.2   477  ALA477     -0.2718
    114  CB        15.7060   -7.3440   46.5690 C.3   477  ALA477      0.0304
    115  N         18.4870   -9.6870   47.0890 N.am  478  THR478     -0.1939
    116  CA        19.3860  -10.0840   48.1630 C.3   478  THR478      0.2028
    117  C         20.7570   -9.4000   48.1920 C.2   478  THR478      0.2643
    118  O         21.4980   -9.5340   49.1810 O.2   478  THR478     -0.2714
    119  CB        19.5380  -11.6040   48.1660 C.3   478  THR478      0.1808
    120  OG1       19.6720  -12.0510   46.8180 O.3   478  THR478     -0.2208
    121  CG2       18.2880  -12.2030   48.7120 C.3   478  THR478      0.0379
    122  N         21.0710   -8.6530   47.1330 N.am  479  GLY479     -0.1939
    123  CA        22.2740   -7.8610   47.0890 C.3   479  GLY479      0.2014
    124  C         23.4370   -8.6080   46.4660 C.2   479  GLY479      0.2638
    125  O         23.2530   -9.5940   45.7420 O.2   479  GLY479     -0.2714
    126  N         24.6360   -8.1210   46.7610 N.am  480  ALA480     -0.1977
    127  CA        25.8680   -8.6920   46.2750 C.3   480  ALA480      0.1597
    128  C         26.8800   -8.5090   47.3840 C.2   480  ALA480      0.2287
    129  O         26.6570   -7.7080   48.2910 O.2   480  ALA480     -0.2864
    130  CB        26.3070   -7.9580   45.0620 C.3   480  ALA480      0.0319
    131  N         24.6890  -12.1980   45.6090 N.3   619  ARG619     -0.1245
    132  CA        24.1730  -13.1410   46.6080 C.3   619  ARG619      0.1563
    133  C         22.9420  -13.7870   45.9940 C.2   619  ARG619      0.2260
    134  O         21.8410  -13.3740   46.2840 O.2   619  ARG619     -0.2867
    135  CB        23.7500  -12.3790   47.8700 C.3   619  ARG619      0.0307
    136  CG        24.6560  -12.5870   49.0670 C.3   619  ARG619      0.0489
    137  CD        24.7340  -11.3940   50.0170 C.3   619  ARG619      0.2205
    138  NE        23.9330  -11.5200   51.2540 N.pl3 619  ARG619     -0.0865
    139  CZ        24.1090  -12.4280   52.2360 C.cat 619  ARG619      0.5346
    140  NH1       25.0510  -13.3980   52.1760 N.pl3 619  ARG619      0.1354
    141  NH2       23.3120  -12.3790   53.2960 N.pl3 619  ARG619      0.1354
    142  N         19.7390  -17.9230   47.1630 N.3   622  LEU622     -0.1245
    143  CA        18.2780  -17.9920   47.3190 C.3   622  LEU622      0.1561
    144  C         17.4800  -18.0560   46.0200 C.2   622  LEU622      0.2260
    145  O         16.5770  -18.8770   45.8960 O.2   622  LEU622     -0.2867
    146  CB        17.7640  -16.8240   48.1480 C.3   622  LEU622      0.0270
    147  CG        16.2520  -16.7730   48.3760 C.3   622  LEU622      0.0019
    148  CD1       15.7750  -17.9630   49.2450 C.3   622  LEU622      0.0001
    149  CD2       15.8680  -15.4250   49.0270 C.3   622  LEU622      0.0001
    150  N         16.4230   -9.3510   41.2860 N.3   641  ILE641     -0.1231
    151  CA        16.5670   -7.9350   40.8900 C.3   641  ILE641      0.1692
    152  C         17.6980   -7.2320   41.6720 C.2   641  ILE641      0.2593
    153  O         18.2130   -7.7420   42.6980 O.2   641  ILE641     -0.2718
    154  CB        15.2880   -7.0750   41.1180 C.3   641  ILE641      0.0266
    155  CG1       15.0940   -6.8740   42.6250 C.3   641  ILE641      0.0019
    156  CG2       14.0400   -7.6240   40.4160 C.3   641  ILE641      0.0020
    157  CD1       13.9860   -5.9870   42.9750 C.3   641  ILE641      0.0001
    158  N         18.0890   -6.0580   41.1870 N.am  642  GLY642     -0.1942
    159  CA        19.1010   -5.2800   41.8560 C.3   642  GLY642      0.2014
    160  C         20.4650   -5.9130   41.7310 C.2   642  GLY642      0.2638
    161  O         20.7540   -6.6190   40.7570 O.2   642  GLY642     -0.2714
    162  N         21.2970   -5.6590   42.7200 N.am  643  ASP643     -0.1971
    163  CA        22.6120   -6.2200   42.7960 C.3   643  ASP643      0.1709
    164  C         22.6860   -7.7680   42.8970 C.2   643  ASP643      0.2293
    165  O         23.7580   -8.3440   42.6330 O.2   643  ASP643     -0.2864
    166  CB        23.3740   -5.5480   43.9460 C.3   643  ASP643      0.1436
    167  CG        23.5420   -4.0500   43.7360 C.2   643  ASP643      0.3671
    168  OD1       23.8940   -3.5740   42.6350 O.co2 643  ASP643     -0.2456
    169  OD2       23.3010   -3.3020   44.6940 O.co2 643  ASP643     -0.2456
    170  N         19.6800   -0.0640   40.7840 N.3   653  ALA653     -0.1245
    171  CA        19.0070   -1.0350   41.6490 C.3   653  ALA653      0.1562
    172  C         17.6050   -0.5440   41.8760 C.2   653  ALA653      0.2260
    173  O         16.6640   -1.3390   41.9340 O.2   653  ALA653     -0.2867
    174  CB        19.6970   -1.1520   42.9640 C.3   653  ALA653      0.0290
@<TRIPOS>BOND
     1   156   154    1
     2   161   160    2
     3   170   171    1
     4   151   154    1
     5   151   150    1
     6   151   152    1
     7   154   155    1
     8   158   152   am
     9   158   159    1
    10   171   172    1
    11   171   174    1
    12   152   153    2
    13   160   159    1
    14   160   162   am
    15   172   173    2
    16   155   157    1
    17   165   164    2
    18   168   167   ar
    19   162   163    1
    20   163   164    1
    21   163   166    1
    22    33    32    1
    23   167   166    1
    24   167   169   ar
    25    78    77    1
    26    31    30    2
    27    32    29    1
    28    29    30    1
    29    29    28    1
    30   130   127    1
    31    79    77    1
    32    77    76    2
    33   131   132    1
    34   125   124    2
    35    28    23   am
    36   145   144    2
    37   133   134    2
    38   133   132    1
    39   144   143    1
    40    24    23    2
    41   111   110    1
    42   111   114    1
    43   111   112    1
    44   127   126    1
    45   127   128    1
    46    23    22    1
    47   124   126   am
    48   124   123    1
    49    25    26    1
    50    25    22    1
    51   132   135    1
    52    76    75    1
    53   120   119    1
    54    75    74    1
    55    26    27    1
    56   115   112   am
    57   115   116    1
    58   123   122    1
    59   122   117   am
    60   142   143    1
    61   112   113    2
    62   143   146    1
    63    22    21    1
    64   128   129    2
    65   135   136    1
    66   146   147    1
    67   116   119    1
    68   116   117    1
    69   119   121    1
    70   117   118    2
    71    21    27    1
    72    21    19   am
    73    74    73    1
    74   147   149    1
    75   147   148    1
    76     4     3    2
    77    20    19    2
    78    19    18    1
    79   136   137    1
    80     1     2    1
    81    73    70    1
    82     7     5    1
    83     5     2    1
    84     5     6    1
    85     3     2    1
    86     3     8   am
    87    11    10    2
    88    18    17    1
    89   137   138    1
    90    17    14   am
    91    70    71    1
    92    70    69    1
    93    10     9    1
    94    10    12   am
    95     9     8    1
    96    71    72    2
    97    69    67   am
    98   138   139    2
    99    14    13    1
   100    14    15    2
   101    12    13    1
   102    13    16    1
   103   140   139    1
   104   139   141    1
   105    67    66    1
   106    67    68    2
   107    88    86   am
   108    66    65    1
   109   105   104    2
   110    37    36    2
   111    34    35    1
   112   106   107    1
   113   106   103    1
   114   104   103    1
   115    86    87    2
   116    86    85    1
   117    84    85    1
   118    84    81    1
   119    46    45   ar
   120    82    81    1
   121    82    83    2
   122   107   108    1
   123    38    35    1
   124    36    35    1
   125    36    39   am
   126   103   102    1
   127   108   109    1
   128    80    81    1
   129   102    97   am
   130    45    47   ar
   131    45    44    1
   132    39    40    1
   133    40    43    1
   134    40    41    1
   135    43    44    1
   136    48    41   am
   137    48    49    1
   138    97    96    1
   139    97    98    2
   140    52    49    1
   141    41    42    2
   142    92    91    2
   143    96    99    1
   144    96    95    1
   145    49    50    1
   146    60    59    2
   147    99   100    1
   148    91    95   am
   149    91    90    1
   150    59    58    1
   151    95   101    1
   152    53    50   am
   153    53    54    1
   154    50    51    2
   155    93    90    1
   156    93    94    1
   157    90    89    1
   158   100   101    1
   159    61    58    1
   160    61    62    1
   161    54    55    1
   162    58    57    1
   163    56    55    2
   164    62    64   ar
   165    62    63   ar
