@<TRIPOS>MOLECULE
tmp/3k30B00.pdb
 230 223 0 0 0
SMALL
GASTEIGER

@<TRIPOS>ATOM
      1  N         14.7930   25.4290   36.1110 N.3    26  VAL26      -0.1231
      2  CA        15.7950   26.1020   35.2800 C.3    26  VAL26       0.1678
      3  C         16.3230   25.2060   34.1660 C.2    26  VAL26       0.2434
      4  O         16.1390   23.9840   34.1830 O.2    26  VAL26      -0.2733
      5  CB        17.0000   26.6350   36.1180 C.3    26  VAL26       0.0265
      6  CG1       16.5490   27.6550   37.1660 C.3    26  VAL26       0.0020
      7  CG2       17.7490   25.5010   36.7420 C.3    26  VAL26       0.0020
      8  N         16.9940   25.8040   33.1780 N.am   27  PRO27      -0.2718
      9  CA        17.4910   24.9260   32.1220 C.3    27  PRO27       0.1535
     10  C         18.3760   23.7690   32.6150 C.2    27  PRO27       0.2599
     11  O         19.2680   23.9680   33.4290 O.2    27  PRO27      -0.2715
     12  CB        18.2490   25.8870   31.2060 C.3    27  PRO27       0.0310
     13  CG        17.4600   27.1860   31.3340 C.3    27  PRO27       0.0237
     14  CD        16.9880   27.2270   32.7630 C.3    27  PRO27       0.0939
     15  N         18.0770   22.5630   32.1360 N.am   28  HIS28      -0.1960
     16  CA        18.9020   21.4030   32.3950 C.3    28  HIS28       0.1787
     17  C         18.7920   20.3990   31.2650 C.2    28  HIS28       0.2620
     18  O         17.7110   20.1810   30.7120 O.2    28  HIS28      -0.2715
     19  CB        18.6290   20.7740   33.7910 C.3    28  HIS28       0.0785
     20  CG        17.3670   19.9680   33.8800 C.ar   28  HIS28       0.0821
     21  ND1       17.2360   18.7250   33.3020 N.ar   28  HIS28      -0.2267
     22  CD2       16.1930   20.2080   34.5150 C.ar   28  HIS28       0.1154
     23  CE1       16.0330   18.2400   33.5590 C.ar   28  HIS28       0.1986
     24  NE2       15.3800   19.1210   34.2950 N.ar   28  HIS28      -0.2212
     25  N         19.9580   19.8510   30.9170 N.am   29  CYS29      -0.1968
     26  CA        20.1690   18.7550   29.9400 C.3    29  CYS29       0.1712
     27  C         19.5020   17.4180   30.3320 C.2    29  CYS29       0.2296
     28  O         19.0680   17.2470   31.4570 O.2    29  CYS29      -0.2864
     29  CB        21.6750   18.5110   29.8060 C.3    29  CYS29       0.0983
     30  SG        22.4740   18.3030   31.4480 S.3    29  CYS29      -0.0798
     31  N         16.8490   22.1790   27.8020 N.3    58  GLU58      -0.1231
     32  CA        18.2820   22.3720   27.9450 C.3    58  GLU58       0.1699
     33  C         18.7120   23.3920   26.9350 C.2    58  GLU58       0.2592
     34  O         17.8820   23.9360   26.1920 O.2    58  GLU58      -0.2718
     35  CB        19.0790   21.0680   27.7510 C.3    58  GLU58       0.0402
     36  CG        19.0540   20.4920   26.3570 C.3    58  GLU58       0.1161
     37  CD        17.7340   19.7760   26.0870 C.2    58  GLU58       0.3649
     38  OE1       16.6660   20.4200   26.2630 O.co2  58  GLU58      -0.2457
     39  OE2       17.7520   18.5710   25.7190 O.co2  58  GLU58      -0.2457
     40  N         20.0080   23.6660   26.9070 N.am   59  GLN59      -0.1979
     41  CA        20.5260   24.6280   25.9670 C.3    59  GLN59       0.1601
     42  C         20.2790   24.1540   24.5560 C.2    59  GLN59       0.2287
     43  O         20.3640   22.9420   24.2580 O.2    59  GLN59      -0.2864
     44  CB        21.9960   24.9120   26.2170 C.3    59  GLN59       0.0394
     45  CG        22.9330   23.7610   26.0010 C.3    59  GLN59       0.0908
     46  CD        24.2770   24.2510   25.5410 C.2    59  GLN59       0.2608
     47  OE1       24.5930   24.1500   24.3450 O.2    59  GLN59      -0.2717
     48  NE2       25.0670   24.8390   26.4650 N.am   59  GLN59      -0.0878
     49  N         22.4780   17.8060   22.8040 N.3    73  GLU73      -0.1245
     50  CA        21.5110   18.7260   23.3180 C.3    73  GLU73       0.1567
     51  C         20.4630   18.9620   22.2610 C.2    73  GLU73       0.2260
     52  O         20.3600   18.2100   21.3130 O.2    73  GLU73      -0.2867
     53  CB        22.2650   20.0080   23.6470 C.3    73  GLU73       0.0388
     54  CG        23.5790   19.7190   24.3800 C.3    73  GLU73       0.1160
     55  CD        23.3540   19.2580   25.8430 C.2    73  GLU73       0.3649
     56  OE1       22.3240   19.7090   26.4270 O.co2  73  GLU73      -0.2457
     57  OE2       24.1990   18.4870   26.4010 O.co2  73  GLU73      -0.2457
     58  N         16.2480   27.6290   26.3080 N.3   102  GLU102     -0.1245
     59  CA        17.5590   28.2060   26.5840 C.3   102  GLU102      0.1567
     60  C         18.4090   28.3160   25.3220 C.2   102  GLU102      0.2260
     61  O         19.3220   27.5190   25.1070 O.2   102  GLU102     -0.2867
     62  CB        18.2940   27.3790   27.6420 C.3   102  GLU102      0.0388
     63  CG        19.2870   28.1760   28.4720 C.3   102  GLU102      0.1160
     64  CD        20.2420   27.2900   29.2470 C.2   102  GLU102      0.3649
     65  OE1       20.5750   26.1940   28.7500 O.co2 102  GLU102     -0.2457
     66  OE2       20.6600   27.6900   30.3550 O.co2 102  GLU102     -0.2457
     67  N         21.4680   33.4070   26.9820 N.3   170  TYR170     -0.1241
     68  CA        22.2630   32.5580   27.8460 C.3   170  TYR170      0.1605
     69  C         23.7190   32.9920   27.9920 C.2   170  TYR170      0.2264
     70  O         24.4630   33.0010   26.9970 O.2   170  TYR170     -0.2867
     71  CB        22.2190   31.1510   27.2810 C.3   170  TYR170      0.0534
     72  CG        23.0700   30.1500   28.0060 C.ar  170  TYR170     -0.0201
     73  CD1       23.0450   30.0470   29.3830 C.ar  170  TYR170     -0.0009
     74  CD2       23.8880   29.2830   27.2930 C.ar  170  TYR170     -0.0009
     75  CE1       23.8360   29.0980   30.0450 C.ar  170  TYR170      0.0417
     76  CE2       24.6750   28.3260   27.9370 C.ar  170  TYR170      0.0417
     77  CZ        24.6360   28.2370   29.3060 C.ar  170  TYR170      0.1957
     78  OH        25.4180   27.2960   29.9250 O.3   170  TYR170     -0.2866
     79  N         27.9050   29.5200   33.0470 N.3   173  HIS173     -0.1241
     80  CA        28.6500   28.2290   33.0250 C.3   173  HIS173      0.1621
     81  C         29.9290   28.2360   32.2190 C.2   173  HIS173      0.2264
     82  O         30.4940   27.1870   31.9500 O.2   173  HIS173     -0.2867
     83  CB        27.7760   27.0370   32.5460 C.3   173  HIS173      0.0745
     84  CG        26.4630   26.9280   33.2450 C.ar  173  HIS173      0.0817
     85  ND1       25.2690   27.2430   32.6330 N.ar  173  HIS173     -0.2268
     86  CD2       26.1550   26.5560   34.5120 C.ar  173  HIS173      0.1154
     87  CE1       24.2820   27.0730   33.4960 C.ar  173  HIS173      0.1986
     88  NE2       24.7920   26.6610   34.6440 N.ar  173  HIS173     -0.2212
     89  N         20.0980   34.3320   31.7160 N.3   224  ARG224     -0.1245
     90  CA        20.8380   33.4690   32.6330 C.3   224  ARG224      0.1563
     91  C         22.3060   33.8490   32.6650 C.2   224  ARG224      0.2260
     92  O         23.0210   33.6720   31.6940 O.2   224  ARG224     -0.2867
     93  CB        20.6980   31.9900   32.2800 C.3   224  ARG224      0.0307
     94  CG        21.2030   31.1420   33.4150 C.3   224  ARG224      0.0489
     95  CD        20.7470   29.7200   33.3450 C.3   224  ARG224      0.2205
     96  NE        20.6550   29.2160   34.7150 N.pl3 224  ARG224     -0.0865
     97  CZ        20.7520   27.9420   35.0690 C.cat 224  ARG224      0.5346
     98  NH1       20.9450   26.9890   34.1620 N.pl3 224  ARG224      0.1354
     99  NH2       20.6500   27.6210   36.3430 N.pl3 224  ARG224      0.1354
    100  N         30.3130   24.6100   35.1710 N.3   261  TRP261     -0.1241
    101  CA        29.3780   23.5710   35.5290 C.3   261  TRP261      0.1605
    102  C         29.8840   22.7170   36.7030 C.2   261  TRP261      0.2264
    103  O         29.0600   22.2800   37.5230 O.2   261  TRP261     -0.2867
    104  CB        29.0070   22.7600   34.2990 C.3   261  TRP261      0.0550
    105  CG        27.8560   21.8180   34.4550 C.ar  261  TRP261      0.0003
    106  CD1       26.9480   21.7590   35.4890 C.ar  261  TRP261      0.0946
    107  CD2       27.4580   20.8040   33.5100 C.ar  261  TRP261      0.0152
    108  NE1       26.0290   20.7480   35.2540 N.ar  261  TRP261     -0.2442
    109  CE2       26.3180   20.1530   34.0470 C.ar  261  TRP261      0.0810
    110  CE3       27.9590   20.3830   32.2610 C.ar  261  TRP261      0.0012
    111  CZ2       25.6810   19.0950   33.3830 C.ar  261  TRP261      0.0191
    112  CZ3       27.3320   19.3330   31.6020 C.ar  261  TRP261      0.0001
    113  CH2       26.1980   18.6990   32.1670 C.ar  261  TRP261      0.0015
    114  N         28.6970   24.9000   39.4870 N.3   264  ASP264     -0.1225
    115  CA        27.2240   24.9410   39.5500 C.3   264  ASP264      0.1805
    116  C         26.5500   23.6510   40.0960 C.2   264  ASP264      0.2598
    117  O         25.8260   23.7300   41.0640 O.2   264  ASP264     -0.2718
    118  CB        26.6620   25.3590   38.1690 C.3   264  ASP264      0.1424
    119  CG        25.2740   26.0850   38.2430 C.2   264  ASP264      0.3668
    120  OD1       25.0760   27.0100   39.0750 O.co2 264  ASP264     -0.2456
    121  OD2       24.3850   25.7430   37.4190 O.co2 264  ASP264     -0.2456
    122  N         26.7920   22.4870   39.4990 N.am  265  SER265     -0.1952
    123  CA        26.1920   21.2240   39.9880 C.3   265  SER265      0.1924
    124  C         27.0370   20.4480   40.9910 C.2   265  SER265      0.2314
    125  O         27.4720   19.3310   40.7190 O.2   265  SER265     -0.2863
    126  CB        25.8800   20.2950   38.8290 C.3   265  SER265      0.2116
    127  OG        24.8130   20.8270   38.0870 O.3   265  SER265     -0.2180
    128  N         24.9440   28.6060   46.8180 N.3   276  GLN276     -0.1245
    129  CA        25.0280   29.7630   45.9360 C.3   276  GLN276      0.1566
    130  C         24.5250   31.0950   46.5290 C.2   276  GLN276      0.2260
    131  O         24.4770   32.1100   45.8290 O.2   276  GLN276     -0.2867
    132  CB        24.2750   29.4690   44.6420 C.3   276  GLN276      0.0367
    133  CG        24.8310   28.2910   43.8360 C.3   276  GLN276      0.0905
    134  CD        24.3820   28.3300   42.3900 C.2   276  GLN276      0.2608
    135  OE1       23.8810   29.3410   41.9050 O.2   276  GLN276     -0.2717
    136  NE2       24.5630   27.2310   41.6950 N.am  276  GLN276     -0.0878
    137  N         19.2500   28.8910   42.1850 N.3   294  VAL294     -0.1231
    138  CA        19.3270   27.4720   42.5320 C.3   294  VAL294      0.1692
    139  C         20.1740   27.2250   43.7560 C.2   294  VAL294      0.2593
    140  O         21.0450   28.0150   44.0910 O.2   294  VAL294     -0.2718
    141  CB        19.8520   26.6220   41.3700 C.3   294  VAL294      0.0266
    142  CG1       18.9010   26.7460   40.1680 C.3   294  VAL294      0.0020
    143  CG2       21.2830   27.0450   40.9840 C.3   294  VAL294      0.0020
    144  N         19.9270   26.1310   44.4500 N.am  295  GLY295     -0.1942
    145  CA        20.8250   25.8210   45.5470 C.3   295  GLY295      0.2014
    146  C         20.7720   24.3900   45.9550 C.2   295  GLY295      0.2639
    147  O         21.0200   24.0820   47.1080 O.2   295  GLY295     -0.2714
    148  N         20.4840   23.5140   44.9960 N.am  296  ARG296     -0.1963
    149  CA        20.0640   22.1470   45.2770 C.3   296  ARG296      0.1729
    150  C         18.9210   22.1460   46.3220 C.2   296  ARG296      0.2616
    151  O         18.9480   21.3900   47.3010 O.2   296  ARG296     -0.2715
    152  CB        21.2530   21.2720   45.6940 C.3   296  ARG296      0.0348
    153  CG        21.1210   19.7980   45.2720 C.3   296  ARG296      0.0492
    154  CD        22.3710   18.9490   45.6210 C.3   296  ARG296      0.2205
    155  NE        22.6380   18.9460   47.0680 N.pl3 296  ARG296     -0.0865
    156  CZ        23.7780   19.3450   47.6530 C.cat 296  ARG296      0.5346
    157  NH1       23.8830   19.2980   48.9550 N.pl3 296  ARG296      0.1354
    158  NH2       24.8280   19.7590   46.9520 N.pl3 296  ARG296      0.1354
    159  N         17.9190   22.9930   46.0920 N.am  297  PHE297     -0.1974
    160  CA        16.8590   23.2420   47.0650 C.3   297  PHE297      0.1639
    161  C         15.9550   22.0430   47.2090 C.2   297  PHE297      0.2290
    162  O         15.2050   21.7350   46.2720 O.2   297  PHE297     -0.2864
    163  CB        16.0290   24.4730   46.6780 C.3   297  PHE297      0.0560
    164  CG        16.7760   25.7620   46.8020 C.ar  297  PHE297     -0.0200
    165  CD1       17.3800   26.1250   48.0200 C.ar  297  PHE297     -0.0042
    166  CD2       16.8960   26.6190   45.7040 C.ar  297  PHE297     -0.0042
    167  CE1       18.1200   27.3330   48.1420 C.ar  297  PHE297     -0.0003
    168  CE2       17.6150   27.8290   45.8070 C.ar  297  PHE297     -0.0003
    169  CZ        18.2240   28.1960   47.0280 C.ar  297  PHE297     -0.0000
    170  N         14.3250   28.2800   42.0560 N.3   316  GLY316     -0.1210
    171  CA        14.8280   27.5610   40.8930 C.3   316  GLY316      0.1956
    172  C         15.3240   26.1800   41.2420 C.2   316  GLY316      0.2612
    173  O         15.8790   25.9590   42.3180 O.2   316  GLY316     -0.2717
    174  N         15.1150   25.2250   40.3530 N.am  317  ALA317     -0.1965
    175  CA        15.6050   23.9030   40.6340 C.3   317  ALA317      0.1728
    176  C         15.8700   23.1250   39.3490 C.2   317  ALA317      0.2616
    177  O         15.0100   23.0510   38.4400 O.2   317  ALA317     -0.2715
    178  CB        14.6290   23.1500   41.5580 C.3   317  ALA317      0.0334
    179  N         17.0610   22.5380   39.2660 N.am  318  ALA318     -0.1963
    180  CA        17.2750   21.4810   38.2800 C.3   318  ALA318      0.1728
    181  C         17.1070   20.0920   38.9060 C.2   318  ALA318      0.2616
    182  O         16.0650   19.4650   38.7630 O.2   318  ALA318     -0.2715
    183  CB        18.5780   21.6160   37.6550 C.3   318  ALA318      0.0334
    184  N         18.1160   19.6210   39.6180 N.am  319  ARG319     -0.1964
    185  CA        18.0970   18.2650   40.1420 C.3   319  ARG319      0.1714
    186  C         16.9890   17.9550   41.1490 C.2   319  ARG319      0.2458
    187  O         16.4650   16.8550   41.1740 O.2   319  ARG319     -0.2730
    188  CB        19.4540   17.9450   40.7590 C.3   319  ARG319      0.0347
    189  CG        20.5600   17.7820   39.7330 C.3   319  ARG319      0.0492
    190  CD        21.9260   17.8700   40.3580 C.3   319  ARG319      0.2205
    191  NE        22.1430   19.1670   40.9700 N.pl3 319  ARG319     -0.0865
    192  CZ        23.1750   19.4560   41.7600 C.cat 319  ARG319      0.5346
    193  NH1       23.2620   20.6640   42.2880 N.pl3 319  ARG319      0.1354
    194  NH2       24.1170   18.5310   42.0190 N.pl3 319  ARG319      0.1354
    195  N         16.6580   18.8950   42.0280 N.am  320  PRO320     -0.2727
    196  CA        15.5100   18.5650   42.8700 C.3   320  PRO320      0.1402
    197  C         14.2680   18.2940   42.0180 C.2   320  PRO320      0.2269
    198  O         13.4300   17.4630   42.3620 O.2   320  PRO320     -0.2865
    199  CB        15.3210   19.8230   43.7180 C.3   320  PRO320      0.0296
    200  CG        16.7090   20.4540   43.7840 C.3   320  PRO320      0.0237
    201  CD        17.4220   20.0700   42.5180 C.3   320  PRO320      0.0939
    202  N         14.3070   16.9070   39.0660 N.3   322  ILE322     -0.1245
    203  CA        14.5030   15.6210   38.4290 C.3   322  ILE322      0.1561
    204  C         14.2220   14.5130   39.4420 C.2   322  ILE322      0.2260
    205  O         13.5600   13.5120   39.1290 O.2   322  ILE322     -0.2867
    206  CB        15.9150   15.4980   37.8880 C.3   322  ILE322      0.0252
    207  CG1       16.1080   16.4560   36.7010 C.3   322  ILE322      0.0019
    208  CG2       16.2540   14.0240   37.4990 C.3   322  ILE322      0.0019
    209  CD1       17.6120   16.7190   36.3560 C.3   322  ILE322      0.0001
    210  N         22.7200   11.9110   37.3220 N.3   348  CYS348     -0.1221
    211  CA        22.0040   12.4720   36.1840 C.3   348  CYS348      0.1808
    212  C         22.9870   13.0910   35.1980 C.2   348  CYS348      0.2601
    213  O         22.9920   12.7520   34.0150 O.2   348  CYS348     -0.2717
    214  CB        20.9930   13.5210   36.6490 C.3   348  CYS348      0.0970
    215  SG        21.5140   14.4720   38.0960 S.3   348  CYS348     -0.0800
    216  N         23.8230   13.9980   35.6950 N.am  349  VAL349     -0.1979
    217  CA        24.8440   14.6260   34.8660 C.3   349  VAL349      0.1595
    218  C         25.5870   13.5590   34.0740 C.2   349  VAL349      0.2287
    219  O         25.8920   13.7430   32.8950 O.2   349  VAL349     -0.2864
    220  CB        25.8510   15.4220   35.7150 C.3   349  VAL349      0.0276
    221  CG1       27.0570   15.8150   34.8750 C.3   349  VAL349      0.0022
    222  CG2       25.1850   16.6520   36.3130 C.3   349  VAL349      0.0022
    223  N         19.1930   10.5910   30.9460 N.3   358  ILE358     -0.1245
    224  CA        19.6390   10.6990   32.3070 C.3   358  ILE358      0.1561
    225  C         18.8040    9.7800   33.2080 C.2   358  ILE358      0.2260
    226  O         17.5950    9.5850   32.9770 O.2   358  ILE358     -0.2867
    227  CB        19.6370   12.1820   32.7980 C.3   358  ILE358      0.0252
    228  CG1       18.2360   12.7960   32.6990 C.3   358  ILE358      0.0019
    229  CG2       20.6960   13.0180   32.0350 C.3   358  ILE358      0.0019
    230  CD1       18.1150   14.1240   33.3520 C.3   358  ILE358      0.0001
@<TRIPOS>BOND
     1    52    51    2
     2    51    50    1
     3    49    50    1
     4    50    53    1
     5    53    54    1
     6    43    42    2
     7    47    46    2
     8    54    55    1
     9    42    41    1
    10    61    60    2
    11    60    59    1
    12    46    45    1
    13    46    48   am
    14    39    37   ar
    15    55    57   ar
    16    55    56   ar
    17    41    44    1
    18    41    40    1
    19    45    44    1
    20    37    38   ar
    21    37    36    1
    22    34    33    2
    23    58    59    1
    24    36    35    1
    25    59    62    1
    26    40    33   am
    27    33    32    1
    28    67    68    1
    29    70    69    2
    30    71    68    1
    31    71    72    1
    32    74    76   ar
    33    74    72   ar
    34    62    63    1
    35    35    32    1
    36    31    32    1
    37    68    69    1
    38    76    77   ar
    39    72    73   ar
    40    63    64    1
    41    65    64   ar
    42    64    66   ar
    43    77    78    1
    44    77    75   ar
    45    73    75   ar
    46    29    26    1
    47    29    30    1
    48    26    27    1
    49    26    25    1
    50    27    28    2
    51    18    17    2
    52    25    17   am
    53   223   224    1
    54    12    13    1
    55    12     9    1
    56    17    16    1
    57    13    14    1
    58   112   113   ar
    59   112   110   ar
    60    92    91    2
    61    89    90    1
    62    82    81    2
    63   229   227    1
    64     9    10    1
    65     9     8    1
    66    15    16    1
    67    15    10   am
    68   113   111   ar
    69    81    80    1
    70   110   107   ar
    71    93    90    1
    72    93    94    1
    73   224   227    1
    74   224   225    1
    75    16    19    1
    76    83    80    1
    77    83    84    1
    78    10    11    2
    79    85    84   ar
    80    85    87   ar
    81    90    91    1
    82   228   227    1
    83   228   230    1
    84    14     8    1
    85   219   218    2
    86   226   225    2
    87    80    79    1
    88     8     3   am
    89    84    86   ar
    90    21    23   ar
    91    21    20   ar
    92    95    94    1
    93    95    96    1
    94   111   109   ar
    95    87    88   ar
    96   107   109   ar
    97   107   105   ar
    98    23    24   ar
    99    19    20    1
   100    20    22   ar
   101   213   212    2
   102   109   108   ar
   103   218   217    1
   104    98    97    1
   105     3     4    2
   106     3     2    1
   107    24    22   ar
   108   104   105    1
   109   104   101    1
   110   105   106   ar
   111    86    88   ar
   112    96    97    2
   113   217   216    1
   114   217   220    1
   115   221   220    1
   116    97    99    1
   117   100   101    1
   118   212   216   am
   119   212   211    1
   120   108   106   ar
   121     2     1    1
   122     2     5    1
   123   101   102    1
   124   220   222    1
   125     5     7    1
   126     5     6    1
   127   211   214    1
   128   211   210    1
   129   209   207    1
   130   214   215    1
   131   207   206    1
   132   102   103    2
   133   121   119   ar
   134   208   206    1
   135   183   180    1
   136   206   203    1
   137   127   126    1
   138   118   119    1
   139   118   115    1
   140   119   120   ar
   141   180   181    1
   142   180   179    1
   143   203   202    1
   144   203   204    1
   145   177   176    2
   146   182   181    2
   147   126   123    1
   148   181   184   am
   149   205   204    2
   150   179   176   am
   151   176   175    1
   152   114   115    1
   153   122   123    1
   154   122   116   am
   155   115   116    1
   156   184   185    1
   157   189   190    1
   158   189   188    1
   159   123   124    1
   160   116   117    2
   161   185   188    1
   162   185   186    1
   163   142   141    1
   164   174   175    1
   165   174   172   am
   166   190   191    1
   167   175   178    1
   168   125   124    2
   169   171   172    1
   170   171   170    1
   171   191   192    2
   172   143   141    1
   173   186   187    2
   174   186   195   am
   175   172   173    2
   176   141   138    1
   177   136   134   am
   178   192   194    1
   179   192   193    1
   180   135   134    2
   181   197   198    2
   182   197   196    1
   183   195   201    1
   184   195   196    1
   185   137   138    1
   186   134   133    1
   187   201   200    1
   188   138   139    1
   189   196   199    1
   190   199   200    1
   191   139   140    2
   192   139   144   am
   193   133   132    1
   194   144   145    1
   195   132   129    1
   196   148   149    1
   197   148   146   am
   198   153   154    1
   199   153   152    1
   200   149   152    1
   201   149   150    1
   202   145   146    1
   203   154   155    1
   204   166   168   ar
   205   166   164   ar
   206   168   169   ar
   207   131   130    2
   208   129   130    1
   209   129   128    1
   210   146   147    2
   211   159   150   am
   212   159   160    1
   213   162   161    2
   214   150   151    2
   215   163   164    1
   216   163   160    1
   217   164   165   ar
   218   158   156    1
   219   169   167   ar
   220   160   161    1
   221   155   156    2
   222   156   157    1
   223   165   167   ar
