@<TRIPOS>MOLECULE
tmp/3k31A00.pdb
 112 104 0 0 0
SMALL
GASTEIGER

@<TRIPOS>ATOM
      1  N         31.9280   17.8970   58.5450 N.3    16  ILE16      -0.1231
      2  CA        31.7420   19.1070   59.3450 C.3    16  ILE16       0.1692
      3  C         33.0550   19.4430   60.0330 C.2    16  ILE16       0.2592
      4  O         33.5370   18.6560   60.8350 O.2    16  ILE16      -0.2718
      5  CB        30.6440   18.9240   60.3920 C.3    16  ILE16       0.0266
      6  CG1       29.3600   18.4400   59.7350 C.3    16  ILE16       0.0019
      7  CG2       30.4500   20.2800   61.1960 C.3    16  ILE16       0.0020
      8  CD1       28.3740   17.7430   60.6880 C.3    16  ILE16       0.0001
      9  N         33.6570   20.5880   59.6930 N.am   17  GLY17      -0.1957
     10  CA        34.9140   21.0050   60.3070 C.3    17  GLY17       0.1869
     11  C         36.1350   21.2790   59.4420 C.2    17  GLY17       0.2309
     12  O         37.2560   21.4120   59.9810 O.2    17  GLY17      -0.2863
     13  N         38.2710   23.7480   57.6760 N.3    19  ALA19      -0.1245
     14  CA        38.4800   25.2170   57.5170 C.3    19  ALA19       0.1562
     15  C         39.7830   25.5890   56.8080 C.2    19  ALA19       0.2260
     16  O         39.9930   26.7580   56.4620 O.2    19  ALA19      -0.2867
     17  CB        38.4180   25.9010   58.8650 C.3    19  ALA19       0.0290
     18  N         31.3000   27.6310   58.6880 N.3    44  LEU44      -0.1245
     19  CA        30.6910   28.0910   59.9360 C.3    44  LEU44       0.1561
     20  C         29.6470   29.1760   59.7040 C.2    44  LEU44       0.2260
     21  O         28.5650   29.1200   60.2880 O.2    44  LEU44      -0.2867
     22  CB        31.7780   28.5210   60.9230 C.3    44  LEU44       0.0270
     23  CG        31.4450   28.8980   62.3780 C.3    44  LEU44       0.0019
     24  CD1       30.5300   27.9330   63.0260 C.3    44  LEU44       0.0001
     25  CD2       32.7640   28.9850   63.1710 C.3    44  LEU44       0.0001
     26  N         26.9170   25.7050   58.5270 N.3    67  CYS67      -0.1221
     27  CA        26.5890   24.9110   59.7060 C.3    67  CYS67       0.1808
     28  C         27.3880   25.4170   60.8980 C.2    67  CYS67       0.2601
     29  O         28.6050   25.2440   60.9720 O.2    67  CYS67      -0.2717
     30  CB        26.8850   23.4270   59.4650 C.3    67  CYS67       0.0970
     31  SG        26.3050   22.3610   60.8110 S.3    67  CYS67      -0.0800
     32  N         26.6980   26.0310   61.8410 N.am   68  ASP68      -0.1959
     33  CA        27.2670   26.3870   63.1310 C.3    68  ASP68       0.1840
     34  C         26.6000   25.4620   64.1420 C.2    68  ASP68       0.2622
     35  O         25.4120   25.5800   64.3920 O.2    68  ASP68      -0.2715
     36  CB        26.9680   27.8520   63.4550 C.3    68  ASP68       0.1450
     37  CG        27.5070   28.3050   64.8200 C.2    68  ASP68       0.3671
     38  OD1       27.7890   27.4830   65.7240 O.co2  68  ASP68      -0.2456
     39  OD2       27.6330   29.5430   64.9830 O.co2  68  ASP68      -0.2456
     40  N         27.3780   24.5400   64.7130 N.am   69  VAL69      -0.1963
     41  CA        26.8120   23.4940   65.5410 C.3    69  VAL69       0.1727
     42  C         26.3120   23.9770   66.9020 C.2    69  VAL69       0.2616
     43  O         25.6680   23.2030   67.6060 O.2    69  VAL69      -0.2715
     44  CB        27.7880   22.2850   65.7190 C.3    69  VAL69       0.0290
     45  CG1       28.3370   21.8410   64.4110 C.3    69  VAL69       0.0023
     46  CG2       28.9250   22.6460   66.7120 C.3    69  VAL69       0.0023
     47  N         26.5270   25.2450   67.2490 N.am   70  SER70      -0.1950
     48  CA        25.9290   25.8220   68.4540 C.3    70  SER70       0.1924
     49  C         24.5030   26.3160   68.2060 C.2    70  SER70       0.2314
     50  O         23.7590   26.6180   69.1730 O.2    70  SER70      -0.2863
     51  CB        26.7810   26.9660   69.0020 C.3    70  SER70       0.2116
     52  OG        26.6210   28.1400   68.2240 O.3    70  SER70      -0.2180
     53  N         34.0270   16.8050   63.0420 N.3    95  ALA95      -0.1231
     54  CA        35.3930   17.1570   63.4200 C.3    95  ALA95       0.1694
     55  C         35.3740   18.5590   64.0030 C.2    95  ALA95       0.2592
     56  O         35.8980   19.4950   63.4170 O.2    95  ALA95      -0.2718
     57  CB        36.3140   17.0850   62.1910 C.3    95  ALA95       0.0304
     58  N         34.6920   18.7400   65.1140 N.am   96  VAL96      -0.1966
     59  CA        34.4970   20.0700   65.6710 C.3    96  VAL96       0.1727
     60  C         34.6970   19.9760   67.1680 C.2    96  VAL96       0.2616
     61  O         34.2430   19.0300   67.8180 O.2    96  VAL96      -0.2715
     62  CB        33.1250   20.6310   65.3960 C.3    96  VAL96       0.0290
     63  CG1       32.9190   20.8520   63.8800 C.3    96  VAL96       0.0023
     64  CG2       32.0770   19.7240   65.9240 C.3    96  VAL96       0.0023
     65  N         35.3920   20.9560   67.6990 N.am   97  ALA97      -0.1963
     66  CA        35.6280   21.0230   69.1240 C.3    97  ALA97       0.1728
     67  C         35.9120   22.4870   69.4420 C.2    97  ALA97       0.2616
     68  O         36.3030   23.2710   68.5580 O.2    97  ALA97      -0.2715
     69  CB        36.8030   20.1190   69.5210 C.3    97  ALA97       0.0334
     70  N         35.6750   22.8490   70.6800 N.am   98  PHE98      -0.1974
     71  CA        35.9210   24.1820   71.0970 C.3    98  PHE98       0.1639
     72  C         36.0940   24.2250   72.5850 C.2    98  PHE98       0.2290
     73  O         35.3460   23.5780   73.3060 O.2    98  PHE98      -0.2864
     74  CB        34.7630   25.0830   70.7300 C.3    98  PHE98       0.0560
     75  CG        34.9650   26.4710   71.2040 C.ar   98  PHE98      -0.0200
     76  CD1       35.7830   27.3350   70.4820 C.ar   98  PHE98      -0.0042
     77  CD2       34.4400   26.8930   72.4300 C.ar   98  PHE98      -0.0042
     78  CE1       36.0220   28.6320   70.9390 C.ar   98  PHE98      -0.0003
     79  CE2       34.6850   28.2050   72.9060 C.ar   98  PHE98      -0.0003
     80  CZ        35.4720   29.0640   72.1570 C.ar   98  PHE98      -0.0000
     81  N         40.7190   29.0640   75.0350 N.3   101  LYS101     -0.1245
     82  CA        42.1850   28.8750   74.9160 C.3   101  LYS101      0.1561
     83  C         42.9440   29.3300   76.1550 C.2   101  LYS101      0.2260
     84  O         43.9570   28.7140   76.5140 O.2   101  LYS101     -0.2867
     85  CB        42.7430   29.5800   73.6530 C.3   101  LYS101      0.0271
     86  CG        42.2090   29.1600   72.2870 C.3   101  LYS101      0.0035
     87  CD        42.6290   27.7460   72.1150 C.3   101  LYS101      0.0206
     88  CE        41.8520   27.3950   70.8210 C.3   101  LYS101      0.1093
     89  NZ        41.4630   25.9790   70.9180 N.3   101  LYS101     -0.1314
     90  N         29.6180   22.2120   72.4550 N.3   122  ILE122     -0.1245
     91  CA        30.1970   22.1540   71.1080 C.3   122  ILE122      0.1561
     92  C         30.9840   20.8610   70.8700 C.2   122  ILE122      0.2260
     93  O         30.9040   20.2510   69.7900 O.2   122  ILE122     -0.2867
     94  CB        31.1130   23.3550   70.8250 C.3   122  ILE122      0.0252
     95  CG1       30.2980   24.6370   70.7110 C.3   122  ILE122      0.0019
     96  CG2       31.9360   23.1170   69.5380 C.3   122  ILE122      0.0019
     97  CD1       31.1500   25.9010   70.9300 C.3   122  ILE122      0.0001
     98  N         39.0000   19.8610   77.9190 N.3   162  MET162     -0.1245
     99  CA        38.8220   19.0770   76.6890 C.3   162  MET162      0.1570
    100  C         38.9850   17.5740   76.9300 C.2   162  MET162      0.2261
    101  O         38.3650   16.7780   76.2210 O.2   162  MET162     -0.2867
    102  CB        39.7460   19.5350   75.5580 C.3   162  MET162      0.0387
    103  CG        39.3620   18.9500   74.1900 C.3   162  MET162      0.0595
    104  SD        37.7140   19.4240   73.5720 S.3   162  MET162     -0.1393
    105  CE        38.1520   21.0950   73.1210 C.3   162  MET162      0.0692
    106  N         49.6810   21.4900   62.6470 N.3   197  THR197     -0.1218
    107  CA        48.8240   22.2790   61.7480 C.3   197  THR197      0.1862
    108  C         49.3470   23.7060   61.4750 C.2   197  THR197      0.2287
    109  O         48.9510   24.3230   60.4670 O.2   197  THR197     -0.2866
    110  CB        47.3830   22.3840   62.3060 C.3   197  THR197      0.1770
    111  OG1       47.4060   23.0520   63.5790 O.3   197  THR197     -0.2211
    112  CG2       46.7710   20.9830   62.4730 C.3   197  THR197      0.0375
@<TRIPOS>BOND
     1    16    15    2
     2    15    14    1
     3    14    13    1
     4    14    17    1
     5    26    27    1
     6     1     2    1
     7    18    19    1
     8     2     3    1
     9     2     5    1
    10    11    12    2
    11    11    10    1
    12    30    27    1
    13    30    31    1
    14     9     3   am
    15     9    10    1
    16    20    19    1
    17    20    21    2
    18    27    28    1
    19     6     5    1
    20     6     8    1
    21    19    22    1
    22     3     4    2
    23     5     7    1
    24   109   108    2
    25    28    29    2
    26    28    32   am
    27    22    23    1
    28   108   107    1
    29   107   110    1
    30   107   106    1
    31    32    33    1
    32    57    54    1
    33   110   112    1
    34   110   111    1
    35    23    24    1
    36    23    25    1
    37    53    54    1
    38    33    36    1
    39    33    34    1
    40    56    55    2
    41    54    55    1
    42    36    37    1
    43    63    62    1
    44    55    58   am
    45    34    35    2
    46    34    40   am
    47    45    44    1
    48    40    41    1
    49    37    39   ar
    50    37    38   ar
    51    58    59    1
    52    62    59    1
    53    62    64    1
    54    41    44    1
    55    41    42    1
    56    59    60    1
    57    44    46    1
    58    42    47   am
    59    42    43    2
    60    60    65   am
    61    60    61    2
    62    47    48    1
    63    65    66    1
    64    49    48    1
    65    49    50    2
    66    52    51    1
    67    48    51    1
    68    68    67    2
    69    66    67    1
    70    66    69    1
    71    67    70   am
    72    96    94    1
    73    93    92    2
    74    76    78   ar
    75    76    75   ar
    76    70    71    1
    77    95    94    1
    78    95    97    1
    79    74    71    1
    80    74    75    1
    81    88    89    1
    82    88    87    1
    83    94    91    1
    84    92    91    1
    85    78    80   ar
    86    71    72    1
    87    91    90    1
    88    75    77   ar
    89    87    86    1
    90    80    79   ar
    91    86    85    1
    92    77    79   ar
    93    72    73    2
    94   105   104    1
    95   104   103    1
    96    85    82    1
    97   103   102    1
    98    82    81    1
    99    82    83    1
   100   102    99    1
   101    83    84    2
   102   101   100    2
   103    99   100    1
   104    99    98    1
