@<TRIPOS>MOLECULE
tmp/3k34A01.pdb
 150 148 0 0 0
SMALL
GASTEIGER

@<TRIPOS>ATOM
      1  N         -8.2870    0.5100    5.8320 N.3    65  ASN65      -0.1240
      2  CA        -9.1300    1.4160    6.5380 C.3    65  ASN65       0.1653
      3  C        -10.3610    1.8310    5.7150 C.2    65  ASN65       0.2266
      4  O        -10.1760    2.2520    4.5410 O.2    65  ASN65      -0.2867
      5  CB        -8.4030    2.7240    6.9180 C.3    65  ASN65       0.1155
      6  CG        -7.3630    2.5250    7.9480 C.2    65  ASN65       0.2627
      7  OD1       -6.5750    3.5420    8.1270 O.2    65  ASN65      -0.2716
      8  ND2       -7.2400    1.4490    8.5600 N.am   65  ASN65      -0.0877
      9  N        -12.6720    4.8290    5.6270 N.3    67  GLU67      -0.1231
     10  CA       -12.5930    6.1680    6.1060 C.3    67  GLU67       0.1699
     11  C        -13.9400    6.8930    6.0160 C.2    67  GLU67       0.2592
     12  O        -14.6600    6.6640    5.0340 O.2    67  GLU67      -0.2718
     13  CB       -11.6080    6.9550    5.2520 C.3    67  GLU67       0.0402
     14  CG       -10.2620    6.3480    5.3170 C.3    67  GLU67       0.1161
     15  CD        -9.4770    6.7940    4.1270 C.2    67  GLU67       0.3649
     16  OE1       -9.9910    7.4830    3.1800 O.co2  67  GLU67      -0.2457
     17  OE2       -8.2810    6.4530    4.1110 O.co2  67  GLU67      -0.2457
     18  N        -14.1230    7.7570    6.9720 N.am   68  PHE68      -0.1976
     19  CA       -15.4250    8.4990    7.0450 C.3    68  PHE68       0.1639
     20  C        -15.1430   10.0090    6.9710 C.2    68  PHE68       0.2290
     21  O        -14.0820   10.4840    7.3390 O.2    68  PHE68      -0.2864
     22  CB       -16.1430    8.1930    8.3520 C.3    68  PHE68       0.0560
     23  CG       -16.6730    6.7820    8.3500 C.ar   68  PHE68      -0.0200
     24  CD1      -15.8480    5.7040    8.6000 C.ar   68  PHE68      -0.0042
     25  CD2      -17.9790    6.5700    8.0440 C.ar   68  PHE68      -0.0042
     26  CE1      -16.2950    4.4430    8.4810 C.ar   68  PHE68      -0.0003
     27  CE2      -18.5230    5.2640    7.9140 C.ar   68  PHE68      -0.0003
     28  CZ       -17.6250    4.1850    8.1330 C.ar   68  PHE68      -0.0000
     29  N        -13.8700    8.3110   12.6750 N.3    89  ILE89      -0.1231
     30  CA       -13.0100    8.6700   11.5550 C.3    89  ILE89       0.1692
     31  C        -12.6880    7.5260   10.6480 C.2    89  ILE89       0.2591
     32  O        -12.5710    7.7120    9.4350 O.2    89  ILE89      -0.2718
     33  CB       -11.7130    9.3670   12.0670 C.3    89  ILE89       0.0266
     34  CG1      -10.7940    9.7920   10.9080 C.3    89  ILE89       0.0019
     35  CG2      -10.9380    8.5380   13.1140 C.3    89  ILE89       0.0020
     36  CD1       -9.6730   10.7420   11.4220 C.3    89  ILE89       0.0001
     37  N        -12.5470    6.2970   11.1580 N.am   90  GLN90      -0.1979
     38  CA       -12.2320    5.1610   10.3080 C.3    90  GLN90       0.1601
     39  C        -12.5320    3.8650   11.0650 C.2    90  GLN90       0.2287
     40  O        -12.5420    3.9030   12.3090 O.2    90  GLN90      -0.2864
     41  CB       -10.7840    5.1620    9.8310 C.3    90  GLN90       0.0394
     42  CG        -9.7240    5.2560   10.9330 C.3    90  GLN90       0.0908
     43  CD        -8.9820    3.9770   11.1580 C.2    90  GLN90       0.2608
     44  OE1       -9.5170    2.9060   11.1420 O.2    90  GLN90      -0.2717
     45  NE2       -7.6860    4.1000   11.5770 N.am   90  GLN90      -0.0878
     46  N        -11.0830   -0.4150   10.8310 N.3    92  HIS92      -0.1241
     47  CA       -10.2380   -1.3840   10.2460 C.3    92  HIS92       0.1621
     48  C        -10.2980   -2.6630   11.0700 C.2    92  HIS92       0.2264
     49  O        -10.9310   -2.6700   12.1100 O.2    92  HIS92      -0.2867
     50  CB        -8.7590   -0.8750   10.1430 C.3    92  HIS92       0.0745
     51  CG        -8.2200   -0.6060   11.5100 C.ar   92  HIS92       0.0817
     52  ND1       -8.4060    0.6090   12.1490 N.ar   92  HIS92      -0.2268
     53  CD2       -7.6010   -1.4050   12.3980 C.ar   92  HIS92       0.1154
     54  CE1       -7.8870    0.4980   13.3980 C.ar   92  HIS92       0.1986
     55  NE2       -7.3620   -0.7480   13.5860 N.ar   92  HIS92      -0.2212
     56  N         -7.9880   -6.3800   12.3890 N.3    94  HIS94      -0.1241
     57  CA        -6.7910   -7.1690   12.5630 C.3    94  HIS94       0.1621
     58  C         -7.2220   -8.6260   12.4520 C.2    94  HIS94       0.2264
     59  O         -8.3040   -8.9620   12.9750 O.2    94  HIS94      -0.2867
     60  CB        -6.1120   -6.9400   13.9330 C.3    94  HIS94       0.0745
     61  CG        -5.8290   -5.4940   14.1730 C.ar   94  HIS94       0.0817
     62  ND1       -4.5780   -4.9470   13.9710 N.ar   94  HIS94      -0.2268
     63  CD2       -6.6360   -4.4700   14.5660 C.ar   94  HIS94       0.1154
     64  CE1       -4.6600   -3.6190   14.2590 C.ar   94  HIS94       0.1986
     65  NE2       -5.8840   -3.3000   14.6180 N.ar   94  HIS94      -0.2212
     66  N        -11.9160   -2.5640   14.7740 N.3   117  HIS117     -0.1241
     67  CA       -11.6460   -1.3420   15.5250 C.3   117  HIS117      0.1621
     68  C        -12.3380   -0.1740   14.8180 C.2   117  HIS117      0.2264
     69  O        -11.9580    0.1800   13.6990 O.2   117  HIS117     -0.2867
     70  CB       -10.1640   -1.0540   15.5840 C.3   117  HIS117      0.0745
     71  CG        -9.4700   -2.0360   16.4880 C.ar  117  HIS117      0.0817
     72  ND1       -8.0860   -2.2460   16.4560 N.ar  117  HIS117     -0.2268
     73  CD2      -10.0020   -2.8210   17.4460 C.ar  117  HIS117      0.1154
     74  CE1       -7.8190   -3.1480   17.3720 C.ar  117  HIS117      0.1986
     75  NE2       -8.9460   -3.5310   17.9960 N.ar  117  HIS117     -0.2212
     76  N        -12.6480    3.6520   15.1350 N.3   119  VAL119     -0.1245
     77  CA       -11.7570    4.6440   15.7480 C.3   119  VAL119      0.1561
     78  C        -12.4680    6.0090   15.7700 C.2   119  VAL119      0.2260
     79  O        -12.9640    6.4530   14.7310 O.2   119  VAL119     -0.2867
     80  CB       -10.4720    4.7540   14.9470 C.3   119  VAL119      0.0252
     81  CG1       -9.5030    5.7590   15.5770 C.3   119  VAL119      0.0019
     82  CG2       -9.7760    3.3970   14.8020 C.3   119  VAL119      0.0019
     83  N         -8.3000   14.9630   14.7050 N.3   128  PHE128     -0.1241
     84  CA        -7.6410   13.7510   15.1420 C.3   128  PHE128      0.1605
     85  C         -6.2110   14.0340   15.5580 C.2   128  PHE128      0.2264
     86  O         -5.7140   13.4570   16.5380 O.2   128  PHE128     -0.2867
     87  CB        -7.7140   12.7400   13.9790 C.3   128  PHE128      0.0534
     88  CG        -7.0230   11.4260   14.2820 C.ar  128  PHE128     -0.0203
     89  CD1       -7.7540   10.3950   14.8250 C.ar  128  PHE128     -0.0042
     90  CD2       -5.6870   11.2410   14.0690 C.ar  128  PHE128     -0.0042
     91  CE1       -7.0780    9.1810   15.0740 C.ar  128  PHE128     -0.0003
     92  CE2       -5.0310   10.0650   14.3050 C.ar  128  PHE128     -0.0003
     93  CZ        -5.7410    8.9970   14.8680 C.ar  128  PHE128     -0.0000
     94  N        -11.7310    3.8150   20.9560 N.3   140  VAL140     -0.1245
     95  CA       -11.8100    2.7520   19.9670 C.3   140  VAL140      0.1561
     96  C        -12.8030    1.7260   20.4760 C.2   140  VAL140      0.2260
     97  O        -12.6640    1.2390   21.5940 O.2   140  VAL140     -0.2867
     98  CB       -10.4440    2.1530   19.6310 C.3   140  VAL140      0.0252
     99  CG1      -10.6420    1.1130   18.4910 C.3   140  VAL140      0.0019
    100  CG2       -9.4760    3.2190   19.1270 C.3   140  VAL140      0.0019
    101  N         -2.9380    3.2120   21.0920 N.3   195  LEU195     -0.1231
    102  CA        -2.9540    2.6270   19.7560 C.3   195  LEU195      0.1693
    103  C         -2.2240    1.3020   19.7690 C.2   195  LEU195      0.2593
    104  O         -1.1880    1.1630   20.4840 O.2   195  LEU195     -0.2718
    105  CB        -2.2500    3.5900   18.7830 C.3   195  LEU195      0.0284
    106  CG        -2.7780    4.9810   18.6830 C.3   195  LEU195      0.0019
    107  CD1       -1.9380    5.7930   17.6830 C.3   195  LEU195      0.0001
    108  CD2       -4.2500    5.0090   18.2450 C.3   195  LEU195      0.0001
    109  N         -2.6670    0.3530   18.9810 N.am  196  THR196     -0.1939
    110  CA        -2.0020   -0.9750   18.9560 C.3   196  THR196      0.2028
    111  C         -1.0100   -1.1070   17.8210 C.2   196  THR196      0.2643
    112  O         -0.3900   -2.1620   17.6850 O.2   196  THR196     -0.2714
    113  CB        -3.0270   -2.1080   18.8550 C.3   196  THR196      0.1808
    114  OG1       -3.5870   -2.0540   17.5500 O.3   196  THR196     -0.2208
    115  CG2       -4.0780   -2.0550   19.9110 C.3   196  THR196      0.0379
    116  N         -0.8000   -0.0570   17.0550 N.am  197  THR197     -0.1937
    117  CA         0.2570    0.0030   16.0700 C.3   197  THR197      0.2013
    118  C          1.0650    1.2450   16.3510 C.2   197  THR197      0.2484
    119  O          0.5710    2.2040   16.9370 O.2   197  THR197     -0.2729
    120  CB        -0.2400    0.1120   14.6170 C.3   197  THR197      0.1807
    121  OG1       -0.8470    1.3730   14.3680 O.3   197  THR197     -0.2208
    122  CG2       -1.2350   -0.9670   14.2830 C.3   197  THR197      0.0379
    123  N          2.3230    1.2850   15.8850 N.am  198  PRO198     -0.2715
    124  CA         3.0520    2.5470   15.8860 C.3   198  PRO198      0.1521
    125  C          2.1500    3.6370   15.3320 C.2   198  PRO198      0.2440
    126  O          1.4630    3.4470   14.3490 O.2   198  PRO198     -0.2731
    127  CB         4.2480    2.2240   14.9920 C.3   198  PRO198      0.0310
    128  CG         4.5000    0.7670   15.2790 C.3   198  PRO198      0.0237
    129  CD         3.1100    0.1730   15.3020 C.3   198  PRO198      0.0939
    130  N          2.1680    4.8170   15.9880 N.am  199  PRO199     -0.2727
    131  CA         3.1010    5.2720   17.0260 C.3   199  PRO199      0.1402
    132  C          2.7540    4.8890   18.4650 C.2   199  PRO199      0.2269
    133  O          3.4070    5.3540   19.3670 O.2   199  PRO199     -0.2865
    134  CB         3.0480    6.8050   16.8030 C.3   199  PRO199      0.0296
    135  CG         1.6930    7.0990   16.3310 C.3   199  PRO199      0.0237
    136  CD         1.3730    5.9140   15.4350 C.3   199  PRO199      0.0939
    137  N        -10.4290    2.3850   25.4980 N.3   206  TRP206     -0.1241
    138  CA       -10.8790    1.1840   24.8040 C.3   206  TRP206      0.1605
    139  C        -12.2280    0.7490   25.3260 C.2   206  TRP206      0.2264
    140  O        -12.4400    0.6840   26.5560 O.2   206  TRP206     -0.2867
    141  CB        -9.8650    0.0330   25.0050 C.3   206  TRP206      0.0550
    142  CG        -8.7480    0.1550   24.0620 C.ar  206  TRP206      0.0003
    143  CD1       -7.5230    0.7410   24.2520 C.ar  206  TRP206      0.0946
    144  CD2       -8.7890   -0.2560   22.7080 C.ar  206  TRP206      0.0152
    145  NE1       -6.7980    0.7280   23.0710 N.ar  206  TRP206     -0.2442
    146  CE2       -7.5530    0.1080   22.1070 C.ar  206  TRP206      0.0810
    147  CE3       -9.7270   -0.9220   21.9290 C.ar  206  TRP206      0.0012
    148  CZ2       -7.2540   -0.1470   20.7720 C.ar  206  TRP206      0.0191
    149  CZ3       -9.4320   -1.1900   20.6010 C.ar  206  TRP206      0.0001
    150  CH2       -8.2310   -0.8060   20.0410 C.ar  206  TRP206      0.0015
@<TRIPOS>BOND
     1    16    15   ar
     2    17    15   ar
     3    15    14    1
     4     4     3    2
     5    12    11    2
     6    13    14    1
     7    13    10    1
     8     9    10    1
     9     3     2    1
    10     1     2    1
    11    11    10    1
    12    11    18   am
    13     2     5    1
    14     5     6    1
    15    20    19    1
    16    20    21    2
    17    18    19    1
    18    19    22    1
    19    27    25   ar
    20    27    28   ar
    21     6     7    2
    22     6     8   am
    23    25    23   ar
    24    28    26   ar
    25    23    22    1
    26    23    24   ar
    27    26    24   ar
    28    32    31    2
    29    41    38    1
    30    41    42    1
    31    50    47    1
    32    50    51    1
    33    47    46    1
    34    47    48    1
    35    38    39    1
    36    38    37    1
    37    31    37   am
    38    31    30    1
    39    34    36    1
    40    34    33    1
    41    42    43    1
    42    39    40    2
    43    48    49    2
    44    44    43    2
    45    43    45   am
    46    51    52   ar
    47    51    53   ar
    48    30    33    1
    49    30    29    1
    50    33    35    1
    51    52    54   ar
    52    56    57    1
    53    53    55   ar
    54    58    57    1
    55    58    59    2
    56    57    60    1
    57    54    55   ar
    58    69    68    2
    59    60    61    1
    60    62    61   ar
    61    62    64   ar
    62    87    88    1
    63    87    84    1
    64    90    88   ar
    65    90    92   ar
    66    61    63   ar
    67    64    65   ar
    68    88    89   ar
    69   122   120    1
    70    92    93   ar
    71   126   125    2
    72   121   120    1
    73    63    65   ar
    74   120   117    1
    75    83    84    1
    76    79    78    2
    77    66    67    1
    78    82    80    1
    79    68    67    1
    80    89    91   ar
    81    93    91   ar
    82    80    81    1
    83    80    77    1
    84   127   128    1
    85   127   124    1
    86    76    77    1
    87    84    85    1
    88   128   129    1
    89   129   123    1
    90   125   124    1
    91   125   130   am
    92   136   130    1
    93   136   135    1
    94    67    70    1
    95    85    86    2
    96    70    71    1
    97    77    78    1
    98   123   124    1
    99   123   118   am
   100   130   131    1
   101   117   118    1
   102   117   116    1
   103   135   134    1
   104   118   119    2
   105    72    71   ar
   106    72    74   ar
   107    71    73   ar
   108   134   131    1
   109   131   132    1
   110   116   111   am
   111    74    75   ar
   112    73    75   ar
   113   114   113    1
   114   107   106    1
   115   112   111    2
   116   111   110    1
   117   108   106    1
   118   132   133    2
   119    99    98    1
   120   106   105    1
   121   105   102    1
   122   113   110    1
   123   113   115    1
   124   110   109    1
   125   109   103   am
   126   100    98    1
   127    98    95    1
   128   102   103    1
   129   102   101    1
   130   103   104    2
   131    95    96    1
   132    95    94    1
   133   150   149   ar
   134   150   148   ar
   135    96    97    2
   136   149   147   ar
   137   148   146   ar
   138   147   144   ar
   139   146   144   ar
   140   146   145   ar
   141   144   142   ar
   142   145   143   ar
   143   142   143   ar
   144   142   141    1
   145   138   141    1
   146   138   139    1
   147   138   137    1
   148   139   140    2
