@<TRIPOS>MOLECULE
tmp/3k36A00.pdb
 82 79 0 0 0
SMALL
GASTEIGER

@<TRIPOS>ATOM
      1  N         27.9950  -27.0140  -64.8080 N.3     5  TYR5       -0.1228
      2  CA        26.8780  -26.1280  -65.0890 C.3     5  TYR5        0.1721
      3  C         25.7750  -26.6790  -64.2130 C.2     5  TYR5        0.2437
      4  O         25.7860  -27.8650  -63.9570 O.2     5  TYR5       -0.2733
      5  CB        26.4650  -26.2390  -66.5850 C.3     5  TYR5        0.0547
      6  CG        27.4760  -25.6210  -67.5220 C.ar    5  TYR5       -0.0200
      7  CD1       27.3130  -24.3120  -67.9880 C.ar    5  TYR5       -0.0009
      8  CD2       28.6130  -26.3270  -67.9210 C.ar    5  TYR5       -0.0009
      9  CE1       28.2620  -23.7150  -68.8440 C.ar    5  TYR5        0.0417
     10  CE2       29.5690  -25.7450  -68.7750 C.ar    5  TYR5        0.0417
     11  CZ        29.3900  -24.4310  -69.2290 C.ar    5  TYR5        0.1957
     12  OH        30.3260  -23.8280  -70.0580 O.3     5  TYR5       -0.2866
     13  N         24.8130  -25.8400  -63.7580 N.am    6  PRO6       -0.2718
     14  CA        23.6230  -26.4180  -63.1160 C.3     6  PRO6        0.1535
     15  C         22.7520  -27.1660  -64.1300 C.2     6  PRO6        0.2598
     16  O         22.5520  -26.6760  -65.2420 O.2     6  PRO6       -0.2715
     17  CB        22.8740  -25.1830  -62.6080 C.3     6  PRO6        0.0310
     18  CG        23.2730  -24.1070  -63.5360 C.3     6  PRO6        0.0237
     19  CD        24.7240  -24.3700  -63.8030 C.3     6  PRO6        0.0939
     20  N         22.2750  -28.3480  -63.7610 N.am    7  ARG7       -0.1964
     21  CA        21.3570  -29.1120  -64.5990 C.3     7  ARG7        0.1729
     22  C         20.0070  -29.0080  -63.9560 C.2     7  ARG7        0.2616
     23  O         19.8600  -28.3560  -62.9290 O.2     7  ARG7       -0.2715
     24  CB        21.7200  -30.5900  -64.6550 C.3     7  ARG7        0.0348
     25  CG        23.0930  -30.9390  -65.1660 C.3     7  ARG7        0.0492
     26  CD        23.7120  -31.8680  -64.1770 C.3     7  ARG7        0.2205
     27  NE        24.1410  -33.1350  -64.7230 N.pl3   7  ARG7       -0.0865
     28  CZ        24.6230  -34.1240  -63.9730 C.cat   7  ARG7        0.5346
     29  NH1       24.7410  -33.9990  -62.6440 N.pl3   7  ARG7        0.1354
     30  NH2       24.9950  -35.2430  -64.5510 N.pl3   7  ARG7        0.1354
     31  N         19.0290  -29.6630  -64.5680 N.am    8  LEU8       -0.1977
     32  CA        17.6960  -29.7860  -64.0080 C.3     8  LEU8        0.1596
     33  C         17.7830  -30.7480  -62.8280 C.2     8  LEU8        0.2287
     34  O         18.7100  -31.5710  -62.7500 O.2     8  LEU8       -0.2864
     35  CB        16.7030  -30.2770  -65.0680 C.3     8  LEU8        0.0297
     36  CG        15.6350  -29.2990  -65.5760 C.3     8  LEU8        0.0022
     37  CD1       16.0940  -27.8520  -65.6800 C.3     8  LEU8        0.0001
     38  CD2       15.0960  -29.8160  -66.9060 C.3     8  LEU8        0.0001
     39  N         19.3320  -20.6940  -59.5390 N.3   205  ALA205     -0.1231
     40  CA        17.9560  -20.8270  -60.0460 C.3   205  ALA205      0.1694
     41  C         17.9780  -21.2860  -61.5020 C.2   205  ALA205      0.2593
     42  O         17.0610  -21.9630  -61.9660 O.2   205  ALA205     -0.2718
     43  CB        17.1990  -19.5050  -59.9350 C.3   205  ALA205      0.0304
     44  N         19.0200  -20.9250  -62.2310 N.am  206  SER206     -0.1938
     45  CA        19.0950  -21.2510  -63.6690 C.3   206  SER206      0.2055
     46  C         20.5150  -21.0290  -64.1600 C.2   206  SER206      0.2643
     47  O         21.4070  -20.7450  -63.3600 O.2   206  SER206     -0.2714
     48  CB        18.1580  -20.3360  -64.4570 C.3   206  SER206      0.2130
     49  OG        18.6900  -19.0030  -64.4710 O.3   206  SER206     -0.2179
     50  N         20.7060  -21.1430  -65.4790 N.am  207  ASN207     -0.1971
     51  CA        21.9810  -20.8080  -66.1290 C.3   207  ASN207      0.1688
     52  C         22.2500  -19.2930  -66.2040 C.2   207  ASN207      0.2292
     53  O         23.3800  -18.8620  -66.4500 O.2   207  ASN207     -0.2864
     54  CB        22.0370  -21.3900  -67.5440 C.3   207  ASN207      0.1181
     55  CG        22.3690  -22.8810  -67.5810 C.2   207  ASN207      0.2629
     56  OD1       23.3880  -23.3450  -67.0370 O.2   207  ASN207     -0.2716
     57  ND2       21.5160  -23.6410  -68.2630 N.am  207  ASN207     -0.0877
     58  N         15.2100  -27.3700  -59.5520 N.3   279  ARG279     -0.1245
     59  CA        14.9870  -26.8090  -60.8970 C.3   279  ARG279      0.1563
     60  C         14.2760  -27.7980  -61.8030 C.2   279  ARG279      0.2260
     61  O         14.8220  -28.8580  -62.0800 O.2   279  ARG279     -0.2867
     62  CB        16.3290  -26.4210  -61.5210 C.3   279  ARG279      0.0307
     63  CG        17.0420  -25.2570  -60.7920 C.3   279  ARG279      0.0489
     64  CD        18.4280  -25.0080  -61.2470 C.3   279  ARG279      0.2205
     65  NE        19.2530  -26.2060  -61.2580 N.pl3 279  ARG279     -0.0865
     66  CZ        20.0590  -26.6080  -60.2730 C.cat 279  ARG279      0.5346
     67  NH1       20.1740  -25.9040  -59.1380 N.pl3 279  ARG279      0.1354
     68  NH2       20.7480  -27.7410  -60.4210 N.pl3 279  ARG279      0.1354
     69  N         11.5940  -28.4480  -65.4970 N.3   281  ALA281     -0.1245
     70  CA        11.4920  -27.9860  -66.9020 C.3   281  ALA281      0.1562
     71  C         10.6850  -26.6940  -67.0520 C.2   281  ALA281      0.2260
     72  O         11.0910  -25.7960  -67.7830 O.2   281  ALA281     -0.2867
     73  CB        10.9090  -29.1010  -67.8080 C.3   281  ALA281      0.0290
     74  N         22.7730  -37.7950  -64.4340 N.3   342  LYS342     -0.1245
     75  CA        22.2280  -36.8340  -65.4150 C.3   342  LYS342      0.1561
     76  C         21.4140  -35.6720  -64.8030 C.2   342  LYS342      0.2260
     77  O         20.8700  -34.8500  -65.5450 O.2   342  LYS342     -0.2867
     78  CB        21.3710  -37.5860  -66.4500 C.3   342  LYS342      0.0271
     79  CG        22.1480  -38.5510  -67.3760 C.3   342  LYS342      0.0035
     80  CD        21.2050  -39.2600  -68.3550 C.3   342  LYS342      0.0206
     81  CE        20.4560  -40.4020  -67.6680 C.3   342  LYS342      0.1093
     82  NZ        19.4360  -41.0750  -68.5340 N.3   342  LYS342     -0.1314
@<TRIPOS>BOND
     1    12    11    1
     2    11     9   ar
     3    11    10   ar
     4     9     7   ar
     5    10     8   ar
     6    82    81    1
     7    80    81    1
     8    80    79    1
     9    57    55   am
    10     7     6   ar
    11     8     6   ar
    12    73    70    1
    13    72    71    2
    14    55    54    1
    15    55    56    2
    16    54    51    1
    17     6     5    1
    18    79    78    1
    19    71    70    1
    20    38    36    1
    21    70    69    1
    22     5     2    1
    23    78    75    1
    24    53    52    2
    25    52    51    1
    26    51    50    1
    27    37    36    1
    28    36    35    1
    29    77    76    2
    30    50    46   am
    31    75    76    1
    32    75    74    1
    33    16    15    2
    34    25    24    1
    35    25    26    1
    36     2     1    1
    37     2     3    1
    38    35    32    1
    39    27    26    1
    40    27    28    2
    41    24    21    1
    42    21    22    1
    43    21    20    1
    44    31    32    1
    45    31    22   am
    46    30    28    1
    47    49    48    1
    48    48    45    1
    49     3     4    2
    50     3    13   am
    51    46    45    1
    52    46    47    2
    53    15    20   am
    54    15    14    1
    55    32    33    1
    56    28    29    1
    57    22    23    2
    58    19    13    1
    59    19    18    1
    60    13    14    1
    61    45    44    1
    62    18    17    1
    63    14    17    1
    64    33    34    2
    65    44    41   am
    66    61    60    2
    67    42    41    2
    68    60    59    1
    69    62    59    1
    70    62    63    1
    71    41    40    1
    72    65    64    1
    73    65    66    2
    74    64    63    1
    75    59    58    1
    76    68    66    1
    77    66    67    1
    78    40    43    1
    79    40    39    1
