@<TRIPOS>MOLECULE
tmp/3k37B01.pdb
 185 176 0 0 0
SMALL
GASTEIGER

@<TRIPOS>ATOM
      1  N        -26.4020  -33.2330  -11.4500 N.3    39  ARG39      -0.1231
      2  CA       -25.8310  -31.8990  -11.6560 C.3    39  ARG39       0.1694
      3  C        -25.4170  -31.8550  -13.1180 C.2    39  ARG39       0.2591
      4  O        -25.5790  -32.8550  -13.8340 O.2    39  ARG39      -0.2718
      5  CB       -24.6420  -31.6170  -10.7230 C.3    39  ARG39       0.0321
      6  CG       -24.9980  -30.7590   -9.4980 C.3    39  ARG39       0.0489
      7  CD       -23.8510  -29.8580   -9.0880 C.3    39  ARG39       0.2205
      8  NE       -23.5210  -28.8710  -10.1090 N.pl3  39  ARG39      -0.0865
      9  CZ       -22.3300  -28.2840  -10.2350 C.cat  39  ARG39       0.5346
     10  NH1      -21.3360  -28.5680   -9.3950 N.pl3  39  ARG39       0.1354
     11  NH2      -22.1360  -27.3940  -11.1970 N.pl3  39  ARG39       0.1354
     12  N        -24.9040  -30.6980  -13.5470 N.am   40  GLU40      -0.1979
     13  CA       -24.4230  -30.4890  -14.9100 C.3    40  GLU40       0.1602
     14  C        -25.4840  -30.7880  -16.0000 C.2    40  GLU40       0.2287
     15  O        -25.1810  -31.4810  -16.9830 O.2    40  GLU40      -0.2864
     16  CB       -23.0910  -31.2500  -15.1440 C.3    40  GLU40       0.0415
     17  CG       -21.9310  -30.7860  -14.1990 C.3    40  GLU40       0.1163
     18  CD       -21.8980  -31.5230  -12.8460 C.2    40  GLU40       0.3649
     19  OE1      -22.2910  -32.7100  -12.7860 O.co2  40  GLU40      -0.2457
     20  OE2      -21.4530  -30.9190  -11.8460 O.co2  40  GLU40      -0.2457
     21  N        -25.9740  -35.3660  -15.3610 N.3    55  LEU55      -0.1245
     22  CA       -25.1030  -36.3820  -14.8200 C.3    55  LEU55       0.1561
     23  C        -25.6440  -36.7830  -13.4910 C.2    55  LEU55       0.2260
     24  O        -25.5650  -36.0300  -12.5340 O.2    55  LEU55      -0.2867
     25  CB       -23.6720  -35.8540  -14.6840 C.3    55  LEU55       0.0270
     26  CG       -22.9570  -35.4980  -15.9970 C.3    55  LEU55       0.0019
     27  CD1      -21.6590  -34.8470  -15.7520 C.3    55  LEU55       0.0001
     28  CD2      -22.7960  -36.7370  -16.8870 C.3    55  LEU55       0.0001
     29  N        -17.6190  -34.7510   -7.3790 N.3    72  ASP72      -0.1225
     30  CA       -17.6590  -34.5520   -8.8460 C.3    72  ASP72       0.1805
     31  C        -17.5940  -35.8200   -9.7050 C.2    72  ASP72       0.2597
     32  O        -18.1790  -35.8790  -10.8030 O.2    72  ASP72      -0.2718
     33  CB       -16.5260  -33.6150   -9.2800 C.3    72  ASP72       0.1424
     34  CG       -16.8330  -32.1650   -8.9910 C.2    72  ASP72       0.3668
     35  OD1      -17.9990  -31.7360   -9.1860 O.co2  72  ASP72      -0.2456
     36  OD2      -15.8920  -31.4600   -8.5880 O.co2  72  ASP72      -0.2456
     37  N        -16.8450  -36.8110   -9.2230 N.am   73  ARG73      -0.1979
     38  CA       -16.4770  -37.9580  -10.0480 C.3    73  ARG73       0.1597
     39  C        -16.5320  -39.2130   -9.2030 C.2    73  ARG73       0.2287
     40  O        -16.0760  -39.2330   -8.0670 O.2    73  ARG73      -0.2864
     41  CB       -15.0790  -37.7730  -10.6440 C.3    73  ARG73       0.0334
     42  CG       -14.9620  -36.5970  -11.6700 C.3    73  ARG73       0.0492
     43  CD       -13.5450  -36.4860  -12.3040 C.3    73  ARG73       0.2205
     44  NE       -12.4860  -36.3990  -11.2980 N.pl3  73  ARG73      -0.0865
     45  CZ       -12.3030  -35.4030  -10.4230 C.cat  73  ARG73       0.5346
     46  NH1      -13.0960  -34.3340  -10.3830 N.pl3  73  ARG73       0.1354
     47  NH2      -11.3030  -35.4860   -9.5490 N.pl3  73  ARG73       0.1354
     48  N        -21.6330  -42.4140  -11.3820 N.3    77  ARG77      -0.1245
     49  CA       -22.1670  -41.2940  -12.1510 C.3    77  ARG77       0.1563
     50  C        -22.5180  -41.7160  -13.6220 C.2    77  ARG77       0.2260
     51  O        -21.7460  -42.4160  -14.2770 O.2    77  ARG77      -0.2867
     52  CB       -21.1570  -40.1370  -12.0440 C.3    77  ARG77       0.0307
     53  CG       -21.7240  -38.8150  -12.1260 C.3    77  ARG77       0.0489
     54  CD       -21.1920  -37.8260  -11.1060 C.3    77  ARG77       0.2205
     55  NE       -22.2510  -36.8440  -11.1170 N.pl3  77  ARG77      -0.0865
     56  CZ       -22.1170  -35.5400  -11.2940 C.cat  77  ARG77       0.5346
     57  NH1      -20.9280  -34.9750  -11.3720 N.pl3  77  ARG77       0.1354
     58  NH2      -23.2050  -34.8000  -11.3510 N.pl3  77  ARG77       0.1354
     59  N        -18.9440  -39.1430  -15.9090 N.3   100  TRP100     -0.1227
     60  CA       -18.8840  -38.0850  -14.9160 C.3   100  TRP100      0.1737
     61  C        -18.6080  -36.7170  -15.5040 C.2   100  TRP100      0.2596
     62  O        -18.5060  -35.7340  -14.7760 O.2   100  TRP100     -0.2718
     63  CB       -17.9460  -38.4120  -13.7330 C.3   100  TRP100      0.0564
     64  CG       -16.5670  -39.0300  -14.0080 C.ar  100  TRP100      0.0003
     65  CD1      -16.1500  -40.2740  -13.6140 C.ar  100  TRP100      0.0946
     66  CD2      -15.4270  -38.4050  -14.6240 C.ar  100  TRP100      0.0152
     67  NE1      -14.8420  -40.4690  -13.9670 N.ar  100  TRP100     -0.2442
     68  CE2      -14.3640  -39.3460  -14.5830 C.ar  100  TRP100      0.0810
     69  CE3      -15.2080  -37.1630  -15.2430 C.ar  100  TRP100      0.0012
     70  CZ2      -13.0960  -39.0810  -15.1210 C.ar  100  TRP100      0.0191
     71  CZ3      -13.9300  -36.8850  -15.7740 C.ar  100  TRP100      0.0001
     72  CH2      -12.8930  -37.8460  -15.7100 C.ar  100  TRP100      0.0015
     73  N        -18.4640  -36.6820  -16.8230 N.am  101  SER101     -0.1952
     74  CA       -18.4560  -35.4510  -17.6160 C.3   101  SER101      0.1924
     75  C        -19.1440  -35.8280  -18.9360 C.2   101  SER101      0.2314
     76  O        -18.9030  -36.9240  -19.4580 O.2   101  SER101     -0.2863
     77  CB       -17.0180  -34.9560  -17.8610 C.3   101  SER101      0.2116
     78  OG       -16.9970  -33.6740  -18.5090 O.3   101  SER101     -0.2180
     79  N         -7.6350  -35.8140  -15.3260 N.3   144  ILE144     -0.1245
     80  CA        -9.0750  -35.6450  -15.4310 C.3   144  ILE144      0.1561
     81  C         -9.4790  -35.1270  -16.8190 C.2   144  ILE144      0.2260
     82  O         -9.9890  -34.0290  -16.9420 O.2   144  ILE144     -0.2867
     83  CB        -9.6440  -34.6870  -14.3370 C.3   144  ILE144      0.0252
     84  CG1       -9.0770  -35.0060  -12.9470 C.3   144  ILE144      0.0019
     85  CG2      -11.1920  -34.7780  -14.3040 C.3   144  ILE144      0.0019
     86  CD1       -9.4320  -33.9140  -11.8860 C.3   144  ILE144      0.0001
     87  N        -11.8750  -34.3880  -19.7660 N.3   146  ARG146     -0.1245
     88  CA       -13.0140  -33.5720  -19.3490 C.3   146  ARG146      0.1563
     89  C        -13.7170  -33.0400  -20.5900 C.2   146  ARG146      0.2260
     90  O        -13.0480  -32.7170  -21.5710 O.2   146  ARG146     -0.2867
     91  CB       -12.3820  -32.3530  -18.6570 C.3   146  ARG146      0.0307
     92  CG       -12.9190  -32.0290  -17.3370 C.3   146  ARG146      0.0489
     93  CD       -11.7940  -31.7040  -16.4080 C.3   146  ARG146      0.2205
     94  NE       -11.0680  -30.4330  -16.5350 N.pl3 146  ARG146     -0.0865
     95  CZ        -9.7400  -30.3750  -16.4230 C.cat 146  ARG146      0.5346
     96  NH1       -9.0660  -31.5200  -16.2740 N.pl3 146  ARG146      0.1354
     97  NH2       -9.0720  -29.2120  -16.4670 N.pl3 146  ARG146      0.1354
     98  N        -20.0410  -30.3090  -20.8640 N.3   149  GLU149     -0.1245
     99  CA       -21.2830  -30.2850  -20.0420 C.3   149  GLU149      0.1567
    100  C        -22.3580  -29.4700  -20.7370 C.2   149  GLU149      0.2260
    101  O        -23.2060  -28.8200  -20.0840 O.2   149  GLU149     -0.2867
    102  CB       -21.0710  -29.7950  -18.5870 C.3   149  GLU149      0.0388
    103  CG       -19.7430  -30.1770  -17.9260 C.3   149  GLU149      0.1160
    104  CD       -19.5030  -31.6570  -17.7950 C.2   149  GLU149      0.3649
    105  OE1      -18.4380  -32.0090  -17.2420 O.co2 149  GLU149     -0.2457
    106  OE2      -20.3540  -32.4730  -18.2260 O.co2 149  GLU149     -0.2457
    107  N         -6.8450  -28.4810  -12.9330 N.3   168  ALA168     -0.1245
    108  CA        -7.9240  -27.4690  -12.7890 C.3   168  ALA168      0.1562
    109  C         -7.3920  -26.2070  -12.1090 C.2   168  ALA168      0.2260
    110  O         -8.0530  -25.1660  -12.0950 O.2   168  ALA168     -0.2867
    111  CB        -9.1320  -28.0420  -12.0080 C.3   168  ALA168      0.0290
    112  N        -11.7110  -24.5050  -20.3010 N.3   198  GLU198     -0.1231
    113  CA       -12.6090  -25.5070  -19.7220 C.3   198  GLU198      0.1699
    114  C        -14.0800  -25.2610  -20.0300 C.2   198  GLU198      0.2592
    115  O        -14.5240  -24.1140  -20.1050 O.2   198  GLU198     -0.2718
    116  CB       -12.4200  -25.5800  -18.2080 C.3   198  GLU198      0.0402
    117  CG       -11.5080  -26.7980  -17.8100 C.3   198  GLU198      0.1161
    118  CD       -11.2110  -26.8580  -16.3460 C.2   198  GLU198      0.3649
    119  OE1      -10.0660  -26.5830  -15.9390 O.co2 198  GLU198     -0.2457
    120  OE2      -12.1460  -27.1590  -15.5840 O.co2 198  GLU198     -0.2457
    121  N        -14.8100  -26.3630  -20.2090 N.am  199  GLU199     -0.1979
    122  CA       -16.2760  -26.3830  -20.2570 C.3   199  GLU199      0.1602
    123  C        -16.8120  -25.3970  -21.2750 C.2   199  GLU199      0.2287
    124  O        -17.7020  -24.5990  -20.9610 O.2   199  GLU199     -0.2864
    125  CB       -16.8410  -26.0640  -18.8700 C.3   199  GLU199      0.0415
    126  CG       -16.6750  -27.1810  -17.8430 C.3   199  GLU199      0.1163
    127  CD       -17.0250  -26.7580  -16.4320 C.2   199  GLU199      0.3649
    128  OE1      -17.2380  -27.6520  -15.5720 O.co2 199  GLU199     -0.2457
    129  OE2      -17.1020  -25.5290  -16.1730 O.co2 199  GLU199     -0.2457
    130  N        -14.3840  -21.4590  -19.7040 N.3   215  ARG215     -0.1245
    131  CA       -13.9510  -21.1030  -18.3510 C.3   215  ARG215      0.1563
    132  C        -12.4420  -21.2750  -18.1990 C.2   215  ARG215      0.2260
    133  O        -11.9060  -22.3330  -18.5560 O.2   215  ARG215     -0.2867
    134  CB       -14.7070  -21.9710  -17.3300 C.3   215  ARG215      0.0307
    135  CG       -14.1760  -22.0350  -15.8760 C.3   215  ARG215      0.0489
    136  CD       -14.9510  -23.1580  -15.1740 C.3   215  ARG215      0.2205
    137  NE       -14.6060  -23.4280  -13.7840 N.pl3 215  ARG215     -0.0865
    138  CZ       -15.3120  -24.2250  -12.9930 C.cat 215  ARG215      0.5346
    139  NH1      -16.4120  -24.8220  -13.4710 N.pl3 215  ARG215      0.1354
    140  NH2      -14.9420  -24.4050  -11.7220 N.pl3 215  ARG215      0.1354
    141  N        -10.2470  -21.7770  -15.1130 N.3   217  ASN217     -0.1240
    142  CA       -10.4280  -22.0680  -13.6990 C.3   217  ASN217      0.1653
    143  C         -9.2480  -21.6240  -12.8070 C.2   217  ASN217      0.2266
    144  O         -9.3300  -21.7450  -11.5740 O.2   217  ASN217     -0.2867
    145  CB       -10.7500  -23.5600  -13.5060 C.3   217  ASN217      0.1155
    146  CG       -11.4050  -23.8510  -12.1490 C.2   217  ASN217      0.2627
    147  OD1      -12.3880  -23.2220  -11.7780 O.2   217  ASN217     -0.2716
    148  ND2      -10.8360  -24.7920  -11.4040 N.am  217  ASN217     -0.0877
    149  N        -22.1410  -18.1690   -6.3560 N.3   297  ARG297     -0.1245
    150  CA       -22.9960  -18.7390   -7.3840 C.3   297  ARG297      0.1563
    151  C        -24.4660  -18.4350   -7.0780 C.2   297  ARG297      0.2260
    152  O        -25.2810  -19.3300   -6.8630 O.2   297  ARG297     -0.2867
    153  CB       -22.7140  -20.2430   -7.5400 C.3   297  ARG297      0.0307
    154  CG       -21.3480  -20.5110   -8.1610 C.3   297  ARG297      0.0489
    155  CD       -20.9930  -21.9680   -8.1580 C.3   297  ARG297      0.2205
    156  NE       -19.7660  -22.1820   -8.9210 N.pl3 297  ARG297     -0.0865
    157  CZ       -19.3940  -23.3400   -9.4700 C.cat 297  ARG297      0.5346
    158  NH1      -20.1580  -24.4250   -9.3720 N.pl3 297  ARG297      0.1354
    159  NH2      -18.2470  -23.4140  -10.1240 N.pl3 297  ARG297      0.1354
    160  N        -25.9980  -21.4750  -10.8930 N.3   331  TRP331     -0.1227
    161  CA       -24.7700  -22.2800  -11.0090 C.3   331  TRP331      0.1737
    162  C        -24.3460  -22.3420  -12.4810 C.2   331  TRP331      0.2595
    163  O        -24.1600  -21.3000  -13.0820 O.2   331  TRP331     -0.2718
    164  CB       -24.9290  -23.6510  -10.3400 C.3   331  TRP331      0.0564
    165  CG       -24.8020  -23.5750   -8.8290 C.ar  331  TRP331      0.0003
    166  CD1      -25.5000  -22.7460   -7.9830 C.ar  331  TRP331      0.0946
    167  CD2      -23.9350  -24.3630   -7.9880 C.ar  331  TRP331      0.0152
    168  NE1      -25.1120  -22.9660   -6.6760 N.ar  331  TRP331     -0.2442
    169  CE2      -24.1650  -23.9530   -6.6460 C.ar  331  TRP331      0.0810
    170  CE3      -23.0150  -25.3920   -8.2330 C.ar  331  TRP331      0.0012
    171  CZ2      -23.4820  -24.5110   -5.5570 C.ar  331  TRP331      0.0191
    172  CZ3      -22.3310  -25.9580   -7.1420 C.ar  331  TRP331      0.0001
    173  CH2      -22.5760  -25.5130   -5.8190 C.ar  331  TRP331      0.0015
    174  N        -24.2140  -23.5300  -13.0760 N.am  332  TYR332     -0.1976
    175  CA       -23.7810  -23.6010  -14.4840 C.3   332  TYR332      0.1639
    176  C        -24.8510  -23.0610  -15.4090 C.2   332  TYR332      0.2290
    177  O        -26.0270  -23.1010  -15.0930 O.2   332  TYR332     -0.2864
    178  CB       -23.4820  -25.0470  -14.8960 C.3   332  TYR332      0.0560
    179  CG       -22.1330  -25.5720  -14.4910 C.ar  332  TYR332     -0.0198
    180  CD1      -21.3170  -24.8580  -13.6300 C.ar  332  TYR332     -0.0009
    181  CD2      -21.6810  -26.8110  -14.9550 C.ar  332  TYR332     -0.0009
    182  CE1      -20.0630  -25.3220  -13.2720 C.ar  332  TYR332      0.0417
    183  CE2      -20.4190  -27.3090  -14.5790 C.ar  332  TYR332      0.0417
    184  CZ       -19.6220  -26.5510  -13.7370 C.ar  332  TYR332      0.1957
    185  OH       -18.3700  -26.9960  -13.3500 O.3   332  TYR332     -0.2866
@<TRIPOS>BOND
     1    90    89    2
     2   123   124    2
     3   123   122    1
     4    98    99    1
     5   100   101    2
     6   100    99    1
     7    89    88    1
     8   112   113    1
     9   122   121    1
    10   122   125    1
    11   121   114   am
    12   115   114    2
    13    99   102    1
    14   114   113    1
    15    87    88    1
    16   113   116    1
    17   130   131    1
    18    76    75    2
    19    88    91    1
    20    75    74    1
    21   125   126    1
    22    91    92    1
    23   102   103    1
    24   133   132    2
    25    78    77    1
    26   131   132    1
    27   131   134    1
    28   106   104   ar
    29   116   117    1
    30   103   104    1
    31    77    74    1
    32   126   127    1
    33   117   118    1
    34   104   105   ar
    35    74    73    1
    36    92    93    1
    37   134   135    1
    38    15    14    2
    39    82    81    2
    40    28    26    1
    41    73    61   am
    42    81    80    1
    43    94    95    2
    44    94    93    1
    45    97    95    1
    46   127   129   ar
    47   127   128   ar
    48    95    96    1
    49   118   119   ar
    50   118   120   ar
    51    14    13    1
    52    26    27    1
    53    26    25    1
    54    59    60    1
    55   135   136    1
    56    71    72   ar
    57    71    69   ar
    58    72    70   ar
    59    61    60    1
    60    61    62    2
    61    80    79    1
    62    80    83    1
    63   176   177    2
    64   176   175    1
    65    21    22    1
    66    69    66   ar
    67   136   137    1
    68    16    13    1
    69    16    17    1
    70    70    68   ar
    71   141   142    1
    72   181   183   ar
    73   181   179   ar
    74    60    63    1
    75    13    12    1
    76   178   179    1
    77   178   175    1
    78    22    25    1
    79    22    23    1
    80    66    68   ar
    81    66    64   ar
    82    68    67   ar
    83   183   184   ar
    84   179   180   ar
    85   175   174    1
    86    83    85    1
    87    83    84    1
    88    51    50    2
    89    17    18    1
    90    64    63    1
    91    64    65   ar
    92    67    65   ar
    93     4     3    2
    94   137   138    2
    95   184   185    1
    96   184   182   ar
    97   142   145    1
    98   142   143    1
    99   180   182   ar
   100    50    49    1
   101    12     3   am
   102   145   146    1
   103    23    24    2
   104   139   138    1
   105     3     2    1
   106   163   162    2
   107   174   162   am
   108   138   140    1
   109    84    86    1
   110   107   108    1
   111    18    19   ar
   112    18    20   ar
   113   143   144    2
   114   108   109    1
   115   108   111    1
   116   162   161    1
   117    43    42    1
   118    43    44    1
   119    49    52    1
   120    49    48    1
   121   146   147    2
   122   146   148   am
   123    53    52    1
   124    53    54    1
   125   109   110    2
   126    42    41    1
   127     2     1    1
   128     2     5    1
   129    57    56    1
   130    58    56    1
   131    44    45    2
   132    56    55    2
   133    11     9    1
   134    55    54    1
   135   161   160    1
   136   161   164    1
   137    32    31    2
   138     5     6    1
   139    41    38    1
   140    45    46    1
   141    45    47    1
   142   164   165    1
   143     9     8    2
   144     9    10    1
   145   159   157    1
   146     8     7    1
   147    38    37    1
   148    38    39    1
   149    31    37   am
   150    31    30    1
   151     6     7    1
   152   157   158    1
   153   157   156    2
   154    33    34    1
   155    33    30    1
   156    39    40    2
   157    35    34   ar
   158    34    36   ar
   159   156   155    1
   160    30    29    1
   161   165   167   ar
   162   165   166   ar
   163   170   167   ar
   164   170   172   ar
   165   154   155    1
   166   154   153    1
   167   167   169   ar
   168   166   168   ar
   169   153   150    1
   170   150   151    1
   171   150   149    1
   172   172   173   ar
   173   151   152    2
   174   168   169   ar
   175   169   171   ar
   176   173   171   ar
