@<TRIPOS>MOLECULE
tmp/3k3aG01.pdb
 163 153 0 0 0
SMALL
GASTEIGER

@<TRIPOS>ATOM
      1  N         22.6140   82.9300  -61.6850 N.3    39  ARG39      -0.1231
      2  CA        22.4210   84.1130  -60.8490 C.3    39  ARG39       0.1694
      3  C         20.9500   84.5720  -60.9650 C.2    39  ARG39       0.2591
      4  O         20.1710   84.0040  -61.7380 O.2    39  ARG39      -0.2718
      5  CB        23.4220   85.2170  -61.2080 C.3    39  ARG39       0.0321
      6  CG        24.5460   85.3770  -60.1920 C.3    39  ARG39       0.0489
      7  CD        24.9960   86.8390  -60.1160 C.3    39  ARG39       0.2205
      8  NE        24.0710   87.6980  -59.3610 N.pl3  39  ARG39      -0.0865
      9  CZ        23.8530   89.0040  -59.6040 C.cat  39  ARG39       0.5346
     10  NH1       24.4940   89.6380  -60.5780 N.pl3  39  ARG39       0.1354
     11  NH2       23.0010   89.6910  -58.8510 N.pl3  39  ARG39       0.1354
     12  N         20.5730   85.5840  -60.1960 N.am   40  GLU40      -0.1979
     13  CA        19.2050   86.1450  -60.2390 C.3    40  GLU40       0.1602
     14  C         18.1710   85.0550  -60.0170 C.2    40  GLU40       0.2287
     15  O         17.2420   84.8530  -60.8290 O.2    40  GLU40      -0.2864
     16  CB        18.9280   86.9260  -61.5280 C.3    40  GLU40       0.0415
     17  CG        19.7870   88.2060  -61.6700 C.3    40  GLU40       0.1163
     18  CD        21.0490   88.0320  -62.5620 C.2    40  GLU40       0.3649
     19  OE1       21.3920   86.8730  -62.9310 O.co2  40  GLU40      -0.2457
     20  OE2       21.6890   89.0580  -62.9020 O.co2  40  GLU40      -0.2457
     21  N         26.7170   89.3610  -67.8880 N.3    72  ASP72      -0.1225
     22  CA        25.2630   89.2350  -67.6860 C.3    72  ASP72       0.1805
     23  C         24.5520   88.7520  -68.9770 C.2    72  ASP72       0.2597
     24  O         24.0070   87.6500  -69.0070 O.2    72  ASP72      -0.2718
     25  CB        24.6570   90.5090  -67.0440 C.3    72  ASP72       0.1424
     26  CG        24.9310   90.5980  -65.5230 C.2    72  ASP72       0.3668
     27  OD1       24.9320   89.5640  -64.7930 O.co2  72  ASP72      -0.2456
     28  OD2       25.1250   91.7080  -65.0010 O.co2  72  ASP72      -0.2456
     29  N         24.6270   89.5270  -70.0470 N.am   73  ARG73      -0.1979
     30  CA        23.8900   89.1880  -71.2710 C.3    73  ARG73       0.1597
     31  C         24.7140   88.5170  -72.3640 C.2    73  ARG73       0.2287
     32  O         25.4430   89.1930  -73.0800 O.2    73  ARG73      -0.2864
     33  CB        23.2020   90.4260  -71.8510 C.3    73  ARG73       0.0334
     34  CG        22.4820   91.2150  -70.7890 C.3    73  ARG73       0.0492
     35  CD        22.2750   92.6560  -71.2570 C.3    73  ARG73       0.2205
     36  NE        23.5380   93.4220  -71.2560 N.pl3  73  ARG73      -0.0865
     37  CZ        24.1070   94.0110  -70.1950 C.cat  73  ARG73       0.5346
     38  NH1       23.5780   93.9550  -68.9740 N.pl3  73  ARG73       0.1354
     39  NH2       25.2480   94.6570  -70.3550 N.pl3  73  ARG73       0.1354
     40  N         22.7390   82.1740  -72.1350 N.3    77  ARG77      -0.1245
     41  CA        21.9570   82.3810  -70.9410 C.3    77  ARG77       0.1563
     42  C         20.5050   81.8650  -71.0780 C.2    77  ARG77       0.2260
     43  O         19.8360   82.0820  -72.1020 O.2    77  ARG77      -0.2867
     44  CB        21.9750   83.8760  -70.6280 C.3    77  ARG77       0.0307
     45  CG        21.8470   84.2210  -69.1860 C.3    77  ARG77       0.0489
     46  CD        23.1390   84.5970  -68.6570 C.3    77  ARG77       0.2205
     47  NE        23.2250   84.2480  -67.2600 N.pl3  77  ARG77      -0.0865
     48  CZ        22.8870   85.0490  -66.2660 C.cat  77  ARG77       0.5346
     49  NH1       22.4310   86.2550  -66.5310 N.pl3  77  ARG77       0.1354
     50  NH2       23.0140   84.6420  -65.0180 N.pl3  77  ARG77       0.1354
     51  N         18.3920   86.4620  -70.6530 N.3   100  TRP100     -0.1227
     52  CA        19.3130   87.0740  -69.7230 C.3   100  TRP100      0.1737
     53  C         18.6130   88.0250  -68.7650 C.2   100  TRP100      0.2596
     54  O         19.2550   88.6850  -67.9420 O.2   100  TRP100     -0.2718
     55  CB        20.5250   87.7270  -70.4020 C.3   100  TRP100      0.0564
     56  CG        20.2680   88.4980  -71.6500 C.ar  100  TRP100      0.0003
     57  CD1       20.6320   88.1330  -72.8870 C.ar  100  TRP100      0.0946
     58  CD2       19.6100   89.7770  -71.7750 C.ar  100  TRP100      0.0152
     59  NE1       20.2490   89.0820  -73.7870 N.ar  100  TRP100     -0.2442
     60  CE2       19.6260   90.1110  -73.1250 C.ar  100  TRP100      0.0810
     61  CE3       19.0280   90.6720  -70.8630 C.ar  100  TRP100      0.0012
     62  CZ2       19.0780   91.3240  -73.6200 C.ar  100  TRP100      0.0191
     63  CZ3       18.4770   91.8570  -71.3310 C.ar  100  TRP100      0.0001
     64  CH2       18.4990   92.1760  -72.7080 C.ar  100  TRP100      0.0015
     65  N         17.2900   88.0480  -68.8150 N.am  101  SER101     -0.1952
     66  CA        16.5060   88.6810  -67.7260 C.3   101  SER101      0.1924
     67  C         15.1980   87.9190  -67.6560 C.2   101  SER101      0.2314
     68  O         14.6450   87.5610  -68.7180 O.2   101  SER101     -0.2863
     69  CB        16.2600   90.1670  -68.0790 C.3   101  SER101      0.2116
     70  OG        15.4830   90.8560  -67.1070 O.3   101  SER101     -0.2180
     71  N         18.9290   98.0460  -73.6250 N.3   144  ILE144     -0.1245
     72  CA        18.7970   96.8910  -72.6930 C.3   144  ILE144      0.1561
     73  C         17.4300   96.7880  -72.0160 C.2   144  ILE144      0.2260
     74  O         17.2750   97.1490  -70.8470 O.2   144  ILE144     -0.2867
     75  CB        19.9360   96.8040  -71.6350 C.3   144  ILE144      0.0252
     76  CG1       21.3260   96.9660  -72.3020 C.3   144  ILE144      0.0019
     77  CG2       19.8260   95.4760  -70.8560 C.3   144  ILE144      0.0019
     78  CD1       22.4810   97.2780  -71.3450 C.3   144  ILE144      0.0001
     79  N         14.8260   95.2150  -70.0030 N.3   146  ARG146     -0.1245
     80  CA        14.9690   94.4260  -68.7910 C.3   146  ARG146      0.1563
     81  C         13.6240   94.0750  -68.1470 C.2   146  ARG146      0.2260
     82  O         12.6610   94.8550  -68.2720 O.2   146  ARG146     -0.2867
     83  CB        15.7120   95.2600  -67.7650 C.3   146  ARG146      0.0307
     84  CG        17.1680   95.0310  -67.7390 C.3   146  ARG146      0.0489
     85  CD        17.9600   96.2950  -68.1660 C.3   146  ARG146      0.2205
     86  NE        17.9470   97.3840  -67.1870 N.pl3 146  ARG146     -0.0865
     87  CZ        18.0750   98.6680  -67.5010 C.cat 146  ARG146      0.5346
     88  NH1       18.2440   99.0440  -68.7510 N.pl3 146  ARG146      0.1354
     89  NH2       18.0250   99.5820  -66.5540 N.pl3 146  ARG146      0.1354
     90  N         13.4420   90.3510  -62.7490 N.3   149  GLU149     -0.1245
     91  CA        14.2760   89.3980  -62.0080 C.3   149  GLU149      0.1567
     92  C         13.5570   88.6770  -60.8320 C.2   149  GLU149      0.2260
     93  O         14.2180   88.1010  -59.9760 O.2   149  GLU149     -0.2867
     94  CB        15.5310   90.1280  -61.4980 C.3   149  GLU149      0.0388
     95  CG        16.7690   89.9530  -62.3090 C.3   149  GLU149      0.1160
     96  CD        16.5920   90.2980  -63.7450 C.2   149  GLU149      0.3649
     97  OE1       16.6750   91.4830  -64.1350 O.co2 149  GLU149     -0.2457
     98  OE2       16.4330   89.3630  -64.5190 O.co2 149  GLU149     -0.2457
     99  N         21.7870  102.5150  -67.7920 N.3   168  ALA168     -0.1245
    100  CA        22.0930  102.1900  -66.4000 C.3   168  ALA168      0.1562
    101  C         22.4640  103.4290  -65.5330 C.2   168  ALA168      0.2260
    102  O         22.4560  103.3920  -64.3150 O.2   168  ALA168     -0.2867
    103  CB        23.2310  101.1540  -66.3600 C.3   168  ALA168      0.0290
    104  N         13.9080  100.2000  -62.0450 N.3   198  GLU198     -0.1231
    105  CA        14.2320   98.8880  -62.5680 C.3   198  GLU198      0.1699
    106  C         14.1540   97.8120  -61.4920 C.2   198  GLU198      0.2592
    107  O         14.1890   98.1210  -60.3140 O.2   198  GLU198     -0.2718
    108  CB        15.5970   98.9210  -63.2730 C.3   198  GLU198      0.0402
    109  CG        16.8420   98.8870  -62.4050 C.3   198  GLU198      0.1161
    110  CD        18.0990   99.0050  -63.2680 C.2   198  GLU198      0.3649
    111  OE1       18.3030  100.0890  -63.8760 O.co2 198  GLU198     -0.2457
    112  OE2       18.8660   98.0170  -63.3700 O.co2 198  GLU198     -0.2457
    113  N         13.9760   96.5650  -61.8940 N.am  199  GLU199     -0.1979
    114  CA        13.9180   95.4240  -60.9530 C.3   199  GLU199      0.1602
    115  C         12.9240   95.5790  -59.8280 C.2   199  GLU199      0.2287
    116  O         13.2500   95.4060  -58.6400 O.2   199  GLU199     -0.2864
    117  CB        15.3150   95.0770  -60.4300 C.3   199  GLU199      0.0415
    118  CG        16.2610   94.8050  -61.5930 C.3   199  GLU199      0.1163
    119  CD        17.6970   94.6010  -61.1930 C.2   199  GLU199      0.3649
    120  OE1       18.4570   94.0080  -62.0020 O.co2 199  GLU199     -0.2457
    121  OE2       18.0770   95.0260  -60.0900 O.co2 199  GLU199     -0.2457
    122  N         14.6680   99.5350  -58.0680 N.3   215  ARG215     -0.1245
    123  CA        16.0400   99.9740  -58.0560 C.3   215  ARG215      0.1563
    124  C         16.1730  101.2200  -58.9040 C.2   215  ARG215      0.2260
    125  O         15.7220  101.2500  -60.0450 O.2   215  ARG215     -0.2867
    126  CB        16.9190   98.8600  -58.6380 C.3   215  ARG215      0.0307
    127  CG        18.4280   99.1440  -58.6460 C.3   215  ARG215      0.0489
    128  CD        19.1160   97.9310  -59.2320 C.3   215  ARG215      0.2205
    129  NE        20.5490   98.0990  -59.4480 N.pl3 215  ARG215     -0.0865
    130  CZ        21.3550   97.1130  -59.8130 C.cat 215  ARG215      0.5346
    131  NH1       20.8810   95.8640  -59.9870 N.pl3 215  ARG215      0.1354
    132  NH2       22.6420   97.3610  -59.9900 N.pl3 215  ARG215      0.1354
    133  N         19.3920  103.0380  -60.2790 N.3   217  ASN217     -0.1240
    134  CA        20.8180  102.8310  -60.4720 C.3   217  ASN217      0.1653
    135  C         21.5990  104.1300  -60.8190 C.2   217  ASN217      0.2266
    136  O         22.8270  104.0810  -61.0190 O.2   217  ASN217     -0.2867
    137  CB        20.9940  101.8190  -61.6310 C.3   217  ASN217      0.1155
    138  CG        22.2590  100.9760  -61.5000 C.2   217  ASN217      0.2627
    139  OD1       22.3760  100.1400  -60.5950 O.2   217  ASN217     -0.2716
    140  ND2       23.2090  101.1840  -62.4120 N.am  217  ASN217     -0.0877
    141  N         27.7920   94.3290  -51.1730 N.3   297  ARG297     -0.1245
    142  CA        26.7950   93.2900  -51.1880 C.3   297  ARG297      0.1563
    143  C         27.0770   92.1640  -50.1650 C.2   297  ARG297      0.2260
    144  O         27.2030   90.9920  -50.5190 O.2   297  ARG297     -0.2867
    145  CB        26.6390   92.7890  -52.6250 C.3   297  ARG297      0.0307
    146  CG        26.2640   93.9530  -53.5950 C.3   297  ARG297      0.0489
    147  CD        25.9170   93.4170  -54.9410 C.3   297  ARG297      0.2205
    148  NE        25.2980   94.4300  -55.7750 N.pl3 297  ARG297     -0.0865
    149  CZ        24.8250   94.1740  -56.9810 C.cat 297  ARG297      0.5346
    150  NH1       24.8930   92.9330  -57.4660 N.pl3 297  ARG297      0.1354
    151  NH2       24.2910   95.1480  -57.7210 N.pl3 297  ARG297      0.1354
    152  N         21.1900   90.1370  -54.5340 N.3   332  TYR332     -0.1241
    153  CA        19.7850   90.3800  -54.8320 C.3   332  TYR332      0.1605
    154  C         18.8600   89.7740  -53.7770 C.2   332  TYR332      0.2264
    155  O         19.1700   88.7300  -53.1790 O.2   332  TYR332     -0.2867
    156  CB        19.4910   89.7820  -56.2170 C.3   332  TYR332      0.0534
    157  CG        19.7760   90.7210  -57.4010 C.ar  332  TYR332     -0.0201
    158  CD1       20.6150   91.8540  -57.2590 C.ar  332  TYR332     -0.0009
    159  CD2       19.2140   90.4810  -58.6620 C.ar  332  TYR332     -0.0009
    160  CE1       20.8900   92.7210  -58.3450 C.ar  332  TYR332      0.0417
    161  CE2       19.4630   91.3640  -59.7510 C.ar  332  TYR332      0.0417
    162  CZ        20.3060   92.4730  -59.5950 C.ar  332  TYR332      0.1957
    163  OH        20.5210   93.3390  -60.6860 O.3   332  TYR332     -0.2866
@<TRIPOS>BOND
     1    59    60   ar
     2    59    57   ar
     3    71    72    1
     4    62    60   ar
     5    62    64   ar
     6    60    58   ar
     7    32    31    2
     8    57    56   ar
     9    64    63   ar
    10    72    73    1
    11    72    75    1
    12    31    30    1
    13    76    75    1
    14    76    78    1
    15    40    41    1
    16    43    42    2
    17    73    74    2
    18    33    30    1
    19    33    34    1
    20    58    56   ar
    21    58    61   ar
    22    56    55    1
    23    75    77    1
    24    63    61   ar
    25    30    29    1
    26    35    36    1
    27    35    34    1
    28    36    37    2
    29    42    41    1
    30    41    44    1
    31    51    52    1
    32    44    45    1
    33    55    52    1
    34    39    37    1
    35    37    38    1
    36    29    23   am
    37    79    80    1
    38    52    53    1
    39    45    46    1
    40    24    23    2
    41    23    22    1
    42    65    53   am
    43    65    66    1
    44    80    81    1
    45    80    83    1
    46    53    54    2
    47    88    87    1
    48    68    67    2
    49    46    47    1
    50    82    81    2
    51    85    84    1
    52    85    86    1
    53    69    66    1
    54    69    70    1
    55    21    22    1
    56    99   100    1
    57    83    84    1
    58    66    67    1
    59    22    25    1
    60    87    86    2
    61    87    89    1
    62    47    48    2
    63    25    26    1
    64    49    48    1
    65   100   103    1
    66   100   101    1
    67    48    50    1
    68   101   102    2
    69    26    28   ar
    70    26    27   ar
    71    98    96   ar
    72    97    96   ar
    73   111   110   ar
    74    96    95    1
    75   112   110   ar
    76   108   105    1
    77   108   109    1
    78   110   109    1
    79    19    18   ar
    80    20    18   ar
    81    90    91    1
    82   105   104    1
    83   105   106    1
    84    18    17    1
    85   140   138   am
    86    95    94    1
    87    91    94    1
    88    91    92    1
    89   120   119   ar
    90   113   106   am
    91   113   114    1
    92     4     3    2
    93     1     2    1
    94    17    16    1
    95   137   138    1
    96   137   134    1
    97   118   119    1
    98   118   117    1
    99    16    13    1
   100   138   139    2
   101   106   107    2
   102     5     2    1
   103     5     6    1
   104   119   121   ar
   105   136   135    2
   106     3     2    1
   107     3    12   am
   108   114   117    1
   109   114   115    1
   110    92    93    2
   111    15    14    2
   112   135   134    1
   113   163   162    1
   114    10     9    1
   115   134   133    1
   116    13    12    1
   117    13    14    1
   118     6     7    1
   119     7     8    1
   120   125   124    2
   121   132   130    1
   122   131   130    1
   123   115   116    2
   124   130   129    2
   125   161   162   ar
   126   161   159   ar
   127     9     8    2
   128     9    11    1
   129   162   160   ar
   130   129   128    1
   131   128   127    1
   132   124   123    1
   133   159   157   ar
   134   127   126    1
   135   126   123    1
   136   160   158   ar
   137   122   123    1
   138   151   149    1
   139   150   149    1
   140   157   158   ar
   141   157   156    1
   142   149   148    2
   143   156   153    1
   144   148   147    1
   145   147   146    1
   146   153   152    1
   147   153   154    1
   148   154   155    2
   149   146   145    1
   150   145   142    1
   151   142   141    1
   152   142   143    1
   153   144   143    2
