@<TRIPOS>MOLECULE
tmp/3k3bB01.pdb
 159 152 0 0 0
SMALL
GASTEIGER

@<TRIPOS>ATOM
      1  N         28.1460   19.8420   21.6310 N.3    97  GLU97      -0.1231
      2  CA        27.4480   20.6040   22.6620 C.3    97  GLU97       0.1699
      3  C         27.8650   20.1560   24.0530 C.2    97  GLU97       0.2593
      4  O         28.1330   20.9810   24.9300 O.2    97  GLU97      -0.2718
      5  CB        25.9330   20.4410   22.5170 C.3    97  GLU97       0.0402
      6  CG        25.3800   20.8270   21.1530 C.3    97  GLU97       0.1161
      7  CD        23.8710   21.0130   21.1500 C.2    97  GLU97       0.3649
      8  OE1       23.3610   21.6200   20.1860 O.co2  97  GLU97      -0.2457
      9  OE2       23.1940   20.5610   22.1010 O.co2  97  GLU97      -0.2457
     10  N         27.9150   18.8410   24.2410 N.am   98  GLY98      -0.1942
     11  CA        28.1510   18.2540   25.5440 C.3    98  GLY98       0.2014
     12  C         26.8630   18.1850   26.3380 C.2    98  GLY98       0.2639
     13  O         25.7920   18.5410   25.8370 O.2    98  GLY98      -0.2714
     14  N         26.9730   17.7250   27.5800 N.am   99  GLU99      -0.1963
     15  CA        25.8280   17.6180   28.4760 C.3    99  GLU99       0.1733
     16  C         26.1980   18.1470   29.8550 C.2    99  GLU99       0.2616
     17  O         27.3390   18.5510   30.0830 O.2    99  GLU99      -0.2715
     18  CB        25.3700   16.1620   28.5760 C.3    99  GLU99       0.0429
     19  CG        24.9340   15.5620   27.2490 C.3    99  GLU99       0.1163
     20  CD        24.8580   14.0470   27.2760 C.2    99  GLU99       0.3649
     21  OE1       24.9990   13.4470   28.3640 O.co2  99  GLU99      -0.2457
     22  OE2       24.6560   13.4530   26.1970 O.co2  99  GLU99      -0.2457
     23  N         25.2270   18.1500   30.7630 N.am  100  ARG100     -0.1977
     24  CA        25.4610   18.5580   32.1420 C.3   100  ARG100      0.1597
     25  C         25.5740   17.3210   33.0370 C.2   100  ARG100      0.2287
     26  O         24.9190   16.2980   32.7910 O.2   100  ARG100     -0.2864
     27  CB        24.3590   19.5070   32.6300 C.3   100  ARG100      0.0334
     28  CG        24.1650   20.7680   31.7670 C.3   100  ARG100      0.0492
     29  CD        25.1900   21.8650   32.0660 C.3   100  ARG100      0.2205
     30  NE        24.9370   22.5260   33.3460 N.pl3 100  ARG100     -0.0865
     31  CZ        25.7870   22.5420   34.3690 C.cat 100  ARG100      0.5346
     32  NH1       26.9670   21.9480   34.2680 N.pl3 100  ARG100      0.1354
     33  NH2       25.4650   23.1650   35.4950 N.pl3 100  ARG100      0.1354
     34  N         28.6040   25.4870   34.7010 N.3   108  TRP108     -0.1241
     35  CA        28.6700   25.1170   33.2860 C.3   108  TRP108      0.1605
     36  C         30.0970   25.1840   32.7290 C.2   108  TRP108      0.2264
     37  O         30.4490   24.4400   31.8100 O.2   108  TRP108     -0.2867
     38  CB        27.7030   25.9650   32.4500 C.3   108  TRP108      0.0550
     39  CG        28.1460   27.3820   32.2100 C.ar  108  TRP108      0.0003
     40  CD1       27.7890   28.4880   32.9270 C.ar  108  TRP108      0.0946
     41  CD2       29.0180   27.8390   31.1700 C.ar  108  TRP108      0.0152
     42  NE1       28.3900   29.6070   32.4010 N.ar  108  TRP108     -0.2442
     43  CE2       29.1490   29.2400   31.3240 C.ar  108  TRP108      0.0810
     44  CE3       29.7050   27.2040   30.1260 C.ar  108  TRP108      0.0012
     45  CZ2       29.9430   30.0160   30.4680 C.ar  108  TRP108      0.0191
     46  CZ3       30.4940   27.9760   29.2760 C.ar  108  TRP108      0.0001
     47  CH2       30.6060   29.3680   29.4550 C.ar  108  TRP108      0.0015
     48  N         32.1250   21.9200   34.0880 N.3   111  ASP111     -0.1239
     49  CA        31.5130   20.6210   33.8250 C.3   111  ASP111      0.1674
     50  C         32.3510   19.7750   32.8580 C.2   111  ASP111      0.2266
     51  O         32.5180   20.1490   31.6940 O.2   111  ASP111     -0.2867
     52  CB        30.0890   20.7950   33.2900 C.3   111  ASP111      0.1410
     53  CG        29.2370   19.5540   33.4840 C.2   111  ASP111      0.3668
     54  OD1       28.0740   19.6950   33.9120 O.co2 111  ASP111     -0.2456
     55  OD2       29.7260   18.4350   33.2190 O.co2 111  ASP111     -0.2456
     56  N         30.8410   18.9840   29.4050 N.3   114  ALA114     -0.1245
     57  CA        30.6550   20.0520   28.4230 C.3   114  ALA114      0.1562
     58  C         31.3140   19.7110   27.0870 C.2   114  ALA114      0.2260
     59  O         32.3600   19.0600   27.0490 O.2   114  ALA114     -0.2867
     60  CB        31.1930   21.3730   28.9630 C.3   114  ALA114      0.0290
     61  N         31.3340   23.5230   21.9180 N.3   117  ILE117     -0.1231
     62  CA        30.7420   24.8650   21.9000 C.3   117  ILE117      0.1678
     63  C         30.9320   25.6360   23.2260 C.2   117  ILE117      0.2434
     64  O         31.4950   26.7330   23.2130 O.2   117  ILE117     -0.2733
     65  CB        29.2480   24.8360   21.4390 C.3   117  ILE117      0.0265
     66  CG1       29.1730   24.6060   19.9240 C.3   117  ILE117      0.0019
     67  CG2       28.5210   26.1310   21.8150 C.3   117  ILE117      0.0020
     68  CD1       27.8390   24.0680   19.4250 C.3   117  ILE117      0.0001
     69  N         30.4810   25.0650   24.3680 N.am  118  PRO118     -0.2729
     70  CA        30.5960   25.7870   25.6440 C.3   118  PRO118      0.1401
     71  C         32.0540   26.0390   26.0100 C.2   118  PRO118      0.2269
     72  O         32.4080   27.1310   26.4630 O.2   118  PRO118     -0.2865
     73  CB        29.9690   24.8130   26.6520 C.3   118  PRO118      0.0296
     74  CG        29.1130   23.9040   25.8290 C.3   118  PRO118      0.0237
     75  CD        29.9000   23.7260   24.5710 C.3   118  PRO118      0.0939
     76  N         22.9040   30.8790   15.5990 N.3   141  LEU141     -0.1245
     77  CA        22.5880   29.4630   15.5340 C.3   141  LEU141      0.1561
     78  C         21.4330   29.2510   14.5710 C.2   141  LEU141      0.2260
     79  O         20.3290   29.7590   14.7850 O.2   141  LEU141     -0.2867
     80  CB        22.2510   28.9120   16.9250 C.3   141  LEU141      0.0270
     81  CG        21.7270   27.4730   17.0310 C.3   141  LEU141      0.0019
     82  CD1       22.8020   26.4390   16.6920 C.3   141  LEU141      0.0001
     83  CD2       21.1560   27.2260   18.4180 C.3   141  LEU141      0.0001
     84  N         18.0590   31.5610   17.3500 N.3   153  LEU153     -0.1245
     85  CA        18.4080   32.5730   18.3440 C.3   153  LEU153      0.1561
     86  C         17.5880   33.8560   18.2250 C.2   153  LEU153      0.2260
     87  O         17.7220   34.7670   19.0470 O.2   153  LEU153     -0.2867
     88  CB        19.9130   32.8730   18.3100 C.3   153  LEU153      0.0270
     89  CG        20.8900   32.2140   19.3020 C.3   153  LEU153      0.0019
     90  CD1       20.4470   30.8460   19.8240 C.3   153  LEU153      0.0001
     91  CD2       22.2770   32.1220   18.6750 C.3   153  LEU153      0.0001
     92  N         25.4860   30.8490   28.7570 N.3   192  TYR192     -0.1241
     93  CA        24.6370   29.7100   29.1050 C.3   192  TYR192      0.1605
     94  C         23.1560   29.9450   28.7940 C.2   192  TYR192      0.2264
     95  O         22.4910   29.0660   28.2450 O.2   192  TYR192     -0.2867
     96  CB        24.8340   29.2610   30.5580 C.3   192  TYR192      0.0534
     97  CG        24.3310   27.8530   30.7900 C.ar  192  TYR192     -0.0201
     98  CD1       23.0470   27.6240   31.2890 C.ar  192  TYR192     -0.0009
     99  CD2       25.1250   26.7470   30.4740 C.ar  192  TYR192     -0.0009
    100  CE1       22.5720   26.3270   31.4880 C.ar  192  TYR192      0.0417
    101  CE2       24.6610   25.4450   30.6690 C.ar  192  TYR192      0.0417
    102  CZ        23.3840   25.2450   31.1750 C.ar  192  TYR192      0.1957
    103  OH        22.9180   23.9650   31.3700 O.3   192  TYR192     -0.2866
    104  N         22.0280   31.9610   26.5480 N.3   194  ILE194     -0.1231
    105  CA        21.9610   32.0020   25.0910 C.3   194  ILE194      0.1692
    106  C         21.8820   30.5920   24.5070 C.2   194  ILE194      0.2592
    107  O         21.1260   30.3500   23.5650 O.2   194  ILE194     -0.2718
    108  CB        23.1600   32.7830   24.4810 C.3   194  ILE194      0.0266
    109  CG1       23.1690   34.2310   24.9910 C.3   194  ILE194      0.0019
    110  CG2       23.1120   32.7400   22.9490 C.3   194  ILE194      0.0020
    111  CD1       24.4280   35.0220   24.6480 C.3   194  ILE194      0.0001
    112  N         22.6570   29.6690   25.0720 N.am  195  LEU195     -0.1966
    113  CA        22.6500   28.2820   24.6140 C.3   195  LEU195      0.1728
    114  C         21.3280   27.5950   24.9490 C.2   195  LEU195      0.2616
    115  O         20.8060   26.8150   24.1490 O.2   195  LEU195     -0.2715
    116  CB        23.8400   27.5050   25.1930 C.3   195  LEU195      0.0311
    117  CG        25.2490   27.9780   24.8040 C.3   195  LEU195      0.0022
    118  CD1       26.3040   27.1530   25.5220 C.3   195  LEU195      0.0001
    119  CD2       25.4770   27.9360   23.2940 C.3   195  LEU195      0.0001
    120  N         20.7890   27.9040   26.1280 N.am  196  GLU196     -0.1977
    121  CA        19.4940   27.3820   26.5600 C.3   196  GLU196      0.1602
    122  C         18.3740   27.7990   25.6080 C.2   196  GLU196      0.2287
    123  O         17.6110   26.9560   25.1330 O.2   196  GLU196     -0.2864
    124  CB        19.1680   27.8390   27.9860 C.3   196  GLU196      0.0415
    125  CG        20.0040   27.1740   29.0710 C.3   196  GLU196      0.1163
    126  CD        19.3850   27.3080   30.4520 C.2   196  GLU196      0.3649
    127  OE1       19.1130   28.4490   30.8830 O.co2 196  GLU196     -0.2457
    128  OE2       19.1740   26.2670   31.1080 O.co2 196  GLU196     -0.2457
    129  N         18.5810   28.8260   22.5390 N.3   198  GLY198     -0.1210
    130  CA        18.8070   28.1660   21.2650 C.3   198  GLY198      0.1956
    131  C         18.3040   26.7350   21.2670 C.2   198  GLY198      0.2611
    132  O         17.6760   26.2880   20.3040 O.2   198  GLY198     -0.2717
    133  N         18.5780   26.0220   22.3580 N.am  199  ALA199     -0.1979
    134  CA        18.1630   24.6300   22.5130 C.3   199  ALA199      0.1597
    135  C         16.6430   24.4880   22.5970 C.2   199  ALA199      0.2287
    136  O         16.0640   23.5890   21.9850 O.2   199  ALA199     -0.2864
    137  CB        18.8270   24.0100   23.7380 C.3   199  ALA199      0.0319
    138  N         15.0360   24.9970   19.1250 N.3   202  ARG202     -0.1245
    139  CA        15.2340   23.8400   18.2540 C.3   202  ARG202      0.1563
    140  C         14.2100   22.7670   18.6150 C.2   202  ARG202      0.2260
    141  O         13.6830   22.0740   17.7410 O.2   202  ARG202     -0.2867
    142  CB        16.6640   23.3060   18.3940 C.3   202  ARG202      0.0307
    143  CG        16.9690   22.0280   17.6080 C.3   202  ARG202      0.0489
    144  CD        18.4700   21.7620   17.5490 C.3   202  ARG202      0.2205
    145  NE        19.1130   21.9240   18.8530 N.pl3 202  ARG202     -0.0865
    146  CZ        20.3810   22.2880   19.0300 C.cat 202  ARG202      0.5346
    147  NH1       21.1630   22.5380   17.9870 N.pl3 202  ARG202      0.1354
    148  NH2       20.8650   22.4110   20.2580 N.pl3 202  ARG202      0.1354
    149  N         26.3080   26.3710   14.5480 N.3   220  PHE220     -0.1241
    150  CA        26.5750   27.3500   15.5930 C.3   220  PHE220      0.1605
    151  C         27.8350   28.1350   15.2490 C.2   220  PHE220      0.2264
    152  O         28.9430   27.5930   15.2770 O.2   220  PHE220     -0.2867
    153  CB        26.7320   26.6580   16.9510 C.3   220  PHE220      0.0534
    154  CG        26.8450   27.6080   18.1110 C.ar  220  PHE220     -0.0203
    155  CD1       28.0380   28.2890   18.3590 C.ar  220  PHE220     -0.0042
    156  CD2       25.7600   27.8190   18.9610 C.ar  220  PHE220     -0.0042
    157  CE1       28.1470   29.1730   19.4340 C.ar  220  PHE220     -0.0003
    158  CE2       25.8560   28.6980   20.0410 C.ar  220  PHE220     -0.0003
    159  CZ        27.0530   29.3770   20.2780 C.ar  220  PHE220     -0.0000
@<TRIPOS>BOND
     1   149   150    1
     2    78    79    2
     3    78    77    1
     4   151   152    2
     5   151   150    1
     6    77    76    1
     7    77    80    1
     8   150   153    1
     9    82    81    1
    10    80    81    1
    11   153   154    1
    12    81    83    1
    13    84    85    1
    14   144   143    1
    15   144   145    1
    16   143   142    1
    17   141   140    2
    18   147   146    1
    19   154   155   ar
    20   154   156   ar
    21    86    85    1
    22    86    87    2
    23   139   142    1
    24   139   140    1
    25   139   138    1
    26    88    85    1
    27    88    89    1
    28   155   157   ar
    29    91    89    1
    30   145   146    2
    31   156   158   ar
    32   146   148    1
    33    89    90    1
    34    68    66    1
    35   157   159   ar
    36    66    65    1
    37   158   159   ar
    38     8     7   ar
    39   132   131    2
    40     7     6    1
    41     7     9   ar
    42     6     5    1
    43   130   131    1
    44   130   129    1
    45   131   133   am
    46    65    67    1
    47    65    62    1
    48     1     2    1
    49    62    61    1
    50    62    63    1
    51   136   135    2
    52   133   134    1
    53   134   135    1
    54   134   137    1
    55     5     2    1
    56     2     3    1
    57   110   108    1
    58    64    63    2
    59    63    69   am
    60   119   117    1
    61   107   106    2
    62     3    10   am
    63     3     4    2
    64   115   114    2
    65    10    11    1
    66    69    75    1
    67    69    70    1
    68   108   109    1
    69   108   105    1
    70   106   112   am
    71   106   105    1
    72    75    74    1
    73   113   114    1
    74   113   112    1
    75   113   116    1
    76   111   109    1
    77   117   116    1
    78   117   118    1
    79   114   120   am
    80   105   104    1
    81   123   122    2
    82    11    12    1
    83   122   121    1
    84    70    71    1
    85    70    73    1
    86    74    73    1
    87    13    12    2
    88    71    72    2
    89   120   121    1
    90    22    20   ar
    91    12    14   am
    92   121   124    1
    93    59    58    2
    94    58    57    1
    95    19    20    1
    96    19    18    1
    97    20    21   ar
    98    14    15    1
    99   124   125    1
   100    95    94    2
   101    57    60    1
   102    57    56    1
   103    15    18    1
   104    15    16    1
   105    92    93    1
   106    94    93    1
   107   125   126    1
   108    93    96    1
   109    46    47   ar
   110    46    44   ar
   111    47    45   ar
   112    16    17    2
   113    16    23   am
   114    44    41   ar
   115   126   127   ar
   116   126   128   ar
   117    45    43   ar
   118    99   101   ar
   119    99    97   ar
   120    96    97    1
   121   101   102   ar
   122    23    24    1
   123    97    98   ar
   124    41    43   ar
   125    41    39   ar
   126   102   103    1
   127   102   100   ar
   128    98   100   ar
   129    43    42   ar
   130    51    50    2
   131    28    29    1
   132    28    27    1
   133    37    36    2
   134    29    30    1
   135    24    27    1
   136    24    25    1
   137    39    38    1
   138    39    40   ar
   139    42    40   ar
   140    38    35    1
   141    36    35    1
   142    26    25    2
   143    50    49    1
   144    55    53   ar
   145    35    34    1
   146    52    53    1
   147    52    49    1
   148    30    31    2
   149    53    54   ar
   150    49    48    1
   151    32    31    1
   152    31    33    1
