@<TRIPOS>MOLECULE
tmp/3k3bA02.pdb
 79 75 0 0 0
SMALL
GASTEIGER

@<TRIPOS>ATOM
      1  N          3.5760   -3.0790   17.7060 N.3    10  CYS10      -0.1235
      2  CA         4.4140   -1.9260   17.9810 C.3    10  CYS10       0.1677
      3  C          5.0030   -2.0890   19.3720 C.2    10  CYS10       0.2270
      4  O          4.3110   -2.5090   20.3040 O.2    10  CYS10      -0.2867
      5  CB         3.5970   -0.6360   17.8970 C.3    10  CYS10       0.0956
      6  SG         4.5610    0.8800   18.0950 S.3    10  CYS10      -0.0801
      7  N          7.3050   -0.3650   22.7310 N.3    12  PRO12      -0.2102
      8  CA         7.4900    0.9490   23.3570 C.3    12  PRO12       0.1504
      9  C          8.7220    1.6570   22.8070 C.2    12  PRO12       0.2575
     10  O          9.5310    1.0330   22.1150 O.2    12  PRO12      -0.2718
     11  CB         7.7180    0.6070   24.8340 C.3    12  PRO12       0.0282
     12  CG         7.1470   -0.7490   25.0140 C.3    12  PRO12       0.0208
     13  CD         7.3770   -1.4550   23.7200 C.3    12  PRO12       0.0893
     14  N          8.8480    2.9470   23.1070 N.am   13  PHE13      -0.1977
     15  CA        10.0660    3.6950   22.8260 C.3    13  PHE13       0.1639
     16  C         11.2420    2.9870   23.4840 C.2    13  PHE13       0.2290
     17  O         11.0930    2.3950   24.5570 O.2    13  PHE13      -0.2864
     18  CB         9.9580    5.1130   23.3950 C.3    13  PHE13       0.0560
     19  CG         9.4530    6.1410   22.4140 C.ar   13  PHE13      -0.0200
     20  CD1        8.1090    6.1710   22.0340 C.ar   13  PHE13      -0.0042
     21  CD2       10.3200    7.1040   21.8950 C.ar   13  PHE13      -0.0042
     22  CE1        7.6400    7.1350   21.1330 C.ar   13  PHE13      -0.0003
     23  CE2        9.8640    8.0730   20.9960 C.ar   13  PHE13      -0.0003
     24  CZ         8.5210    8.0890   20.6140 C.ar   13  PHE13      -0.0000
     25  N         14.5660    8.1670   22.7220 N.3    18  ARG18      -0.1245
     26  CA        14.3790    9.2560   23.6770 C.3    18  ARG18       0.1563
     27  C         15.5170   10.2680   23.5670 C.2    18  ARG18       0.2260
     28  O         15.2840   11.4740   23.4810 O.2    18  ARG18      -0.2867
     29  CB        14.3010    8.7230   25.1150 C.3    18  ARG18       0.0307
     30  CG        13.1320    7.7790   25.4120 C.3    18  ARG18       0.0489
     31  CD        11.7780    8.4700   25.2910 C.3    18  ARG18       0.2205
     32  NE        10.6770    7.6230   25.7480 N.pl3  18  ARG18      -0.0865
     33  CZ         9.3970    7.8140   25.4350 C.cat  18  ARG18       0.5346
     34  NH1        9.0400    8.8220   24.6480 N.pl3  18  ARG18       0.1354
     35  NH2        8.4700    6.9890   25.9030 N.pl3  18  ARG18       0.1354
     36  N          6.5440   10.3190   18.6440 N.3    24  SER24      -0.1217
     37  CA         5.6030    9.2330   18.3820 C.3    24  SER24       0.1889
     38  C          4.8040    9.5190   17.1130 C.2    24  SER24       0.2288
     39  O          4.0620   10.5020   17.0420 O.2    24  SER24      -0.2866
     40  CB         4.6630    9.0290   19.5730 C.3    24  SER24       0.2089
     41  OG         3.9240    7.8250   19.4440 O.3    24  SER24      -0.2183
     42  N          3.3070    6.6920   15.3920 N.3    26  VAL26      -0.1231
     43  CA         2.4400    5.5320   15.2100 C.3    26  VAL26       0.1692
     44  C          1.2830    5.5260   16.2070 C.2    26  VAL26       0.2592
     45  O          1.4790    5.6970   17.4130 O.2    26  VAL26      -0.2718
     46  CB         3.2320    4.1980   15.2990 C.3    26  VAL26       0.0266
     47  CG1        2.2950    2.9940   15.1930 C.3    26  VAL26       0.0020
     48  CG2        4.2940    4.1350   14.2110 C.3    26  VAL26       0.0020
     49  N          0.0790    5.3390   15.6740 N.am   27  GLU27      -0.1966
     50  CA        -1.1120    5.1050   16.4760 C.3    27  GLU27       0.1733
     51  C         -1.6530    3.7230   16.1330 C.2    27  GLU27       0.2616
     52  O         -1.8710    3.4070   14.9610 O.2    27  GLU27      -0.2715
     53  CB        -2.1710    6.1740   16.2040 C.3    27  GLU27       0.0429
     54  CG        -1.9050    7.5500   16.8210 C.3    27  GLU27       0.1163
     55  CD        -1.0770    8.4410   15.9700 C.2    27  GLU27       0.3649
     56  OE1       -0.5900    7.9960   14.9260 O.co2  27  GLU27      -0.2457
     57  OE2       -0.9230    9.5820   16.3190 O.co2  27  GLU27      -0.2457
     58  N         -1.8460    2.9000   17.1590 N.am   28  CYS28      -0.1968
     59  CA        -2.3740    1.5520   16.9820 C.3    28  CYS28       0.1712
     60  C         -3.7770    1.4440   17.5680 C.2    28  CYS28       0.2296
     61  O         -3.9590    1.5330   18.7850 O.2    28  CYS28      -0.2864
     62  CB        -1.4440    0.5210   17.6270 C.3    28  CYS28       0.0983
     63  SG         0.2230    0.4610   16.9230 S.3    28  CYS28      -0.0798
     64  N         -0.6860   -2.6710   20.3580 N.3    58  GLY58      -0.1210
     65  CA        -0.0170   -1.4560   20.7920 C.3    58  GLY58       0.1956
     66  C          1.2470   -1.7490   21.5770 C.2    58  GLY58       0.2611
     67  O          1.5440   -2.9070   21.8820 O.2    58  GLY58      -0.2717
     68  N          1.9860   -0.6940   21.9110 N.am   59  ALA59      -0.1979
     69  CA         3.2740   -0.8230   22.5900 C.3    59  ALA59       0.1597
     70  C          3.1650   -1.4370   23.9860 C.2    59  ALA59       0.2287
     71  O          4.1650   -1.8850   24.5510 O.2    59  ALA59      -0.2864
     72  CB         3.9740    0.5310   22.6570 C.3    59  ALA59       0.0319
     73  N          7.7640    2.8010   17.4110 N.3   309  PRO309     -0.2116
     74  CA         6.8000    3.9060   17.3760 C.3   309  PRO309      0.1372
     75  C          7.4410    5.2540   17.0340 C.2   309  PRO309      0.2244
     76  O          6.7290    6.2490   16.8730 O.2   309  PRO309     -0.2868
     77  CB         6.2770    3.9170   18.8070 C.3   309  PRO309      0.0268
     78  CG         7.4980    3.5780   19.6240 C.3   309  PRO309      0.0207
     79  CD         8.3270    2.6250   18.7680 C.3   309  PRO309      0.0892
@<TRIPOS>BOND
     1    48    46    1
     2    56    55   ar
     3    52    51    2
     4    47    46    1
     5    43    46    1
     6    43    42    1
     7    43    44    1
     8    49    44   am
     9    49    50    1
    10    55    57   ar
    11    55    54    1
    12    51    50    1
    13    51    58   am
    14    53    50    1
    15    53    54    1
    16    44    45    2
    17    76    75    2
    18    63    62    1
    19    59    58    1
    20    59    60    1
    21    59    62    1
    22    75    74    1
    23    39    38    2
    24    38    37    1
    25    74    73    1
    26    74    77    1
    27    73    79    1
    28    60    61    2
    29     1     2    1
    30     5     2    1
    31     5     6    1
    32     2     3    1
    33    37    36    1
    34    37    40    1
    35    79    78    1
    36    77    78    1
    37     3     4    2
    38    41    40    1
    39    64    65    1
    40    24    23   ar
    41    24    22   ar
    42    65    66    1
    43    23    21   ar
    44    22    20   ar
    45    66    67    2
    46    66    68   am
    47    21    19   ar
    48    68    69    1
    49    20    19   ar
    50    10     9    2
    51    19    18    1
    52    69    72    1
    53    69    70    1
    54    25    26    1
    55     7     8    1
    56     7    13    1
    57     9    14   am
    58     9     8    1
    59    15    14    1
    60    15    18    1
    61    15    16    1
    62     8    11    1
    63    28    27    2
    64    16    17    2
    65    27    26    1
    66    26    29    1
    67    13    12    1
    68    70    71    2
    69    34    33    1
    70    11    12    1
    71    29    30    1
    72    31    30    1
    73    31    32    1
    74    33    32    2
    75    33    35    1
