@<TRIPOS>MOLECULE
tmp/3k3cA00.pdb
 200 189 0 0 0
SMALL
GASTEIGER

@<TRIPOS>ATOM
      1  N         53.8230    8.8910   10.1290 N.3    29  ILE29      -0.1245
      2  CA        53.1220    8.2090    9.0400 C.3    29  ILE29       0.1561
      3  C         52.4730    6.9570    9.5980 C.2    29  ILE29       0.2260
      4  O         53.1660    6.1070   10.0890 O.2    29  ILE29      -0.2867
      5  CB        54.1310    7.8280    7.9070 C.3    29  ILE29       0.0252
      6  CG1       54.8060    9.0580    7.2950 C.3    29  ILE29       0.0019
      7  CG2       53.4170    6.9910    6.8660 C.3    29  ILE29       0.0019
      8  CD1       56.0990    8.7570    6.5470 C.3    29  ILE29       0.0001
      9  N         49.4390    3.8720    9.0220 N.3    31  VAL31      -0.1245
     10  CA        48.7350    3.1730    7.9630 C.3    31  VAL31       0.1561
     11  C         48.0730    1.9380    8.5380 C.2    31  VAL31       0.2260
     12  O         48.6820    1.1730    9.2930 O.2    31  VAL31      -0.2867
     13  CB        49.6990    2.8240    6.8020 C.3    31  VAL31       0.0252
     14  CG1       49.0900    1.8070    5.8400 C.3    31  VAL31       0.0019
     15  CG2       50.1380    4.1390    6.0690 C.3    31  VAL31       0.0019
     16  N         45.7980   -1.4410    7.1440 N.3    33  LEU33      -0.1245
     17  CA        45.4190   -2.2180    5.9850 C.3    33  LEU33       0.1561
     18  C         44.4890   -3.3540    6.4230 C.2    33  LEU33       0.2260
     19  O         44.5140   -3.7630    7.5770 O.2    33  LEU33      -0.2867
     20  CB        46.6640   -2.8020    5.3110 C.3    33  LEU33       0.0270
     21  CG        47.8070   -1.8350    5.0110 C.3    33  LEU33       0.0019
     22  CD1       49.0720   -2.5960    4.5000 C.3    33  LEU33       0.0001
     23  CD2       47.3390   -0.7810    4.0060 C.3    33  LEU33       0.0001
     24  N         44.0430   -0.4380    1.8190 N.3    40  PHE40      -0.1241
     25  CA        44.0870    0.7050    2.6990 C.3    40  PHE40       0.1605
     26  C         42.7430    0.9060    3.4110 C.2    40  PHE40       0.2264
     27  O         41.7010    0.9830    2.7440 O.2    40  PHE40      -0.2867
     28  CB        44.4730    1.9730    1.8990 C.3    40  PHE40       0.0534
     29  CG        45.9170    2.0350    1.5310 C.ar   40  PHE40      -0.0203
     30  CD1       46.8550    2.4330    2.4490 C.ar   40  PHE40      -0.0042
     31  CD2       46.3330    1.6870    0.2740 C.ar   40  PHE40      -0.0042
     32  CE1       48.2050    2.4970    2.1150 C.ar   40  PHE40      -0.0003
     33  CE2       47.6870    1.7410   -0.0530 C.ar   40  PHE40      -0.0003
     34  CZ        48.5990    2.1370    0.8550 C.ar   40  PHE40      -0.0000
     35  N         50.8620   10.4920    6.2350 N.3    47  TYR47      -0.1241
     36  CA        50.9710    9.5480    5.1460 C.3    47  TYR47       0.1605
     37  C         50.6570   10.2330    3.8140 C.2    47  TYR47       0.2264
     38  O         51.4520   10.1740    2.8690 O.2    47  TYR47      -0.2867
     39  CB        50.0570    8.3380    5.3400 C.3    47  TYR47       0.0534
     40  CG        50.3570    7.2760    4.3160 C.ar   47  TYR47      -0.0201
     41  CD1       51.0300    6.1060    4.6600 C.ar   47  TYR47      -0.0009
     42  CD2       50.0130    7.4680    2.9860 C.ar   47  TYR47      -0.0009
     43  CE1       51.3220    5.1360    3.7050 C.ar   47  TYR47       0.0417
     44  CE2       50.3050    6.5220    2.0270 C.ar   47  TYR47       0.0417
     45  CZ        50.9680    5.3540    2.3960 C.ar   47  TYR47       0.1957
     46  OH        51.2680    4.4230    1.4360 O.3    47  TYR47      -0.2866
     47  N         53.3330   12.7240    2.5710 N.3    50  PHE50      -0.1227
     48  CA        54.5700   12.0960    2.0270 C.3    50  PHE50       0.1736
     49  C         54.3100   11.3650    0.7120 C.2    50  PHE50       0.2596
     50  O         55.1640   11.3390   -0.2030 O.2    50  PHE50      -0.2718
     51  CB        55.1850   11.1380    3.0470 C.3    50  PHE50       0.0547
     52  CG        56.0400   11.8150    4.0900 C.ar   50  PHE50      -0.0202
     53  CD1       57.3890   12.0300    3.8810 C.ar   50  PHE50      -0.0042
     54  CD2       55.5120   12.1950    5.2950 C.ar   50  PHE50      -0.0042
     55  CE1       58.1660   12.6310    4.8550 C.ar   50  PHE50      -0.0003
     56  CE2       56.2780   12.8090    6.2420 C.ar   50  PHE50      -0.0003
     57  CZ        57.6100   13.0010    6.0290 C.ar   50  PHE50      -0.0000
     58  N         53.1260   10.7720    0.5940 N.am   51  SER51      -0.1952
     59  CA        52.7790    9.9530   -0.5740 C.3    51  SER51       0.1924
     60  C         51.3510   10.2940   -1.0250 C.2    51  SER51       0.2314
     61  O         50.4060    9.5790   -0.6970 O.2    51  SER51      -0.2863
     62  CB        52.9630    8.4800   -0.2580 C.3    51  SER51       0.2116
     63  OG        52.7700    7.7180   -1.4170 O.3    51  SER51      -0.2180
     64  N         47.1210   -2.2710   -1.5260 N.3    61  ALA61      -0.1245
     65  CA        48.3910   -1.5320   -1.5250 C.3    61  ALA61       0.1562
     66  C         49.2140   -1.8040   -2.8070 C.2    61  ALA61       0.2260
     67  O         49.8140   -0.8760   -3.3900 O.2    61  ALA61      -0.2867
     68  CB        49.1850   -1.9140   -0.2590 C.3    61  ALA61       0.0290
     69  N         51.5180    0.8030   -5.1830 N.3    65  TYR65      -0.1241
     70  CA        52.9910    0.7060   -5.2510 C.3    65  TYR65       0.1605
     71  C         53.4140   -0.6450   -5.8440 C.2    65  TYR65       0.2264
     72  O         53.9840   -1.5010   -5.1670 O.2    65  TYR65      -0.2867
     73  CB        53.6370    0.9240   -3.8780 C.3    65  TYR65       0.0534
     74  CG        53.1370    2.1300   -3.1410 C.ar   65  TYR65      -0.0201
     75  CD1       53.5820    3.4020   -3.4550 C.ar   65  TYR65      -0.0009
     76  CD2       52.1950    1.9910   -2.1250 C.ar   65  TYR65      -0.0009
     77  CE1       53.1130    4.4850   -2.7640 C.ar   65  TYR65       0.0417
     78  CE2       51.7240    3.0860   -1.4160 C.ar   65  TYR65       0.0417
     79  CZ        52.1950    4.3320   -1.7600 C.ar   65  TYR65       0.1957
     80  OH        51.7120    5.4310   -1.0750 O.3    65  TYR65      -0.2866
     81  N         56.9670   -2.6060   -5.6210 N.3    68  LEU68      -0.1245
     82  CA        57.4310   -3.2160   -4.3790 C.3    68  LEU68       0.1561
     83  C         57.2310   -4.7180   -4.3760 C.2    68  LEU68       0.2260
     84  O         57.6970   -5.4140   -3.4760 O.2    68  LEU68      -0.2867
     85  CB        56.8110   -2.5260   -3.1510 C.3    68  LEU68       0.0270
     86  CG        57.0310   -1.0100   -3.0330 C.3    68  LEU68       0.0019
     87  CD1       56.3700   -0.5240   -1.7520 C.3    68  LEU68       0.0001
     88  CD2       58.5640   -0.7080   -3.0510 C.3    68  LEU68       0.0001
     89  N         58.1480   -6.6740   -0.2530 N.3    73  ILE73      -0.1231
     90  CA        57.2050   -6.0140    0.6500 C.3    73  ILE73       0.1692
     91  C         55.8910   -6.7670    0.8200 C.2    73  ILE73       0.2592
     92  O         55.4200   -6.9290    1.9540 O.2    73  ILE73      -0.2718
     93  CB        56.9650   -4.5820    0.1650 C.3    73  ILE73       0.0266
     94  CG1       58.2730   -3.8030    0.3070 C.3    73  ILE73       0.0019
     95  CG2       55.8300   -3.8690    0.9500 C.3    73  ILE73       0.0020
     96  CD1       58.7640   -3.7480    1.7330 C.3    73  ILE73       0.0001
     97  N         55.2840   -7.2100   -0.2720 N.am   74  TYR74      -0.1976
     98  CA        53.9620   -7.8510   -0.1660 C.3    74  TYR74       0.1639
     99  C         54.1080   -9.2630    0.3780 C.2    74  TYR74       0.2290
    100  O         53.2400   -9.7750    1.0800 O.2    74  TYR74      -0.2864
    101  CB        53.1420   -7.7430   -1.4540 C.3    74  TYR74       0.0560
    102  CG        53.0160   -6.3080   -1.8660 C.ar   74  TYR74      -0.0198
    103  CD1       52.2330   -5.4650   -1.1360 C.ar   74  TYR74      -0.0009
    104  CD2       53.7180   -5.7690   -2.9730 C.ar   74  TYR74      -0.0009
    105  CE1       52.1540   -4.1130   -1.4460 C.ar   74  TYR74       0.0417
    106  CE2       53.6310   -4.4230   -3.2910 C.ar   74  TYR74       0.0417
    107  CZ        52.8620   -3.6070   -2.5190 C.ar   74  TYR74       0.1957
    108  OH        52.7510   -2.2680   -2.7480 O.3    74  TYR74      -0.2866
    109  N         56.2910   -9.9310    2.6540 N.3    76  MET76      -0.1230
    110  CA        56.4110   -9.6140    4.0810 C.3    76  MET76       0.1702
    111  C         55.0540   -9.3720    4.7160 C.2    76  MET76       0.2592
    112  O         54.7530   -9.9340    5.7960 O.2    76  MET76      -0.2718
    113  CB        57.2890   -8.3780    4.3090 C.3    76  MET76       0.0401
    114  CG        57.4140   -7.9720    5.7780 C.3    76  MET76       0.0596
    115  SD        58.2350   -6.3920    6.0030 S.3    76  MET76      -0.1393
    116  CE        57.0430   -5.2750    5.2710 C.3    76  MET76       0.0692
    117  N         54.2430   -8.5180    4.0880 N.am   77  LEU77      -0.1980
    118  CA        52.9300   -8.2140    4.6320 C.3    77  LEU77       0.1596
    119  C         52.0930   -9.4840    4.6960 C.2    77  LEU77       0.2287
    120  O         51.3410   -9.7010    5.6450 O.2    77  LEU77      -0.2864
    121  CB        52.2120   -7.1660    3.8240 C.3    77  LEU77       0.0297
    122  CG        52.8480   -5.7830    3.8160 C.3    77  LEU77       0.0022
    123  CD1       52.0380   -4.9450    2.8620 C.3    77  LEU77       0.0001
    124  CD2       52.8130   -5.2110    5.2850 C.3    77  LEU77       0.0001
    125  N         63.8400    1.2550   -0.6800 N.3    94  LEU94      -0.1245
    126  CA        62.7590    0.8310   -1.5700 C.3    94  LEU94       0.1561
    127  C         62.5520    1.7990   -2.7150 C.2    94  LEU94       0.2260
    128  O         62.6100    3.0120   -2.5160 O.2    94  LEU94      -0.2867
    129  CB        61.4360    0.6700   -0.8090 C.3    94  LEU94       0.0270
    130  CG        61.5170   -0.2630    0.3940 C.3    94  LEU94       0.0019
    131  CD1       60.2260   -0.1560    1.1270 C.3    94  LEU94       0.0001
    132  CD2       61.7980   -1.6620   -0.0420 C.3    94  LEU94       0.0001
    133  N         56.3290    7.5220   -5.2240 N.3    98  TYR98      -0.1241
    134  CA        55.6700    7.8930   -3.9860 C.3    98  TYR98       0.1605
    135  C         54.7430    9.1120   -4.1200 C.2    98  TYR98       0.2264
    136  O         53.7230    9.1830   -3.4650 O.2    98  TYR98      -0.2867
    137  CB        56.7190    8.2130   -2.9190 C.3    98  TYR98       0.0534
    138  CG        57.5940    7.0400   -2.6070 C.ar   98  TYR98      -0.0201
    139  CD1       57.2280    6.1280   -1.6210 C.ar   98  TYR98      -0.0009
    140  CD2       58.7880    6.8260   -3.2850 C.ar   98  TYR98      -0.0009
    141  CE1       58.0510    5.0610   -1.3100 C.ar   98  TYR98       0.0417
    142  CE2       59.6120    5.7590   -2.9790 C.ar   98  TYR98       0.0417
    143  CZ        59.2380    4.8940   -1.9780 C.ar   98  TYR98       0.1957
    144  OH        59.9920    3.7920   -1.6700 O.3    98  TYR98      -0.2866
    145  N         63.7610    5.5750   -1.5770 N.3   106  ARG106     -0.1245
    146  CA        63.5420    6.1120   -0.2520 C.3   106  ARG106      0.1563
    147  C         63.9670    5.0740    0.7430 C.2   106  ARG106      0.2260
    148  O         63.9870    3.8950    0.4280 O.2   106  ARG106     -0.2867
    149  CB        62.0820    6.5160   -0.0410 C.3   106  ARG106      0.0307
    150  CG        61.7790    7.8230   -0.8000 C.3   106  ARG106      0.0489
    151  CD        60.3450    8.3250   -0.5040 C.3   106  ARG106      0.2205
    152  NE        60.0470    9.4800   -1.3320 N.pl3 106  ARG106     -0.0865
    153  CZ        58.9770   10.2740   -1.1960 C.cat 106  ARG106      0.5346
    154  NH1       58.0440   10.0410   -0.2680 N.pl3 106  ARG106      0.1354
    155  NH2       58.8260   11.3140   -2.0220 N.pl3 106  ARG106      0.1354
    156  N         63.3490    3.6300    4.7530 N.3   108  PHE108     -0.1241
    157  CA        62.2940    3.5400    5.7390 C.3   108  PHE108      0.1605
    158  C         62.7040    2.7410    6.9410 C.2   108  PHE108      0.2264
    159  O         63.2660    1.6460    6.8090 O.2   108  PHE108     -0.2867
    160  CB        61.0440    2.9150    5.1350 C.3   108  PHE108      0.0534
    161  CG        60.4640    3.7350    4.0410 C.ar  108  PHE108     -0.0203
    162  CD1       59.7500    4.8950    4.3240 C.ar  108  PHE108     -0.0042
    163  CD2       60.6900    3.3920    2.7250 C.ar  108  PHE108     -0.0042
    164  CE1       59.2640    5.6830    3.3110 C.ar  108  PHE108     -0.0003
    165  CE2       60.2010    4.1710    1.6960 C.ar  108  PHE108     -0.0003
    166  CZ        59.4570    5.3250    1.9930 C.ar  108  PHE108     -0.0000
    167  N         60.3760    0.9220    9.9040 N.3   110  PHE110     -0.1241
    168  CA        58.9510    0.6220   10.0950 C.3   110  PHE110      0.1605
    169  C         58.7800   -0.5030   11.0890 C.2   110  PHE110      0.2264
    170  O         59.7020   -1.2670   11.3570 O.2   110  PHE110     -0.2867
    171  CB        58.2740    0.2930    8.7470 C.3   110  PHE110      0.0534
    172  CG        58.7680   -0.9690    8.1270 C.ar  110  PHE110     -0.0203
    173  CD1       58.2210   -2.1910    8.4520 C.ar  110  PHE110     -0.0042
    174  CD2       59.8390   -0.9440    7.2750 C.ar  110  PHE110     -0.0042
    175  CE1       58.6890   -3.3470    7.8900 C.ar  110  PHE110     -0.0003
    176  CE2       60.3230   -2.0980    6.7020 C.ar  110  PHE110     -0.0003
    177  CZ        59.7550   -3.3100    7.0290 C.ar  110  PHE110     -0.0000
    178  N         50.8130   -0.2370   10.5700 N.3   127  LEU127     -0.1245
    179  CA        52.2070    0.0840   10.6530 C.3   127  LEU127      0.1561
    180  C         52.4270    1.5040   11.0840 C.2   127  LEU127      0.2260
    181  O         51.6080    2.3770   10.8190 O.2   127  LEU127     -0.2867
    182  CB        52.9040   -0.0510    9.2900 C.3   127  LEU127      0.0270
    183  CG        52.8360   -1.2260    8.3690 C.3   127  LEU127      0.0019
    184  CD1       51.5470   -1.1160    7.4990 C.3   127  LEU127      0.0001
    185  CD2       54.0850   -1.2800    7.5000 C.3   127  LEU127      0.0001
    186  N         55.5160    4.0920   10.0060 N.3   129  VAL129     -0.1245
    187  CA        56.6280    4.2700    9.0610 C.3   129  VAL129      0.1561
    188  C         57.3600    5.5560    9.3610 C.2   129  VAL129      0.2260
    189  O         56.7380    6.5720    9.6750 O.2   129  VAL129     -0.2867
    190  CB        56.1000    4.2890    7.6140 C.3   129  VAL129      0.0252
    191  CG1       57.2090    4.4670    6.5980 C.3   129  VAL129      0.0019
    192  CG2       55.1960    3.0380    7.3320 C.3   129  VAL129      0.0019
    193  N         60.0340    7.8760    7.3660 N.3   131  ASP131     -0.1239
    194  CA        60.7790    8.1710    6.1440 C.3   131  ASP131      0.1674
    195  C         62.1200    8.7850    6.5070 C.2   131  ASP131      0.2266
    196  O         62.1730    9.9930    6.8590 O.2   131  ASP131     -0.2867
    197  CB        59.9790    9.0900    5.2390 C.3   131  ASP131      0.1410
    198  CG        60.6000    9.2550    3.8590 C.2   131  ASP131      0.3668
    199  OD1       61.8680    9.2940    3.7540 O.co2 131  ASP131     -0.2456
    200  OD2       59.8340    9.4030    2.8670 O.co2 131  ASP131     -0.2456
@<TRIPOS>BOND
     1    71    70    1
     2    71    72    2
     3    81    82    1
     4    70    69    1
     5    70    73    1
     6   133   134    1
     7    82    83    1
     8    82    85    1
     9    83    84    2
    10   135   134    1
    11   135   136    2
    12   134   137    1
    13    73    74    1
    14    75    74   ar
    15    75    77   ar
    16    67    66    2
    17   106   104   ar
    18   106   107   ar
    19   140   142   ar
    20   140   138   ar
    21    85    86    1
    22    74    76   ar
    23    88    86    1
    24    86    87    1
    25   142   143   ar
    26   104   102   ar
    27   137   138    1
    28    66    65    1
    29    77    79   ar
    30   108   107    1
    31   127   128    2
    32   127   126    1
    33   138   139   ar
    34   107   105   ar
    35    76    78   ar
    36   155   153    1
    37   143   144    1
    38   143   141   ar
    39   102   101    1
    40   102   103   ar
    41    79    78   ar
    42    79    80    1
    43   139   141   ar
    44   145   146    1
    45   126   129    1
    46   126   125    1
    47    64    65    1
    48    65    68    1
    49   101    98    1
    50   105   103   ar
    51    63    62    1
    52   152   153    2
    53   152   151    1
    54   153   154    1
    55    60    61    2
    56    60    59    1
    57   129   130    1
    58   150   151    1
    59   150   149    1
    60    59    62    1
    61    59    58    1
    62    97    98    1
    63    97    91   am
    64    89    90    1
    65   146   149    1
    66   146   147    1
    67    50    49    2
    68    98    99    1
    69    33    31   ar
    70    33    34   ar
    71   132   130    1
    72    93    94    1
    73    93    90    1
    74    93    95    1
    75    31    29   ar
    76    94    96    1
    77    99   100    2
    78   130   131    1
    79   148   147    2
    80    58    49   am
    81    90    91    1
    82    49    48    1
    83    91    92    2
    84    34    32   ar
    85    46    45    1
    86    29    28    1
    87    29    30   ar
    88   165   166   ar
    89   165   163   ar
    90    24    25    1
    91    28    25    1
    92   166   164   ar
    93    44    45   ar
    94    44    42   ar
    95    48    47    1
    96    48    51    1
    97    32    30   ar
    98    45    43   ar
    99   109   110    1
   100    25    26    1
   101   163   161   ar
   102    27    26    2
   103   123   122    1
   104   200   198   ar
   105    38    37    2
   106    42    40   ar
   107    51    52    1
   108   164   162   ar
   109    43    41   ar
   110   199   198   ar
   111    37    36    1
   112   122   121    1
   113   122   124    1
   114   121   118    1
   115   198   197    1
   116    53    52   ar
   117    53    55   ar
   118    23    21    1
   119   161   162   ar
   120   161   160    1
   121   110   113    1
   122   110   111    1
   123   117   118    1
   124   117   111   am
   125    52    54   ar
   126   113   114    1
   127    40    41   ar
   128    40    39    1
   129    22    21    1
   130   118   119    1
   131   119   120    2
   132   111   112    2
   133   156   157    1
   134    55    57   ar
   135    21    20    1
   136   160   157    1
   137    36    39    1
   138    36    35    1
   139   197   194    1
   140   116   115    1
   141    54    56   ar
   142    20    17    1
   143   157   158    1
   144   114   115    1
   145    14    13    1
   146    17    18    1
   147    17    16    1
   148    57    56   ar
   149    15    13    1
   150   194   195    1
   151   194   193    1
   152    18    19    2
   153   195   196    2
   154     8     6    1
   155   191   190    1
   156   176   177   ar
   157   176   174   ar
   158    13    10    1
   159   159   158    2
   160     7     5    1
   161   177   175   ar
   162   174   172   ar
   163     6     5    1
   164   192   190    1
   165   184   183    1
   166   185   183    1
   167   190   187    1
   168   175   173   ar
   169     5     2    1
   170    10    11    1
   171    10     9    1
   172   172   173   ar
   173   172   171    1
   174   183   182    1
   175    11    12    2
   176   171   168    1
   177     2     3    1
   178     2     1    1
   179   187   188    1
   180   187   186    1
   181   182   179    1
   182   188   189    2
   183     3     4    2
   184   167   168    1
   185   168   169    1
   186   178   179    1
   187   179   180    1
   188   181   180    2
   189   169   170    2
