@<TRIPOS>MOLECULE
tmp/3k3iA00.pdb
 145 134 0 0 0
SMALL
GASTEIGER

@<TRIPOS>ATOM
      1  N          8.8250    5.1290  -23.8380 N.3    34  VAL34      -0.1245
      2  CA         8.7120    3.7100  -23.5410 C.3    34  VAL34       0.1561
      3  C          9.4850    2.8870  -24.5640 C.2    34  VAL34       0.2260
      4  O          9.4150    3.1780  -25.7780 O.2    34  VAL34      -0.2867
      5  CB         7.2260    3.2750  -23.5060 C.3    34  VAL34       0.0252
      6  CG1        7.0910    1.7590  -23.2160 C.3    34  VAL34       0.0019
      7  CG2        6.4520    4.0810  -22.4570 C.3    34  VAL34       0.0019
      8  N          8.1230   -3.9500  -21.0840 N.3    47  ALA47      -0.1245
      9  CA         8.0660   -2.5540  -21.4670 C.3    47  ALA47       0.1562
     10  C          8.7770   -1.7340  -20.3910 C.2    47  ALA47       0.2260
     11  O          8.5320   -1.9210  -19.1970 O.2    47  ALA47      -0.2867
     12  CB         6.6010   -2.0700  -21.6160 C.3    47  ALA47       0.0290
     13  N          9.6820    2.1240  -19.0640 N.3    49  LYS49      -0.1245
     14  CA         9.3230    3.5280  -19.2410 C.3    49  LYS49       0.1561
     15  C         10.3520    4.3900  -18.4970 C.2    49  LYS49       0.2260
     16  O         10.6370    4.1600  -17.3140 O.2    49  LYS49      -0.2867
     17  CB         7.8850    3.7870  -18.7320 C.3    49  LYS49       0.0271
     18  CG         7.4300    5.2520  -18.6460 C.3    49  LYS49       0.0035
     19  CD         6.1760    5.2570  -17.6990 C.3    49  LYS49       0.0206
     20  CE         5.1860    6.2440  -18.0850 C.3    49  LYS49       0.1093
     21  NZ         3.9830    6.0880  -17.2490 N.3    49  LYS49      -0.1314
     22  N          2.9960    8.0930   -8.9820 N.3    67  GLU67      -0.1245
     23  CA         2.9750    6.9930   -9.9620 C.3    67  GLU67       0.1567
     24  C          3.6690    5.7600   -9.3920 C.2    67  GLU67       0.2260
     25  O          3.1600    4.6310   -9.5130 O.2    67  GLU67      -0.2867
     26  CB         3.6690    7.4190  -11.2490 C.3    67  GLU67       0.0388
     27  CG         3.6970    6.2500  -12.2700 C.3    67  GLU67       0.1160
     28  CD         4.0920    6.6670  -13.6790 C.2    67  GLU67       0.3649
     29  OE1        3.8250    5.8740  -14.6320 O.co2  67  GLU67      -0.2457
     30  OE2        4.6480    7.7820  -13.8760 O.co2  67  GLU67      -0.2457
     31  N          1.5560    4.1190   -6.5560 N.3    70  LEU70      -0.1231
     32  CA         0.4210    3.4150   -7.1190 C.3    70  LEU70       0.1693
     33  C          0.8950    2.0970   -7.7340 C.2    70  LEU70       0.2591
     34  O          0.3460    1.0310   -7.4350 O.2    70  LEU70      -0.2718
     35  CB        -0.2810    4.2710   -8.1700 C.3    70  LEU70       0.0284
     36  CG        -1.5370    3.5060   -8.5830 C.3    70  LEU70       0.0019
     37  CD1       -2.7710    4.4020   -8.5580 C.3    70  LEU70       0.0001
     38  CD2       -1.3230    2.8560   -9.9370 C.3    70  LEU70       0.0001
     39  N          1.9090    2.1700   -8.5890 N.am   71  LEU71      -0.1980
     40  CA         2.3770    0.9730   -9.3100 C.3    71  LEU71       0.1596
     41  C          2.9020   -0.0930   -8.3360 C.2    71  LEU71       0.2287
     42  O          2.6410   -1.2860   -8.5150 O.2    71  LEU71      -0.2864
     43  CB         3.4150    1.3380  -10.3720 C.3    71  LEU71       0.0297
     44  CG         2.8340    2.1460  -11.5560 C.3    71  LEU71       0.0022
     45  CD1        3.9730    2.5290  -12.4580 C.3    71  LEU71       0.0001
     46  CD2        1.8020    1.3800  -12.3900 C.3    71  LEU71       0.0001
     47  N         -0.1420   -2.1600   -6.9210 N.3    74  MET74      -0.1245
     48  CA        -1.0660   -2.9480   -7.7690 C.3    74  MET74       0.1570
     49  C         -0.6150   -4.3770   -7.9360 C.2    74  MET74       0.2261
     50  O          0.4240   -4.6450   -8.5440 O.2    74  MET74      -0.2867
     51  CB        -1.2360   -2.2960   -9.1430 C.3    74  MET74       0.0387
     52  CG        -1.8240   -0.9220   -9.0920 C.3    74  MET74       0.0595
     53  SD        -3.4640   -0.8570   -8.3920 S.3    74  MET74      -0.1393
     54  CE        -3.2330   -0.3270   -6.7050 C.3    74  MET74       0.0692
     55  N         -4.7320   -5.6210  -13.5770 N.3    79  VAL79      -0.1231
     56  CA        -4.1280   -4.2920  -13.4540 C.3    79  VAL79       0.1692
     57  C         -2.6280   -4.4200  -13.7180 C.2    79  VAL79       0.2591
     58  O         -2.0030   -5.4190  -13.3640 O.2    79  VAL79      -0.2718
     59  CB        -4.3670   -3.6960  -12.0450 C.3    79  VAL79       0.0266
     60  CG1       -3.8640   -2.2120  -12.0090 C.3    79  VAL79       0.0020
     61  CG2       -5.8230   -3.7770  -11.6720 C.3    79  VAL79       0.0020
     62  N         -2.0630   -3.4280  -14.3850 N.am   80  ILE80      -0.1980
     63  CA        -0.6120   -3.4010  -14.5970 C.3    80  ILE80       0.1595
     64  C          0.1340   -3.6700  -13.2630 C.2    80  ILE80       0.2287
     65  O         -0.2730   -3.1830  -12.2030 O.2    80  ILE80      -0.2864
     66  CB        -0.1760   -2.0610  -15.2470 C.3    80  ILE80       0.0276
     67  CG1        1.3220   -2.0640  -15.5490 C.3    80  ILE80       0.0022
     68  CG2       -0.5630   -0.8680  -14.3500 C.3    80  ILE80       0.0022
     69  CD1        1.7480   -0.8690  -16.4490 C.3    80  ILE80       0.0001
     70  N         10.7020    2.3980  -14.9620 N.3   100  LEU100     -0.1245
     71  CA         9.6960    1.4390  -14.5210 C.3   100  LEU100      0.1561
     72  C          9.6120    0.3120  -15.5400 C.2   100  LEU100      0.2260
     73  O          9.6480    0.5870  -16.7240 O.2   100  LEU100     -0.2867
     74  CB         8.3230    2.1140  -14.4550 C.3   100  LEU100      0.0270
     75  CG         8.2620    3.4070  -13.6230 C.3   100  LEU100      0.0019
     76  CD1        6.8900    4.0890  -13.8860 C.3   100  LEU100      0.0001
     77  CD2        8.4500    3.0400  -12.1440 C.3   100  LEU100      0.0001
     78  N          7.4230   -3.2830  -16.7570 N.3   102  THR102     -0.1218
     79  CA         6.2330   -4.1220  -16.6630 C.3   102  THR102      0.1862
     80  C          6.2490   -5.1360  -17.8090 C.2   102  THR102      0.2287
     81  O          7.0190   -4.9790  -18.7460 O.2   102  THR102     -0.2866
     82  CB         4.9420   -3.2780  -16.7610 C.3   102  THR102      0.1770
     83  OG1        4.8290   -2.6970  -18.0770 O.3   102  THR102     -0.2211
     84  CG2        4.9540   -2.1750  -15.7200 C.3   102  THR102      0.0375
     85  N         -9.2760   -2.0760   -7.8080 N.3   133  ILE133     -0.1245
     86  CA        -8.7960   -0.6940   -7.7030 C.3   133  ILE133      0.1561
     87  C         -9.6870    0.1090   -6.7540 C.2   133  ILE133      0.2260
     88  O         -9.1890    0.8280   -5.8570 O.2   133  ILE133     -0.2867
     89  CB        -8.7660   -0.0830   -9.1270 C.3   133  ILE133      0.0252
     90  CG1       -7.6260   -0.7780   -9.9190 C.3   133  ILE133      0.0019
     91  CG2       -8.6070    1.4510   -9.0860 C.3   133  ILE133      0.0019
     92  CD1       -7.7320   -0.4950  -11.4550 C.3   133  ILE133      0.0001
     93  N         -9.1910    3.9760   -4.7460 N.3   138  ILE138     -0.1245
     94  CA        -8.5270    4.6580   -5.8360 C.3   138  ILE138      0.1561
     95  C         -9.5690    4.8210   -6.9260 C.2   138  ILE138      0.2260
     96  O        -10.3860    3.9460   -7.1150 O.2   138  ILE138     -0.2867
     97  CB        -7.3760    3.8080   -6.4060 C.3   138  ILE138      0.0252
     98  CG1       -6.2670    3.6300   -5.3530 C.3   138  ILE138      0.0019
     99  CG2       -6.8140    4.4540   -7.6640 C.3   138  ILE138      0.0019
    100  CD1       -5.2140    2.6120   -5.7240 C.3   138  ILE138      0.0001
    101  N         -9.6440    5.5890  -11.0190 N.3   140  HIS140     -0.1241
    102  CA        -8.7520    5.6920  -12.1570 C.3   140  HIS140      0.1621
    103  C         -8.8750    7.0690  -12.8370 C.2   140  HIS140      0.2264
    104  O         -7.8700    7.7740  -13.0390 O.2   140  HIS140     -0.2867
    105  CB        -9.0710    4.5660  -13.1700 C.3   140  HIS140      0.0745
    106  CG        -8.0810    4.4800  -14.2810 C.ar  140  HIS140      0.0817
    107  ND1       -7.9970    5.4270  -15.2780 N.ar  140  HIS140     -0.2268
    108  CD2       -7.1370    3.5510  -14.5690 C.ar  140  HIS140      0.1154
    109  CE1       -7.0390    5.0970  -16.1270 C.ar  140  HIS140      0.1986
    110  NE2       -6.5020    3.9620  -15.7200 N.ar  140  HIS140     -0.2212
    111  N         -5.6270   -3.1020  -16.8760 N.3   158  ILE158     -0.1231
    112  CA        -5.8160   -1.6680  -16.8060 C.3   158  ILE158      0.1692
    113  C         -4.4930   -0.9630  -16.4770 C.2   158  ILE158      0.2592
    114  O         -3.7470   -1.3930  -15.5780 O.2   158  ILE158     -0.2718
    115  CB        -6.8050   -1.3580  -15.6560 C.3   158  ILE158      0.0266
    116  CG1       -8.1540   -1.9810  -15.9740 C.3   158  ILE158      0.0019
    117  CG2       -6.8920    0.1730  -15.3400 C.3   158  ILE158      0.0020
    118  CD1       -9.0960   -2.0190  -14.7680 C.3   158  ILE158      0.0001
    119  N         -4.2300    0.1360  -17.1790 N.am  159  LEU159     -0.1966
    120  CA        -3.0900    0.9630  -16.8590 C.3   159  LEU159      0.1728
    121  C         -3.4710    2.4380  -17.0880 C.2   159  LEU159      0.2616
    122  O         -4.6350    2.7590  -17.3240 O.2   159  LEU159     -0.2715
    123  CB        -1.8930    0.5620  -17.7280 C.3   159  LEU159      0.0311
    124  CG        -2.0330    0.8720  -19.2150 C.3   159  LEU159      0.0022
    125  CD1       -0.6510    1.3080  -19.6910 C.3   159  LEU159      0.0001
    126  CD2       -2.5350   -0.3600  -19.9610 C.3   159  LEU159      0.0001
    127  N         -2.4850    3.3210  -17.0370 N.am  160  ASP160     -0.1957
    128  CA        -2.6970    4.7050  -17.4370 C.3   160  ASP160      0.1840
    129  C         -1.4350    5.1620  -18.1690 C.2   160  ASP160      0.2622
    130  O         -0.3470    5.1760  -17.5880 O.2   160  ASP160     -0.2715
    131  CB        -2.9710    5.5820  -16.2060 C.3   160  ASP160      0.1450
    132  CG        -3.5990    6.9350  -16.5740 C.2   160  ASP160      0.3671
    133  OD1       -3.6060    7.3000  -17.7790 O.co2 160  ASP160     -0.2456
    134  OD2       -4.0630    7.6180  -15.6400 O.co2 160  ASP160     -0.2456
    135  N         -1.5690    5.4590  -19.4620 N.am  161  PHE161     -0.1974
    136  CA        -0.4210    5.8920  -20.2600 C.3   161  PHE161      0.1639
    137  C         -0.1010    7.3450  -19.9850 C.2   161  PHE161      0.2290
    138  O          0.9950    7.8120  -20.3110 O.2   161  PHE161     -0.2864
    139  CB        -0.6650    5.6420  -21.7400 C.3   161  PHE161      0.0560
    140  CG        -0.2980    4.2660  -22.1870 C.ar  161  PHE161     -0.0200
    141  CD1        1.0390    3.8380  -22.1550 C.ar  161  PHE161     -0.0042
    142  CD2       -1.2780    3.3910  -22.6430 C.ar  161  PHE161     -0.0042
    143  CE1        1.3970    2.5510  -22.5620 C.ar  161  PHE161     -0.0003
    144  CE2       -0.9440    2.0880  -23.0760 C.ar  161  PHE161     -0.0003
    145  CZ         0.3970    1.6640  -23.0250 C.ar  161  PHE161     -0.0000
@<TRIPOS>BOND
     1     4     3    2
     2     3     2    1
     3     1     2    1
     4     2     5    1
     5     5     6    1
     6     5     7    1
     7   144   145   ar
     8   144   142   ar
     9   145   143   ar
    10   142   140   ar
    11   143   141   ar
    12   140   141   ar
    13   140   139    1
    14   139   136    1
    15    12     9    1
    16     9     8    1
    17     9    10    1
    18    10    11    2
    19   138   137    2
    20   136   137    1
    21   136   135    1
    22   126   124    1
    23   125   124    1
    24   135   129   am
    25    14    13    1
    26    14    17    1
    27    14    15    1
    28   124   123    1
    29    81    80    2
    30    17    18    1
    31    18    19    1
    32    15    16    2
    33   129   130    2
    34   129   128    1
    35    20    19    1
    36    20    21    1
    37    83    82    1
    38    80    79    1
    39   133   132   ar
    40   123   120    1
    41   128   127    1
    42   128   131    1
    43   122   121    2
    44   119   120    1
    45   119   113   am
    46   121   127   am
    47   121   120    1
    48   111   112    1
    49   112   113    1
    50   112   115    1
    51    82    79    1
    52    82    84    1
    53    78    79    1
    54    73    72    2
    55   132   131    1
    56   132   134   ar
    57   113   114    2
    58    69    67    1
    59   109   110   ar
    60   109   107   ar
    61   116   115    1
    62   116   118    1
    63   110   108   ar
    64   115   117    1
    65    67    66    1
    66    72    71    1
    67   107   106   ar
    68    66    63    1
    69    66    68    1
    70    70    71    1
    71    29    28   ar
    72    63    62    1
    73    63    64    1
    74   108   106   ar
    75    71    74    1
    76    74    75    1
    77    62    57   am
    78   106   105    1
    79    76    75    1
    80    30    28   ar
    81    57    56    1
    82    57    58    2
    83    28    27    1
    84    75    77    1
    85    55    56    1
    86    56    59    1
    87    64    65    2
    88   105   102    1
    89   104   103    2
    90   103   102    1
    91    45    44    1
    92    46    44    1
    93    27    26    1
    94   102   101    1
    95    59    60    1
    96    59    61    1
    97    44    43    1
    98    92    90    1
    99    26    23    1
   100    43    40    1
   101    23    24    1
   102    23    22    1
   103    38    36    1
   104    90    89    1
   105    25    24    2
   106    40    39    1
   107    40    41    1
   108    51    52    1
   109    51    48    1
   110    89    91    1
   111    89    86    1
   112    52    53    1
   113    39    33   am
   114    36    37    1
   115    36    35    1
   116    50    49    2
   117    42    41    2
   118    53    54    1
   119    35    32    1
   120    49    48    1
   121    85    86    1
   122    48    47    1
   123    33    34    2
   124    33    32    1
   125    86    87    1
   126    99    97    1
   127    32    31    1
   128    96    95    2
   129    95    94    1
   130    87    88    2
   131    97    94    1
   132    97    98    1
   133    94    93    1
   134   100    98    1
