@<TRIPOS>MOLECULE
tmp/3k3jA00.pdb
 185 173 0 0 0
SMALL
GASTEIGER

@<TRIPOS>ATOM
      1  N          9.5720    5.1910  -23.7360 N.3    32  VAL32      -0.1245
      2  CA         9.4460    3.7730  -23.5170 C.3    32  VAL32       0.1561
      3  C         10.2570    2.9970  -24.5570 C.2    32  VAL32       0.2260
      4  O         10.2060    3.3390  -25.7540 O.2    32  VAL32      -0.2867
      5  CB         7.9680    3.3890  -23.6630 C.3    32  VAL32       0.0252
      6  CG1        7.7410    1.8880  -23.3030 C.3    32  VAL32       0.0019
      7  CG2        7.1370    4.2480  -22.7790 C.3    32  VAL32       0.0019
      8  N          8.5310   -3.8410  -21.0500 N.3    45  ALA45      -0.1245
      9  CA         8.4610   -2.4440  -21.3860 C.3    45  ALA45       0.1562
     10  C          9.1830   -1.6570  -20.2780 C.2    45  ALA45       0.2260
     11  O          8.9080   -1.8740  -19.0880 O.2    45  ALA45      -0.2867
     12  CB         6.9990   -1.9970  -21.5100 C.3    45  ALA45       0.0290
     13  N         10.0490    2.1510  -19.0440 N.3    47  LYS47      -0.1245
     14  CA         9.7260    3.5760  -19.1940 C.3    47  LYS47       0.1561
     15  C         10.7340    4.4140  -18.4210 C.2    47  LYS47       0.2260
     16  O         10.9310    4.2060  -17.1910 O.2    47  LYS47      -0.2867
     17  CB         8.3060    3.8480  -18.6520 C.3    47  LYS47       0.0271
     18  CG         7.8340    5.3170  -18.8570 C.3    47  LYS47       0.0035
     19  CD         6.4460    5.5590  -18.2310 C.3    47  LYS47       0.0206
     20  CE         5.7510    6.7690  -18.8280 C.3    47  LYS47       0.1093
     21  NZ         4.5480    7.1010  -17.9640 N.3    47  LYS47      -0.1314
     22  N          4.1710   13.9890   -8.4930 N.3    61  ARG61      -0.1245
     23  CA         3.6310   13.0550   -9.5100 C.3    61  ARG61       0.1563
     24  C          4.4410   11.7910   -9.6350 C.2    61  ARG61       0.2260
     25  O          3.8880   10.6910   -9.7680 O.2    61  ARG61      -0.2867
     26  CB         3.5560   13.7350  -10.8830 C.3    61  ARG61       0.0307
     27  CG         2.8940   12.9250  -11.9700 C.3    61  ARG61       0.0489
     28  CD         2.7850   13.7530  -13.2980 C.3    61  ARG61       0.2205
     29  NE         2.4990   15.1640  -12.9480 N.pl3  61  ARG61      -0.0865
     30  CZ         1.5210   15.9460  -13.4290 C.cat  61  ARG61       0.5346
     31  NH1        0.6520   15.5180  -14.3530 N.pl3  61  ARG61       0.1354
     32  NH2        1.4200   17.1960  -12.9840 N.pl3  61  ARG61       0.1354
     33  N          3.7060    9.7860   -6.6160 N.3    64  ARG64      -0.1231
     34  CA         2.3450    9.2520   -6.8810 C.3    64  ARG64       0.1694
     35  C          2.4220    7.9790   -7.6740 C.2    64  ARG64       0.2591
     36  O          1.7330    7.0250   -7.3670 O.2    64  ARG64      -0.2718
     37  CB         1.4940   10.2860   -7.6210 C.3    64  ARG64       0.0321
     38  CG         0.0670    9.8370   -7.8900 C.3    64  ARG64       0.0489
     39  CD        -0.8440   10.9390   -8.4050 C.3    64  ARG64       0.2205
     40  NE        -1.0640   11.9810   -7.4060 N.pl3  64  ARG64      -0.0865
     41  CZ        -0.5290   13.1910   -7.4620 C.cat  64  ARG64       0.5346
     42  NH1        0.2600   13.5250   -8.4760 N.pl3  64  ARG64       0.1354
     43  NH2       -0.7830   14.0770   -6.5070 N.pl3  64  ARG64       0.1354
     44  N          3.0580    8.1230   -8.7790 N.am   65  GLU65      -0.1979
     45  CA         3.0900    7.0980   -9.8350 C.3    65  GLU65       0.1602
     46  C          3.7600    5.8180   -9.3490 C.2    65  GLU65       0.2287
     47  O          3.2390    4.7010   -9.5150 O.2    65  GLU65      -0.2864
     48  CB         3.8710    7.6560  -11.0670 C.3    65  GLU65       0.0415
     49  CG         3.8170    6.7010  -12.2770 C.3    65  GLU65       0.1163
     50  CD         4.4090    7.3200  -13.5550 C.2    65  GLU65       0.3649
     51  OE1        4.4000    6.5970  -14.5600 O.co2  65  GLU65      -0.2457
     52  OE2        4.9150    8.4750  -13.5270 O.co2  65  GLU65      -0.2457
     53  N          1.6920    4.1010   -6.5780 N.3    68  LEU68      -0.1231
     54  CA         0.5100    3.4470   -7.1560 C.3    68  LEU68       0.1693
     55  C          0.8790    2.0920   -7.8280 C.2    68  LEU68       0.2591
     56  O          0.2560    1.0790   -7.5760 O.2    68  LEU68      -0.2718
     57  CB        -0.0360    4.3750   -8.2330 C.3    68  LEU68       0.0284
     58  CG        -1.4700    4.8080   -8.1570 C.3    68  LEU68       0.0019
     59  CD1       -1.6660    5.9620   -9.1640 C.3    68  LEU68       0.0001
     60  CD2       -2.3200    3.6000   -8.5080 C.3    68  LEU68       0.0001
     61  N          1.8970    2.1160   -8.6820 N.am   69  LEU69      -0.1980
     62  CA         2.3370    0.9710   -9.4540 C.3    69  LEU69       0.1596
     63  C          2.9130   -0.0890   -8.5340 C.2    69  LEU69       0.2287
     64  O          2.6800   -1.2780   -8.7600 O.2    69  LEU69      -0.2864
     65  CB         3.4090    1.4090  -10.5020 C.3    69  LEU69       0.0297
     66  CG         2.7810    2.1710  -11.6660 C.3    69  LEU69       0.0022
     67  CD1        3.8140    2.9510  -12.5280 C.3    69  LEU69       0.0001
     68  CD2        1.8850    1.3040  -12.5290 C.3    69  LEU69       0.0001
     69  N         -0.2390   -2.0030   -7.0600 N.3    72  MET72      -0.1245
     70  CA        -1.2380   -2.7380   -7.8550 C.3    72  MET72       0.1570
     71  C         -0.7840   -4.1520   -8.1240 C.2    72  MET72       0.2261
     72  O          0.1800   -4.3300   -8.8700 O.2    72  MET72      -0.2867
     73  CB        -1.4710   -2.0660   -9.2200 C.3    72  MET72       0.0387
     74  CG        -1.9890   -0.6940   -9.1470 C.3    72  MET72       0.0595
     75  SD        -3.6750   -0.6230   -8.5600 S.3    72  MET72      -0.1393
     76  CE        -3.5670   -0.3320   -6.8130 C.3    72  MET72       0.0692
     77  N         -4.7330   -5.5730  -13.8010 N.3    77  VAL77      -0.1231
     78  CA        -4.1650   -4.2540  -13.5910 C.3    77  VAL77       0.1692
     79  C         -2.6810   -4.3490  -13.8380 C.2    77  VAL77       0.2591
     80  O         -2.0530   -5.3680  -13.4920 O.2    77  VAL77      -0.2718
     81  CB        -4.4390   -3.6790  -12.1820 C.3    77  VAL77       0.0266
     82  CG1       -3.8950   -2.2290  -12.0950 C.3    77  VAL77       0.0020
     83  CG2       -5.9860   -3.7430  -11.8440 C.3    77  VAL77       0.0020
     84  N         -2.1390   -3.3280  -14.5150 N.am   78  ILE78      -0.1980
     85  CA        -0.6990   -3.3160  -14.8090 C.3    78  ILE78       0.1595
     86  C          0.0720   -3.3970  -13.4960 C.2    78  ILE78       0.2287
     87  O         -0.2370   -2.6860  -12.5430 O.2    78  ILE78      -0.2864
     88  CB        -0.2720   -2.0440  -15.5990 C.3    78  ILE78       0.0276
     89  CG1        1.2420   -2.0660  -15.8280 C.3    78  ILE78       0.0022
     90  CG2       -0.6530   -0.7000  -14.8310 C.3    78  ILE78       0.0022
     91  CD1        1.6750   -0.9900  -16.7980 C.3    78  ILE78       0.0001
     92  N          4.1370   -3.7190  -11.5570 N.3    80  LEU80      -0.1245
     93  CA         5.5230   -3.2890  -11.6950 C.3    80  LEU80       0.1561
     94  C          6.4750   -4.5250  -11.5570 C.2    80  LEU80       0.2260
     95  O          6.4820   -5.2320  -10.5280 O.2    80  LEU80      -0.2867
     96  CB         5.7990   -2.2100  -10.6370 C.3    80  LEU80       0.0270
     97  CG         7.0210   -1.3280  -10.7870 C.3    80  LEU80       0.0019
     98  CD1        6.9810   -0.5040  -12.1170 C.3    80  LEU80       0.0001
     99  CD2        7.2030   -0.4890   -9.4950 C.3    80  LEU80       0.0001
    100  N         10.9160    2.4250  -14.9140 N.3    98  LEU98      -0.1245
    101  CA         9.8870    1.4830  -14.5170 C.3    98  LEU98       0.1561
    102  C          9.8070    0.3790  -15.5140 C.2    98  LEU98       0.2260
    103  O          9.8650    0.6270  -16.7240 O.2    98  LEU98      -0.2867
    104  CB         8.5150    2.1730  -14.4930 C.3    98  LEU98       0.0270
    105  CG         8.4840    3.4730  -13.7000 C.3    98  LEU98       0.0019
    106  CD1        7.0390    4.0570  -13.7950 C.3    98  LEU98       0.0001
    107  CD2        8.8320    3.2220  -12.3110 C.3    98  LEU98       0.0001
    108  N          7.6630   -3.0450  -16.8760 N.3   100  THR100     -0.1203
    109  CA         6.4590   -3.8380  -16.8480 C.3   100  THR100      0.1994
    110  C          6.4620   -4.8570  -18.0110 C.2   100  THR100      0.2617
    111  O          7.2850   -4.7590  -18.9200 O.2   100  THR100     -0.2717
    112  CB         5.2020   -2.9430  -16.9120 C.3   100  THR100      0.1784
    113  OG1        5.1410   -2.2190  -18.1730 O.3   100  THR100     -0.2211
    114  CG2        5.2830   -1.9180  -15.7630 C.3   100  THR100      0.0376
    115  N          5.5670   -5.8340  -17.9450 N.am  101  HIS101     -0.1975
    116  CA         5.2950   -6.7300  -19.0720 C.3   101  HIS101      0.1656
    117  C          4.9740   -5.9530  -20.3380 C.2   101  HIS101      0.2291
    118  O          4.2050   -4.9830  -20.3080 O.2   101  HIS101     -0.2864
    119  CB         4.1140   -7.6250  -18.7490 C.3   101  HIS101      0.0771
    120  CG         4.4810   -8.8000  -17.9010 C.ar  101  HIS101      0.0820
    121  ND1        5.1850   -9.8850  -18.3920 N.ar  101  HIS101     -0.2267
    122  CD2        4.2350   -9.0680  -16.5940 C.ar  101  HIS101      0.1154
    123  CE1        5.3560  -10.7670  -17.4210 C.ar  101  HIS101      0.1986
    124  NE2        4.8020  -10.2920  -16.3170 N.ar  101  HIS101     -0.2212
    125  N         -9.2970   -1.9890   -7.9800 N.3   131  ILE131     -0.1245
    126  CA        -8.7660   -0.6200   -7.8780 C.3   131  ILE131      0.1561
    127  C         -9.6360    0.1920   -6.9110 C.2   131  ILE131      0.2260
    128  O         -9.1280    0.8810   -6.0110 O.2   131  ILE131     -0.2867
    129  CB        -8.7480    0.0310   -9.3300 C.3   131  ILE131      0.0252
    130  CG1       -7.6370   -0.6090  -10.2440 C.3   131  ILE131      0.0019
    131  CG2       -8.4950    1.5140   -9.1940 C.3   131  ILE131      0.0019
    132  CD1       -7.7710   -0.2400  -11.8280 C.3   131  ILE131      0.0001
    133  N         -9.1700    4.0770   -4.9280 N.3   136  ILE136     -0.1245
    134  CA        -8.5640    4.7950   -6.0260 C.3   136  ILE136      0.1561
    135  C         -9.6220    5.0070   -7.0780 C.2   136  ILE136      0.2260
    136  O        -10.4120    4.1080   -7.3150 O.2   136  ILE136     -0.2867
    137  CB        -7.4210    3.9450   -6.6210 C.3   136  ILE136      0.0252
    138  CG1       -6.2590    3.8700   -5.5960 C.3   136  ILE136      0.0019
    139  CG2       -6.9670    4.4370   -8.0220 C.3   136  ILE136      0.0019
    140  CD1       -5.3720    2.6810   -5.8200 C.3   136  ILE136      0.0001
    141  N         -9.8770    5.6440  -11.1390 N.3   138  HIS138     -0.1241
    142  CA        -8.9450    5.6160  -12.3050 C.3   138  HIS138      0.1621
    143  C         -9.0270    6.9440  -13.0230 C.2   138  HIS138      0.2264
    144  O         -7.9910    7.6240  -13.2520 O.2   138  HIS138     -0.2867
    145  CB        -9.2610    4.4290  -13.2920 C.3   138  HIS138      0.0745
    146  CG        -8.2860    4.2940  -14.4380 C.ar  138  HIS138      0.0817
    147  ND1       -8.2520    5.1850  -15.4960 N.ar  138  HIS138     -0.2268
    148  CD2       -7.2860    3.4030  -14.6670 C.ar  138  HIS138      0.1154
    149  CE1       -7.2710    4.8470  -16.3360 C.ar  138  HIS138      0.1986
    150  NE2       -6.6940    3.7420  -15.8740 N.ar  138  HIS138     -0.2212
    151  N         -5.6700   -3.1380  -17.1130 N.3   156  ILE156     -0.1231
    152  CA        -5.8820   -1.7340  -17.0680 C.3   156  ILE156      0.1692
    153  C         -4.5390   -1.0500  -16.7910 C.2   156  ILE156      0.2592
    154  O         -3.8090   -1.4470  -15.8640 O.2   156  ILE156     -0.2718
    155  CB        -6.8560   -1.4200  -15.9040 C.3   156  ILE156      0.0266
    156  CG1       -8.2370   -2.1420  -16.1570 C.3   156  ILE156      0.0019
    157  CG2       -6.9870    0.1110  -15.6680 C.3   156  ILE156      0.0020
    158  CD1       -9.1910   -1.9500  -14.9790 C.3   156  ILE156      0.0001
    159  N         -4.2600    0.0210  -17.5370 N.am  157  LEU157     -0.1966
    160  CA        -3.1760    0.9240  -17.1710 C.3   157  LEU157      0.1728
    161  C         -3.5720    2.4220  -17.1890 C.2   157  LEU157      0.2616
    162  O         -4.7310    2.7480  -17.2130 O.2   157  LEU157     -0.2715
    163  CB        -2.0120    0.6620  -18.1020 C.3   157  LEU157      0.0311
    164  CG        -2.1700    0.8350  -19.5810 C.3   157  LEU157      0.0022
    165  CD1       -0.8500    1.4290  -20.0620 C.3   157  LEU157      0.0001
    166  CD2       -2.3470   -0.5470  -20.1600 C.3   157  LEU157      0.0001
    167  N         -2.5990    3.3320  -17.2400 N.am  158  ASP158     -0.1957
    168  CA        -2.8540    4.7200  -17.7260 C.3   158  ASP158      0.1840
    169  C         -1.5970    5.2100  -18.4250 C.2   158  ASP158      0.2622
    170  O         -0.6280    5.5410  -17.7580 O.2   158  ASP158     -0.2715
    171  CB        -3.1990    5.6730  -16.5670 C.3   158  ASP158      0.1450
    172  CG        -3.9000    6.9950  -17.0420 C.2   158  ASP158      0.3671
    173  OD1       -3.6660    7.4610  -18.2010 O.co2 158  ASP158     -0.2456
    174  OD2       -4.6780    7.5720  -16.2430 O.co2 158  ASP158     -0.2456
    175  N         -1.5760    5.2030  -19.7590 N.am  159  PHE159     -0.1974
    176  CA        -0.3740    5.6320  -20.5060 C.3   159  PHE159      0.1639
    177  C         -0.0200    7.0990  -20.2150 C.2   159  PHE159      0.2290
    178  O          1.0320    7.5920  -20.6150 O.2   159  PHE159     -0.2864
    179  CB        -0.5560    5.4050  -22.0170 C.3   159  PHE159      0.0560
    180  CG        -0.1270    4.0300  -22.4920 C.ar  159  PHE159     -0.0200
    181  CD1        1.1830    3.5930  -22.3110 C.ar  159  PHE159     -0.0042
    182  CD2       -1.0360    3.1840  -23.1390 C.ar  159  PHE159     -0.0042
    183  CE1        1.5920    2.3250  -22.7590 C.ar  159  PHE159     -0.0003
    184  CE2       -0.6410    1.9100  -23.6020 C.ar  159  PHE159     -0.0003
    185  CZ         0.6750    1.4860  -23.4110 C.ar  159  PHE159     -0.0000
@<TRIPOS>BOND
     1     4     3    2
     2     3     2    1
     3     1     2    1
     4     5     2    1
     5     5     6    1
     6     5     7    1
     7   184   185   ar
     8   184   182   ar
     9   185   183   ar
    10   182   180   ar
    11   183   181   ar
    12   180   181   ar
    13   180   179    1
    14   179   176    1
    15    12     9    1
    16     9     8    1
    17     9    10    1
    18   178   177    2
    19   176   177    1
    20   176   175    1
    21   117   118    2
    22   117   116    1
    23    10    11    2
    24   166   164    1
    25   165   164    1
    26   175   169   am
    27   164   163    1
    28    14    13    1
    29    14    17    1
    30    14    15    1
    31   116   119    1
    32   116   115    1
    33   111   110    2
    34    18    17    1
    35    18    19    1
    36    20    19    1
    37    20    21    1
    38   119   120    1
    39   169   170    2
    40   169   168    1
    41    15    16    2
    42   121   120   ar
    43   121   123   ar
    44   173   172   ar
    45   113   112    1
    46   163   160    1
    47   110   115   am
    48   110   109    1
    49   120   122   ar
    50   168   167    1
    51   168   171    1
    52   159   160    1
    53   159   153   am
    54   123   124   ar
    55   167   161   am
    56   162   161    2
    57   161   160    1
    58   151   152    1
    59   152   153    1
    60   152   155    1
    61   172   171    1
    62   172   174   ar
    63   112   109    1
    64   112   114    1
    65   108   109    1
    66    91    89    1
    67   153   154    2
    68   103   102    2
    69   122   124   ar
    70   149   150   ar
    71   149   147   ar
    72   156   155    1
    73   156   158    1
    74   155   157    1
    75   150   148   ar
    76    89    88    1
    77    88    90    1
    78    88    85    1
    79   102   101    1
    80   147   146   ar
    81   100   101    1
    82    85    84    1
    83    85    86    1
    84   148   146   ar
    85    51    50   ar
    86   101   104    1
    87    84    79   am
    88   104   105    1
    89   146   145    1
    90    31    30    1
    91    79    78    1
    92    79    80    2
    93    77    78    1
    94   106   105    1
    95   105   107    1
    96    78    81    1
    97    50    52   ar
    98    50    49    1
    99    86    87    2
   100    30    32    1
   101    30    29    2
   102    28    29    1
   103    28    27    1
   104   145   142    1
   105   144   143    2
   106   143   142    1
   107    68    66    1
   108    67    66    1
   109   142   141    1
   110    49    48    1
   111    81    82    1
   112    81    83    1
   113    98    97    1
   114    27    26    1
   115   132   130    1
   116    93    92    1
   117    93    94    1
   118    93    96    1
   119    66    65    1
   120    94    95    2
   121    48    45    1
   122    26    23    1
   123    97    96    1
   124    97    99    1
   125    65    62    1
   126   130   129    1
   127    45    46    1
   128    45    44    1
   129    25    24    2
   130    24    23    1
   131    47    46    2
   132    23    22    1
   133    62    61    1
   134    62    63    1
   135   129   131    1
   136   129   126    1
   137    73    74    1
   138    73    70    1
   139    59    58    1
   140    74    75    1
   141    72    71    2
   142    44    35   am
   143    64    63    2
   144    61    55   am
   145    75    76    1
   146    60    58    1
   147    42    41    1
   148    39    38    1
   149    39    40    1
   150    57    58    1
   151    57    54    1
   152    71    70    1
   153   139   137    1
   154   125   126    1
   155    38    37    1
   156   126   127    1
   157    70    69    1
   158    55    56    2
   159    55    54    1
   160    35    36    2
   161    35    34    1
   162    37    34    1
   163    41    40    2
   164    41    43    1
   165   136   135    2
   166    54    53    1
   167   135   134    1
   168   127   128    2
   169    34    33    1
   170   137   134    1
   171   137   138    1
   172   134   133    1
   173   140   138    1
