@<TRIPOS>MOLECULE
tmp/3k3kB00.pdb
 183 175 0 0 0
SMALL
GASTEIGER

@<TRIPOS>ATOM
      1  N         18.5440   16.8120   25.1730 N.3    58  LYS58      -0.1231
      2  CA        17.2550   17.0300   25.8210 C.3    58  LYS58       0.1693
      3  C         17.3680   18.1500   26.8080 C.2    58  LYS58       0.2592
      4  O         18.4180   18.3350   27.4240 O.2    58  LYS58      -0.2718
      5  CB        16.7940   15.7530   26.5220 C.3    58  LYS58       0.0285
      6  CG        16.5550   14.5890   25.5140 C.3    58  LYS58       0.0035
      7  CD        15.8590   13.4720   26.2760 C.3    58  LYS58       0.0206
      8  CE        15.5470   12.3220   25.3250 C.3    58  LYS58       0.1093
      9  NZ        14.7530   11.2360   26.0140 N.3    58  LYS58      -0.1314
     10  N         16.2920   18.9170   26.9480 N.am   59  HIS59      -0.1962
     11  CA        16.1840   19.9360   27.9880 C.3    59  HIS59       0.1787
     12  C         15.7950   19.2800   29.3310 C.2    59  HIS59       0.2620
     13  O         15.3870   18.1370   29.3560 O.2    59  HIS59      -0.2715
     14  CB        15.0560   20.9010   27.5990 C.3    59  HIS59       0.0785
     15  CG        15.3670   21.7810   26.4270 C.ar   59  HIS59       0.0821
     16  ND1       16.1990   22.8700   26.5380 N.ar   59  HIS59      -0.2267
     17  CD2       14.9310   21.7680   25.1420 C.ar   59  HIS59       0.1154
     18  CE1       16.2760   23.4860   25.3730 C.ar   59  HIS59       0.1986
     19  NE2       15.4830   22.8620   24.5270 N.ar   59  HIS59      -0.2212
     20  N         15.9280   20.0320   30.4250 N.am   60  PHE60      -0.1960
     21  CA        15.2940   19.6690   31.7370 C.3    60  PHE60       0.1771
     22  C         16.0250   18.5580   32.4840 C.2    60  PHE60       0.2619
     23  O         15.5930   18.1440   33.5680 O.2    60  PHE60      -0.2715
     24  CB        13.8220   19.2820   31.5520 C.3    60  PHE60       0.0574
     25  CG        13.0190   20.3070   30.7710 C.ar   60  PHE60      -0.0200
     26  CD1       13.0400   21.6470   31.1580 C.ar   60  PHE60      -0.0042
     27  CD2       12.2660   19.9220   29.6580 C.ar   60  PHE60      -0.0042
     28  CE1       12.3390   22.6240   30.4410 C.ar   60  PHE60      -0.0003
     29  CE2       11.5170   20.8970   28.9340 C.ar   60  PHE60      -0.0003
     30  CZ        11.5710   22.2340   29.3330 C.ar   60  PHE60      -0.0000
     31  N         17.1430   18.0960   31.9380 N.am   61  ILE61      -0.1977
     32  CA        17.9070   17.0290   32.5990 C.3    61  ILE61       0.1596
     33  C         19.0350   17.5980   33.4300 C.2    61  ILE61       0.2287
     34  O         19.9150   18.3080   32.9230 O.2    61  ILE61      -0.2864
     35  CB        18.3940   15.9840   31.5810 C.3    61  ILE61       0.0276
     36  CG1       17.1380   15.3030   30.9750 C.3    61  ILE61       0.0022
     37  CG2       19.2250   14.9260   32.2520 C.3    61  ILE61       0.0022
     38  CD1       17.4390   14.3010   29.8520 C.3    61  ILE61       0.0001
     39  N         17.3990    9.0350   35.0460 N.3    80  VAL80      -0.1245
     40  CA        17.4740   10.4290   34.6520 C.3    80  VAL80       0.1561
     41  C         16.9660   11.3030   35.8030 C.2    80  VAL80       0.2260
     42  O         15.9330   11.0150   36.3990 O.2    80  VAL80      -0.2867
     43  CB        16.6200   10.6500   33.3580 C.3    80  VAL80       0.0252
     44  CG1       16.5310   12.1120   33.0130 C.3    80  VAL80       0.0019
     45  CG2       17.2470    9.8890   32.1810 C.3    80  VAL80       0.0019
     46  N         15.6050   15.0340   36.7370 N.3    82  VAL82      -0.1245
     47  CA        14.9780   16.1980   36.1220 C.3    82  VAL82       0.1561
     48  C         15.1890   17.4580   36.9920 C.2    82  VAL82       0.2260
     49  O         15.2030   17.3690   38.2100 O.2    82  VAL82      -0.2867
     50  CB        13.4500   16.0020   36.1020 C.3    82  VAL82       0.0252
     51  CG1       12.8310   16.9660   35.1820 C.3    82  VAL82       0.0019
     52  CG2       13.0750   14.5740   35.6760 C.3    82  VAL82       0.0019
     53  N          8.9750   20.4600   37.5040 N.3    86  LEU86      -0.1231
     54  CA         8.2110   19.6700   36.5580 C.3    86  LEU86       0.1678
     55  C          7.4230   18.5950   37.3120 C.2    86  LEU86       0.2434
     56  O          7.6190   18.4440   38.5290 O.2    86  LEU86      -0.2733
     57  CB         9.1480   19.1090   35.4790 C.3    86  LEU86       0.0284
     58  CG         9.5780   20.1260   34.4060 C.3    86  LEU86       0.0019
     59  CD1       10.8900   19.6960   33.7890 C.3    86  LEU86       0.0001
     60  CD2        8.5190   20.1910   33.3340 C.3    86  LEU86       0.0001
     61  N          6.5190   17.8650   36.6110 N.am   87  PRO87      -0.2718
     62  CA         5.6940   16.8380   37.2840 C.3    87  PRO87       0.1535
     63  C          6.5200   15.7070   37.9050 C.2    87  PRO87       0.2598
     64  O          5.9900   14.9500   38.7250 O.2    87  PRO87      -0.2715
     65  CB         4.7990   16.2970   36.1520 C.3    87  PRO87       0.0310
     66  CG         4.8130   17.3620   35.0800 C.3    87  PRO87       0.0237
     67  CD         6.2030   17.9390   35.1700 C.3    87  PRO87       0.0939
     68  N          7.8040   15.6380   37.5330 N.am   88  ALA88      -0.1978
     69  CA         8.7400   14.6010   37.9710 C.3    88  ALA88       0.1597
     70  C         10.0820   15.1280   38.4920 C.2    88  ALA88       0.2287
     71  O         10.5440   16.1950   38.1010 O.2    88  ALA88      -0.2864
     72  CB         9.0040   13.6600   36.8260 C.3    88  ALA88       0.0319
     73  N         13.3600    9.7360   36.4920 N.3    91  SER91      -0.1217
     74  CA        12.7050    8.8050   35.5870 C.3    91  SER91       0.1889
     75  C         13.6560    7.6580   35.3520 C.2    91  SER91       0.2288
     76  O         14.8410    7.8950   35.1180 O.2    91  SER91      -0.2866
     77  CB        12.5430    9.5380   34.2540 C.3    91  SER91       0.2089
     78  OG        11.8260    8.7420   33.3190 O.3    91  SER91      -0.2183
     79  N         14.3630    4.5840   32.7390 N.3    93  GLU93      -0.1245
     80  CA        14.0750    4.3150   31.3590 C.3    93  GLU93       0.1567
     81  C         14.8190    3.1020   30.8830 C.2    93  GLU93       0.2260
     82  O         15.9890    2.9320   31.2310 O.2    93  GLU93      -0.2867
     83  CB        14.4190    5.5500   30.5040 C.3    93  GLU93       0.0388
     84  CG        13.4310    6.6710   30.8410 C.3    93  GLU93       0.1160
     85  CD        13.8540    8.0920   30.5190 C.2    93  GLU93       0.3649
     86  OE1       14.8970    8.3080   29.8590 O.co2  93  GLU93      -0.2457
     87  OE2       13.0940    9.0030   30.9430 O.co2  93  GLU93      -0.2457
     88  N         12.8240    3.9180   23.6990 N.3   107  PHE107     -0.1241
     89  CA        12.8970    3.6010   25.1110 C.3   107  PHE107      0.1605
     90  C         11.5270    3.6190   25.7650 C.2   107  PHE107      0.2264
     91  O         10.5910    4.1300   25.2010 O.2   107  PHE107     -0.2867
     92  CB        13.8410    4.5920   25.8340 C.3   107  PHE107      0.0534
     93  CG        13.2680    5.9710   25.9940 C.ar  107  PHE107     -0.0203
     94  CD1       12.5330    6.3150   27.1230 C.ar  107  PHE107     -0.0042
     95  CD2       13.5250    6.9600   25.0730 C.ar  107  PHE107     -0.0042
     96  CE1       12.0160    7.6170   27.2850 C.ar  107  PHE107     -0.0003
     97  CE2       12.9840    8.2390   25.2170 C.ar  107  PHE107     -0.0003
     98  CZ        12.2470    8.5750   26.3100 C.ar  107  PHE107     -0.0000
     99  N          9.5660    4.2650   29.6570 N.3   109  ILE109     -0.1245
    100  CA         9.7440    4.7070   31.0700 C.3   109  ILE109      0.1561
    101  C          9.1950    3.6040   31.9810 C.2   109  ILE109      0.2260
    102  O          8.0330    3.2000   31.8430 O.2   109  ILE109     -0.2867
    103  CB         9.0000    6.0110   31.3330 C.3   109  ILE109      0.0252
    104  CG1        9.5110    7.0980   30.3860 C.3   109  ILE109      0.0019
    105  CG2        9.1330    6.4050   32.7870 C.3   109  ILE109      0.0019
    106  CD1        8.9120    8.4790   30.6200 C.3   109  ILE109      0.0001
    107  N          7.0580   10.3780   38.7340 N.3   114  HIS114     -0.1241
    108  CA         6.3530   11.2100   37.7310 C.3   114  HIS114      0.1621
    109  C          4.9940   10.6770   37.2600 C.2   114  HIS114      0.2264
    110  O          4.4600    9.7120   37.8200 O.2   114  HIS114     -0.2867
    111  CB         7.2460   11.5480   36.5230 C.3   114  HIS114      0.0745
    112  CG         7.6750   10.3610   35.7240 C.ar  114  HIS114      0.0817
    113  ND1        8.9080    9.7630   35.8820 N.ar  114  HIS114     -0.2268
    114  CD2        7.0420    9.6750   34.7430 C.ar  114  HIS114      0.1154
    115  CE1        9.0120    8.7510   35.0400 C.ar  114  HIS114      0.1986
    116  NE2        7.8920    8.6740   34.3410 N.ar  114  HIS114     -0.2212
    117  N          3.9250    9.8260   33.8340 N.3   116  LEU116     -0.1245
    118  CA         3.8550    9.3330   32.4430 C.3   116  LEU116      0.1561
    119  C          3.8350    7.8040   32.2700 C.2   116  LEU116      0.2260
    120  O          4.7340    7.2000   31.6620 O.2   116  LEU116     -0.2867
    121  CB         4.9540    9.9680   31.5880 C.3   116  LEU116      0.0270
    122  CG         4.9170   11.4760   31.3410 C.3   116  LEU116      0.0019
    123  CD1        6.1180   11.7960   30.5010 C.3   116  LEU116      0.0001
    124  CD2        3.6820   11.9590   30.6290 C.3   116  LEU116      0.0001
    125  N          4.8130    5.1810   29.1740 N.3   119  TYR119     -0.1241
    126  CA         5.3650    5.9860   28.0810 C.3   119  TYR119      0.1605
    127  C          6.3900    5.1840   27.3180 C.2   119  TYR119      0.2264
    128  O          7.2990    4.5990   27.9210 O.2   119  TYR119     -0.2867
    129  CB         5.9840    7.2500   28.6630 C.3   119  TYR119      0.0534
    130  CG         6.5050    8.2140   27.6180 C.ar  119  TYR119     -0.0201
    131  CD1        5.6980    9.2660   27.1510 C.ar  119  TYR119     -0.0009
    132  CD2        7.8120    8.0770   27.0940 C.ar  119  TYR119     -0.0009
    133  CE1        6.1740   10.1760   26.1970 C.ar  119  TYR119      0.0417
    134  CE2        8.3150    8.9910   26.1360 C.ar  119  TYR119      0.0417
    135  CZ         7.4920   10.0400   25.6920 C.ar  119  TYR119      0.1957
    136  OH         7.9270   10.9520   24.7080 O.3   119  TYR119     -0.2866
    137  N         10.1170   11.4080   15.6920 N.3   140  GLU140     -0.1245
    138  CA         9.9380   10.8300   17.0350 C.3   140  GLU140      0.1567
    139  C          8.4780   10.6880   17.3600 C.2   140  GLU140      0.2260
    140  O          7.7100   11.6440   17.2430 O.2   140  GLU140     -0.2867
    141  CB        10.6220   11.7190   18.1120 C.3   140  GLU140      0.0388
    142  CG        10.6080   11.1120   19.5370 C.3   140  GLU140      0.1160
    143  CD        11.4950   11.8500   20.5560 C.2   140  GLU140      0.3649
    144  OE1       11.4140   11.5060   21.7530 O.co2 140  GLU140     -0.2457
    145  OE2       12.2820   12.7590   20.1800 O.co2 140  GLU140     -0.2457
    146  N          1.4930   18.2190   27.3210 N.3   158  PHE158     -0.1227
    147  CA         2.7520   18.2760   28.0280 C.3   158  PHE158      0.1736
    148  C          3.8190   17.5120   27.2510 C.2   158  PHE158      0.2595
    149  O          4.8720   18.0590   26.9070 O.2   158  PHE158     -0.2718
    150  CB         2.6270   17.7290   29.4670 C.3   158  PHE158      0.0547
    151  CG         3.9460   17.5790   30.1700 C.ar  158  PHE158     -0.0202
    152  CD1        4.6080   18.6870   30.6830 C.ar  158  PHE158     -0.0042
    153  CD2        4.5280   16.3250   30.3020 C.ar  158  PHE158     -0.0042
    154  CE1        5.8780   18.5610   31.2940 C.ar  158  PHE158     -0.0003
    155  CE2        5.7590   16.1690   30.9150 C.ar  158  PHE158     -0.0003
    156  CZ         6.4350   17.2820   31.4200 C.ar  158  PHE158     -0.0000
    157  N          3.5660   16.2400   26.9860 N.am  159  ALA159     -0.1980
    158  CA         4.5540   15.4250   26.3030 C.3   159  ALA159      0.1597
    159  C          4.9040   16.0060   24.9190 C.2   159  ALA159      0.2287
    160  O          6.0730   16.0000   24.5280 O.2   159  ALA159     -0.2864
    161  CB         4.0690   13.9730   26.2080 C.3   159  ALA159      0.0319
    162  N          7.4600   18.8870   25.3510 N.3   162  VAL162     -0.1231
    163  CA         8.8360   18.4660   25.6650 C.3   162  VAL162      0.1692
    164  C          9.4680   17.8610   24.4150 C.2   162  VAL162      0.2591
    165  O         10.6190   18.1640   24.0780 O.2   162  VAL162     -0.2718
    166  CB         8.8480   17.4500   26.8570 C.3   162  VAL162      0.0266
    167  CG1       10.2400   16.8370   27.0870 C.3   162  VAL162      0.0020
    168  CG2        8.3790   18.1760   28.1350 C.3   162  VAL162      0.0020
    169  N          8.7410   16.9800   23.7450 N.am  163  VAL163     -0.1980
    170  CA         9.3170   16.3100   22.5780 C.3   163  VAL163      0.1595
    171  C          9.6960   17.3560   21.5290 C.2   163  VAL163      0.2287
    172  O         10.8040   17.3150   20.9970 O.2   163  VAL163     -0.2864
    173  CB         8.3640   15.2410   21.9790 C.3   163  VAL163      0.0276
    174  CG1        8.9270   14.7530   20.6210 C.3   163  VAL163      0.0022
    175  CG2        8.1590   14.0900   22.9570 C.3   163  VAL163      0.0022
    176  N         12.7990   19.1640   22.6380 N.3   166  ASN166     -0.1240
    177  CA        14.0110   18.3420   22.6320 C.3   166  ASN166      0.1653
    178  C         14.4840   18.1540   21.1510 C.2   166  ASN166      0.2266
    179  O         15.6560   18.1480   20.8400 O.2   166  ASN166     -0.2867
    180  CB        13.7200   17.0030   23.2780 C.3   166  ASN166      0.1155
    181  CG        13.6350   17.1270   24.8040 C.2   166  ASN166      0.2627
    182  OD1       14.0410   18.1460   25.3610 O.2   166  ASN166     -0.2716
    183  ND2       13.1540   16.0870   25.4520 N.am  166  ASN166     -0.0877
@<TRIPOS>BOND
     1   137   138    1
     2   138   139    1
     3   138   141    1
     4   140   139    2
     5   141   142    1
     6   142   143    1
     7   145   143   ar
     8   143   144   ar
     9   174   173    1
    10   179   178    2
    11   172   171    2
    12   178   177    1
    13   171   170    1
    14   173   170    1
    15   173   175    1
    16   170   169    1
    17   177   176    1
    18   177   180    1
    19   180   181    1
    20    88    89    1
    21   169   164   am
    22   165   164    2
    23   164   163    1
    24    19    17   ar
    25    19    18   ar
    26   160   159    2
    27   136   135    1
    28   181   182    2
    29   181   183   am
    30   159   158    1
    31    95    97   ar
    32    95    93   ar
    33    89    90    1
    34    89    92    1
    35    17    15   ar
    36     1     2    1
    37    91    90    2
    38    97    98   ar
    39     8     9    1
    40     8     7    1
    41   162   163    1
    42    18    16   ar
    43     6     7    1
    44     6     5    1
    45   163   166    1
    46   135   134   ar
    47   135   133   ar
    48     2     5    1
    49     2     3    1
    50    92    93    1
    51    93    94   ar
    52   134   132   ar
    53   133   131   ar
    54   161   158    1
    55   158   157    1
    56    98    96   ar
    57    15    16   ar
    58    15    14    1
    59     3    10   am
    60     3     4    2
    61   166   167    1
    62   166   168    1
    63   149   148    2
    64    10    11    1
    65   157   148   am
    66   132   130   ar
    67    94    96   ar
    68   131   130   ar
    69   148   147    1
    70   127   128    2
    71   127   126    1
    72   146   147    1
    73    14    11    1
    74   130   129    1
    75    11    12    1
    76   147   150    1
    77   126   129    1
    78   126   125    1
    79    29    30   ar
    80    29    27   ar
    81    12    13    2
    82    12    20   am
    83    30    28   ar
    84   150   151    1
    85    99   100    1
    86    27    25   ar
    87    38    36    1
    88    86    85   ar
    89   151   153   ar
    90   151   152   ar
    91   153   155   ar
    92   104   106    1
    93   104   103    1
    94    20    21    1
    95    28    26   ar
    96   123   122    1
    97    83    84    1
    98    83    80    1
    99    85    84    1
   100    85    87   ar
   101   124   122    1
   102   152   154   ar
   103    25    26   ar
   104    25    24    1
   105    81    82    2
   106    81    80    1
   107   155   156   ar
   108    36    35    1
   109   100   103    1
   110   100   101    1
   111   154   156   ar
   112   103   105    1
   113   122   121    1
   114    80    79    1
   115    24    21    1
   116    35    37    1
   117    35    32    1
   118   121   118    1
   119   120   119    2
   120    21    22    1
   121   102   101    2
   122    31    22   am
   123    31    32    1
   124    45    43    1
   125   119   118    1
   126   118   117    1
   127    22    23    2
   128    32    33    1
   129    34    33    2
   130    44    43    1
   131    78    77    1
   132    60    58    1
   133    43    40    1
   134    59    58    1
   135    77    74    1
   136   116   114   ar
   137   116   115   ar
   138    58    57    1
   139    40    39    1
   140    40    41    1
   141   114   112   ar
   142   115   113   ar
   143    66    67    1
   144    66    65    1
   145    76    75    2
   146    67    61    1
   147    51    50    1
   148    75    74    1
   149    57    54    1
   150    74    73    1
   151    52    50    1
   152   112   113   ar
   153   112   111    1
   154    41    42    2
   155    50    47    1
   156    47    46    1
   157    47    48    1
   158    65    62    1
   159   111   108    1
   160    54    55    1
   161    54    53    1
   162    61    62    1
   163    61    55   am
   164    72    69    1
   165    48    49    2
   166   109   108    1
   167   109   110    2
   168    62    63    1
   169    55    56    2
   170    68    63   am
   171    68    69    1
   172   108   107    1
   173    63    64    2
   174    69    70    1
   175    71    70    2
