@<TRIPOS>MOLECULE
tmp/3k3lC00.pdb
 173 167 0 0 0
SMALL
GASTEIGER

@<TRIPOS>ATOM
      1  N         50.5790   48.5610   35.2650 N.3    34  LEU34      -0.1245
      2  CA        51.0120   47.5000   36.1570 C.3    34  LEU34       0.1561
      3  C         52.5220   47.5960   36.3350 C.2    34  LEU34       0.2260
      4  O         53.2640   47.6550   35.3530 O.2    34  LEU34      -0.2867
      5  CB        50.6510   46.1370   35.5550 C.3    34  LEU34       0.0270
      6  CG        50.2110   44.9880   36.4710 C.3    34  LEU34       0.0019
      7  CD1       50.6350   43.6610   35.8550 C.3    34  LEU34       0.0001
      8  CD2       50.7520   45.1050   37.8860 C.3    34  LEU34       0.0001
      9  N         58.0250   41.4680   40.2910 N.3    38  ALA38      -0.1231
     10  CA        57.7980   40.2580   39.4910 C.3    38  ALA38       0.1694
     11  C         57.0590   40.5600   38.1760 C.2    38  ALA38       0.2591
     12  O         56.6000   39.6420   37.4940 O.2    38  ALA38      -0.2718
     13  CB        57.0390   39.2250   40.3010 C.3    38  ALA38       0.0304
     14  N         56.9540   41.8410   37.8260 N.am   39  ILE39      -0.1980
     15  CA        56.3400   42.2710   36.5710 C.3    39  ILE39       0.1595
     16  C         57.4290   42.6090   35.5550 C.2    39  ILE39       0.2287
     17  O         58.3660   43.3380   35.8740 O.2    39  ILE39      -0.2864
     18  CB        55.4730   43.5380   36.7610 C.3    39  ILE39       0.0276
     19  CG1       54.4060   43.3290   37.8410 C.3    39  ILE39       0.0022
     20  CG2       54.8240   43.9370   35.4370 C.3    39  ILE39       0.0022
     21  CD1       53.2980   42.3990   37.4310 C.3    39  ILE39       0.0001
     22  N         51.1520   42.2540   27.7900 N.3    47  GLN47      -0.1245
     23  CA        50.1690   42.0490   28.8510 C.3    47  GLN47       0.1566
     24  C         48.7980   42.5640   28.4100 C.2    47  GLN47       0.2260
     25  O         48.6790   43.6970   27.9480 O.2    47  GLN47      -0.2867
     26  CB        50.6280   42.7810   30.1200 C.3    47  GLN47       0.0367
     27  CG        49.6670   42.7240   31.3110 C.3    47  GLN47       0.0905
     28  CD        49.8350   41.4850   32.1660 C.2    47  GLN47       0.2608
     29  OE1       48.8600   40.8070   32.4830 O.2    47  GLN47      -0.2717
     30  NE2       51.0720   41.1940   32.5580 N.am   47  GLN47      -0.0878
     31  N         43.2860   43.5370   32.2180 N.3    50  TYR50      -0.1241
     32  CA        42.2660   42.8600   33.0050 C.3    50  TYR50       0.1605
     33  C         41.5420   43.8970   33.8570 C.2    50  TYR50       0.2264
     34  O         41.8430   45.0860   33.7750 O.2    50  TYR50      -0.2867
     35  CB        42.8820   41.7440   33.8540 C.3    50  TYR50       0.0534
     36  CG        43.8600   42.1800   34.9190 C.ar   50  TYR50      -0.0201
     37  CD1       45.1820   42.4880   34.6010 C.ar   50  TYR50      -0.0009
     38  CD2       43.4770   42.2380   36.2520 C.ar   50  TYR50      -0.0009
     39  CE1       46.0860   42.8650   35.5830 C.ar   50  TYR50       0.0417
     40  CE2       44.3670   42.6120   37.2340 C.ar   50  TYR50       0.0417
     41  CZ        45.6720   42.9260   36.9000 C.ar   50  TYR50       0.1957
     42  OH        46.5570   43.3030   37.8870 O.3    50  TYR50      -0.2866
     43  N         38.9850   39.6750   40.1570 N.3    66  SER66      -0.1217
     44  CA        39.7320   40.0680   38.9710 C.3    66  SER66       0.1889
     45  C         39.3070   39.2040   37.7960 C.2    66  SER66       0.2288
     46  O         39.1070   37.9960   37.9460 O.2    66  SER66      -0.2866
     47  CB        41.2330   39.9380   39.2070 C.3    66  SER66       0.2089
     48  OG        41.6550   40.8360   40.2160 O.3    66  SER66      -0.2183
     49  N         40.3210   38.3060   33.8180 N.3    68  LEU68      -0.1245
     50  CA        41.3690   38.3370   32.8010 C.3    68  LEU68       0.1561
     51  C         40.9480   37.5080   31.5880 C.2    68  LEU68       0.2260
     52  O         40.1070   36.6180   31.7000 O.2    68  LEU68      -0.2867
     53  CB        42.6770   37.7690   33.3680 C.3    68  LEU68       0.0270
     54  CG        43.1100   38.1640   34.7890 C.3    68  LEU68       0.0019
     55  CD1       42.2510   37.4980   35.8600 C.3    68  LEU68       0.0001
     56  CD2       44.5640   37.7960   35.0040 C.3    68  LEU68       0.0001
     57  N         42.5880   34.9520   29.2460 N.3    70  ARG70      -0.1245
     58  CA        43.7860   34.1210   29.2260 C.3    70  ARG70       0.1563
     59  C         43.4630   32.7310   28.6880 C.2    70  ARG70       0.2260
     60  O         42.4190   32.1550   29.0070 O.2    70  ARG70      -0.2867
     61  CB        44.3590   34.0110   30.6410 C.3    70  ARG70       0.0307
     62  CG        45.6830   33.3030   30.7070 C.3    70  ARG70       0.0489
     63  CD        46.3560   33.4600   32.0630 C.3    70  ARG70       0.2205
     64  NE        46.5250   34.8560   32.4650 N.pl3  70  ARG70      -0.0865
     65  CZ        47.2230   35.7720   31.7920 C.cat  70  ARG70       0.5346
     66  NH1       47.8220   35.4590   30.6450 N.pl3  70  ARG70       0.1354
     67  NH2       47.3100   37.0140   32.2650 N.pl3  70  ARG70       0.1354
     68  N         39.3160   35.4030   39.4160 N.3    77  TRP77      -0.1241
     69  CA        40.1080   35.1560   40.6150 C.3    77  TRP77       0.1605
     70  C         39.5230   36.0060   41.7410 C.2    77  TRP77       0.2264
     71  O         39.5480   37.2380   41.6820 O.2    77  TRP77      -0.2867
     72  CB        41.5850   35.4570   40.3080 C.3    77  TRP77       0.0550
     73  CG        42.4360   35.9780   41.4250 C.ar   77  TRP77       0.0003
     74  CD1       43.2100   37.1060   41.3940 C.ar   77  TRP77       0.0946
     75  CD2       42.6310   35.3940   42.7190 C.ar   77  TRP77       0.0152
     76  NE1       43.8660   37.2670   42.5900 N.ar   77  TRP77      -0.2442
     77  CE2       43.5280   36.2340   43.4230 C.ar   77  TRP77       0.0810
     78  CE3       42.1270   34.2550   43.3590 C.ar   77  TRP77       0.0012
     79  CZ2       43.9320   35.9700   44.7340 C.ar   77  TRP77       0.0191
     80  CZ3       42.5330   33.9900   44.6670 C.ar   77  TRP77       0.0001
     81  CH2       43.4290   34.8490   45.3370 C.ar   77  TRP77       0.0015
     82  N         38.9700   36.8930   45.9350 N.3    79  ARG79      -0.1245
     83  CA        39.5130   36.8550   47.2920 C.3    79  ARG79       0.1563
     84  C         38.8740   37.9310   48.1700 C.2    79  ARG79       0.2260
     85  O         38.0860   38.7500   47.6850 O.2    79  ARG79      -0.2867
     86  CB        41.0400   36.9940   47.2770 C.3    79  ARG79       0.0307
     87  CG        41.5900   38.3270   46.7520 C.3    79  ARG79       0.0489
     88  CD        41.3800   38.4970   45.2480 C.3    79  ARG79       0.2205
     89  NE        42.3680   39.3910   44.6430 N.pl3  79  ARG79      -0.0865
     90  CZ        42.2660   39.9330   43.4290 C.cat  79  ARG79       0.5346
     91  NH1       41.2110   39.6890   42.6560 N.pl3  79  ARG79       0.1354
     92  NH2       43.2290   40.7360   42.9850 N.pl3  79  ARG79       0.1354
     93  N         51.6840   31.2630   51.4870 N.3   101  LEU101     -0.1245
     94  CA        51.4350   32.6870   51.6760 C.3   101  LEU101      0.1561
     95  C         51.4330   33.0270   53.1630 C.2   101  LEU101      0.2260
     96  O         50.4750   32.7330   53.8740 O.2   101  LEU101     -0.2867
     97  CB        50.1050   33.0880   51.0220 C.3   101  LEU101      0.0270
     98  CG        49.8390   34.5900   50.8700 C.3   101  LEU101      0.0019
     99  CD1       50.9880   35.2800   50.1520 C.3   101  LEU101      0.0001
    100  CD2       48.5370   34.8330   50.1280 C.3   101  LEU101      0.0001
    101  N         50.3470   39.2740   53.4390 N.3   104  TYR104     -0.1241
    102  CA        49.6970   39.9720   52.3380 C.3   104  TYR104      0.1605
    103  C         49.2140   41.3360   52.8080 C.2   104  TYR104      0.2264
    104  O         48.5370   41.4400   53.8270 O.2   104  TYR104     -0.2867
    105  CB        48.5190   39.1590   51.8000 C.3   104  TYR104      0.0534
    106  CG        48.0810   39.5750   50.4140 C.ar  104  TYR104     -0.0201
    107  CD1       47.1910   40.6290   50.2290 C.ar  104  TYR104     -0.0009
    108  CD2       48.5610   38.9190   49.2860 C.ar  104  TYR104     -0.0009
    109  CE1       46.7880   41.0150   48.9580 C.ar  104  TYR104      0.0417
    110  CE2       48.1610   39.2980   48.0090 C.ar  104  TYR104      0.0417
    111  CZ        47.2740   40.3480   47.8530 C.ar  104  TYR104      0.1957
    112  OH        46.8710   40.7430   46.5930 O.3   104  TYR104     -0.2866
    113  N         50.4850   46.6850   46.5730 N.3   121  PHE121     -0.1227
    114  CA        50.2890   45.3300   47.0640 C.3   121  PHE121      0.1736
    115  C         51.6300   44.7510   47.4700 C.2   121  PHE121      0.2595
    116  O         52.6260   44.9490   46.7750 O.2   121  PHE121     -0.2718
    117  CB        49.7010   44.4430   45.9720 C.3   121  PHE121      0.0547
    118  CG        48.3690   44.8980   45.4690 C.ar  121  PHE121     -0.0202
    119  CD1       47.1980   44.3720   45.9960 C.ar  121  PHE121     -0.0042
    120  CD2       48.2830   45.8440   44.4620 C.ar  121  PHE121     -0.0042
    121  CE1       45.9670   44.7810   45.5270 C.ar  121  PHE121     -0.0003
    122  CE2       47.0530   46.2610   43.9890 C.ar  121  PHE121     -0.0003
    123  CZ        45.8920   45.7260   44.5180 C.ar  121  PHE121     -0.0000
    124  N         51.6480   44.0260   48.5830 N.am  122  LYS122     -0.1966
    125  CA        52.8500   43.3550   49.0440 C.3   122  LYS122      0.1728
    126  C         52.4800   41.9870   49.6010 C.2   122  LYS122      0.2616
    127  O         51.5110   41.8590   50.3520 O.2   122  LYS122     -0.2715
    128  CB        53.5450   44.1920   50.1200 C.3   122  LYS122      0.0311
    129  CG        54.9810   43.7710   50.4070 C.3   122  LYS122      0.0038
    130  CD        55.6550   44.6840   51.4310 C.3   122  LYS122      0.0206
    131  CE        55.2150   44.3760   52.8590 C.3   122  LYS122      0.1093
    132  NZ        55.6320   43.0120   53.2860 N.3   122  LYS122     -0.1314
    133  N         53.2420   40.9640   49.2190 N.am  123  LYS123     -0.1977
    134  CA        53.0500   39.6220   49.7670 C.3   123  LYS123      0.1596
    135  C         54.3780   38.9220   49.9720 C.2   123  LYS123      0.2287
    136  O         55.3490   39.2140   49.2780 O.2   123  LYS123     -0.2864
    137  CB        52.1550   38.7800   48.8540 C.3   123  LYS123      0.0298
    138  CG        52.7740   38.3930   47.5180 C.3   123  LYS123      0.0038
    139  CD        51.8430   37.4680   46.7370 C.3   123  LYS123      0.0206
    140  CE        52.4370   37.0880   45.3900 C.3   123  LYS123      0.1093
    141  NZ        51.4270   36.4420   44.5050 N.3   123  LYS123     -0.1314
    142  N         57.2670   39.7890   47.3300 N.3   130  TYR130     -0.1227
    143  CA        56.8100   40.4120   46.0930 C.3   130  TYR130      0.1736
    144  C         56.0220   41.6750   46.4000 C.2   130  TYR130      0.2595
    145  O         55.3030   41.7370   47.3960 O.2   130  TYR130     -0.2718
    146  CB        55.9070   39.4610   45.3070 C.3   130  TYR130      0.0548
    147  CG        56.5800   38.1860   44.8630 C.ar  130  TYR130     -0.0200
    148  CD1       56.3950   37.0020   45.5660 C.ar  130  TYR130     -0.0009
    149  CD2       57.3940   38.1610   43.7340 C.ar  130  TYR130     -0.0009
    150  CE1       57.0000   35.8300   45.1640 C.ar  130  TYR130      0.0417
    151  CE2       58.0090   36.9910   43.3240 C.ar  130  TYR130      0.0417
    152  CZ        57.8050   35.8260   44.0450 C.ar  130  TYR130      0.1957
    153  OH        58.4110   34.6520   43.6560 O.3   130  TYR130     -0.2866
    154  N         56.1640   42.6810   45.5420 N.am  131  PHE131     -0.1962
    155  CA        55.3120   43.8580   45.6010 C.3   131  PHE131      0.1771
    156  C         54.9300   44.3100   44.1980 C.2   131  PHE131      0.2619
    157  O         55.6640   44.0860   43.2380 O.2   131  PHE131     -0.2715
    158  CB        55.9740   44.9910   46.3920 C.3   131  PHE131      0.0574
    159  CG        57.1150   45.6590   45.6760 C.ar  131  PHE131     -0.0200
    160  CD1       58.3750   45.0710   45.6390 C.ar  131  PHE131     -0.0042
    161  CD2       56.9370   46.8880   45.0580 C.ar  131  PHE131     -0.0042
    162  CE1       59.4340   45.6940   44.9880 C.ar  131  PHE131     -0.0003
    163  CE2       57.9920   47.5140   44.4040 C.ar  131  PHE131     -0.0003
    164  CZ        59.2410   46.9140   44.3700 C.ar  131  PHE131     -0.0000
    165  N         53.7560   44.9170   44.0830 N.am  132  LYS132     -0.1977
    166  CA        53.3300   45.5140   42.8260 C.3   132  LYS132      0.1596
    167  C         52.5170   46.7740   43.0680 C.2   132  LYS132      0.2287
    168  O         51.9780   46.9790   44.1520 O.2   132  LYS132     -0.2864
    169  CB        52.5320   44.5160   41.9770 C.3   132  LYS132      0.0298
    170  CG        51.2240   44.0410   42.5770 C.3   132  LYS132      0.0038
    171  CD        50.4470   43.1980   41.5770 C.3   132  LYS132      0.0206
    172  CE        49.0630   42.8370   42.0980 C.3   132  LYS132      0.1093
    173  NZ        48.3300   41.9270   41.1590 N.3   132  LYS132     -0.1314
@<TRIPOS>BOND
     1    22    23    1
     2    25    24    2
     3    24    23    1
     4    59    60    2
     5    59    58    1
     6    23    26    1
     7    58    57    1
     8    58    61    1
     9    26    27    1
    10    61    62    1
    11    66    65    1
    12    62    63    1
    13    27    28    1
    14    51    52    2
    15    51    50    1
    16    65    67    1
    17    65    64    2
    18    63    64    1
    19    28    29    2
    20    28    30   am
    21    31    32    1
    22    50    53    1
    23    50    49    1
    24    32    35    1
    25    32    33    1
    26    53    54    1
    27    34    33    2
    28    35    36    1
    29    37    36   ar
    30    37    39   ar
    31    54    56    1
    32    54    55    1
    33    36    38   ar
    34     1     2    1
    35     4     3    2
    36    20    18    1
    37    16    17    2
    38    16    15    1
    39     5     2    1
    40     5     6    1
    41    39    41   ar
    42     7     6    1
    43     2     3    1
    44    38    40   ar
    45     6     8    1
    46    15    18    1
    47    15    14    1
    48    18    19    1
    49    41    40   ar
    50    41    42    1
    51    21    19    1
    52    12    11    2
    53    45    46    2
    54    45    44    1
    55    14    11   am
    56    11    10    1
    57    44    47    1
    58    44    43    1
    59    47    48    1
    60    68    69    1
    61    10     9    1
    62    10    13    1
    63    72    69    1
    64    72    73    1
    65    69    70    1
    66   173   172    1
    67    74    73   ar
    68    74    76   ar
    69    73    75   ar
    70   171   172    1
    71   171   170    1
    72    71    70    2
    73   169   170    1
    74   169   166    1
    75    76    77   ar
    76    91    90    1
    77    75    78   ar
    78    75    77   ar
    79   166   167    1
    80   166   165    1
    81    92    90    1
    82   167   168    2
    83   157   156    2
    84   151   149   ar
    85   151   152   ar
    86    78    80   ar
    87    77    79   ar
    88    90    89    2
    89   153   152    1
    90   149   147   ar
    91   122   120   ar
    92   122   123   ar
    93   152   150   ar
    94   165   156   am
    95   156   155    1
    96   164   163   ar
    97   164   162   ar
    98   163   161   ar
    99   120   118   ar
   100   141   140    1
   101   123   121   ar
   102    89    88    1
   103    80    81   ar
   104    79    81   ar
   105   147   146    1
   106   147   148   ar
   107   162   160   ar
   108   161   159   ar
   109   150   148   ar
   110    88    87    1
   111   146   143    1
   112   140   139    1
   113   118   117    1
   114   118   119   ar
   115   121   119   ar
   116   154   155    1
   117   154   144   am
   118   155   158    1
   119   160   159   ar
   120   159   158    1
   121    82    83    1
   122   117   114    1
   123   143   144    1
   124   143   142    1
   125   144   145    2
   126   113   114    1
   127   112   111    1
   128   139   138    1
   129    87    86    1
   130   116   115    2
   131   114   115    1
   132    86    83    1
   133    83    84    1
   134   115   124   am
   135   138   137    1
   136    85    84    2
   137   111   110   ar
   138   111   109   ar
   139   110   108   ar
   140   124   125    1
   141   137   134    1
   142   109   107   ar
   143   125   126    1
   144   125   128    1
   145   133   126   am
   146   133   134    1
   147   136   135    2
   148   108   106   ar
   149   126   127    2
   150   134   135    1
   151   128   129    1
   152   100    98    1
   153    99    98    1
   154   107   106   ar
   155   129   130    1
   156   106   105    1
   157    98    97    1
   158    97    94    1
   159   130   131    1
   160    93    94    1
   161    94    95    1
   162   105   102    1
   163   102   103    1
   164   102   101    1
   165   103   104    2
   166   131   132    1
   167    95    96    2
