@<TRIPOS>MOLECULE
tmp/3k3oA00.pdb
 122 114 0 0 0
SMALL
GASTEIGER

@<TRIPOS>ATOM
      1  N          0.3530   -8.3080  -22.0280 N.3    98  ASN98      -0.1240
      2  CA        -1.1090   -8.2340  -22.0830 C.3    98  ASN98       0.1653
      3  C         -1.5670   -6.9310  -22.7380 C.2    98  ASN98       0.2266
      4  O         -1.1150   -5.8520  -22.3600 O.2    98  ASN98      -0.2867
      5  CB        -1.6860   -8.3520  -20.6570 C.3    98  ASN98       0.1155
      6  CG        -3.1810   -8.6850  -20.6300 C.2    98  ASN98       0.2627
      7  OD1       -3.8140   -8.9160  -21.6650 O.2    98  ASN98      -0.2716
      8  ND2       -3.7480   -8.7150  -19.4260 N.am   98  ASN98      -0.0877
      9  N         -4.9250   -4.7640  -23.2610 N.3   100  ILE100     -0.1245
     10  CA        -6.3100   -4.6310  -22.8270 C.3   100  ILE100      0.1561
     11  C         -6.9200   -3.2700  -23.1570 C.2   100  ILE100      0.2260
     12  O         -8.1140   -3.0650  -22.9610 O.2   100  ILE100     -0.2867
     13  CB        -6.4760   -4.9320  -21.3050 C.3   100  ILE100      0.0252
     14  CG1       -5.5280   -4.0690  -20.4580 C.3   100  ILE100      0.0019
     15  CG2       -6.2730   -6.4240  -21.0290 C.3   100  ILE100      0.0019
     16  CD1       -5.7490   -4.2050  -18.9480 C.3   100  ILE100      0.0001
     17  N         -8.9720   -6.8530  -27.0550 N.3   145  LEU145     -0.1245
     18  CA        -8.1560   -7.4420  -26.0070 C.3   145  LEU145      0.1561
     19  C         -7.4190   -8.6520  -26.5340 C.2   145  LEU145      0.2260
     20  O         -8.0210   -9.5570  -27.1180 O.2   145  LEU145     -0.2867
     21  CB        -8.9940   -7.8220  -24.7820 C.3   145  LEU145      0.0270
     22  CG        -9.6020   -6.6560  -24.0030 C.3   145  LEU145      0.0019
     23  CD1      -10.9290   -6.2370  -24.6400 C.3   145  LEU145      0.0001
     24  CD2       -9.7940   -7.0330  -22.5360 C.3   145  LEU145      0.0001
     25  N         -1.8630  -14.4290  -18.4280 N.3   151  SER151     -0.1217
     26  CA        -2.0980  -12.9910  -18.2360 C.3   151  SER151      0.1889
     27  C         -2.9420  -12.7800  -16.9930 C.2   151  SER151      0.2288
     28  O         -3.8500  -13.5660  -16.7160 O.2   151  SER151     -0.2866
     29  CB        -2.8110  -12.3680  -19.4350 C.3   151  SER151      0.2089
     30  OG        -1.8820  -11.8090  -20.3470 O.3   151  SER151     -0.2183
     31  N         -4.7170   -9.4130  -14.6980 N.3   153  THR153     -0.1218
     32  CA        -4.9590   -8.0350  -14.2920 C.3   153  THR153      0.1862
     33  C         -5.5510   -8.0850  -12.8930 C.2   153  THR153      0.2287
     34  O         -6.5490   -8.7760  -12.6630 O.2   153  THR153     -0.2866
     35  CB        -5.9390   -7.3020  -15.2440 C.3   153  THR153      0.1770
     36  OG1       -5.5290   -7.4890  -16.6030 O.3   153  THR153     -0.2211
     37  CG2       -5.9540   -5.8000  -14.9390 C.3   153  THR153      0.0375
     38  N         -9.6050   -4.3360   -9.7000 N.3   156  HIS156     -0.1241
     39  CA        -9.8210   -2.9450  -10.0750 C.3   156  HIS156      0.1621
     40  C        -11.3150   -2.7080  -10.2180 C.2   156  HIS156      0.2264
     41  O        -12.0960   -3.6580  -10.3240 O.2   156  HIS156     -0.2867
     42  CB        -9.1030   -2.5970  -11.4060 C.3   156  HIS156      0.0745
     43  CG        -9.6150   -3.3370  -12.6200 C.ar  156  HIS156      0.0817
     44  ND1       -9.1070   -4.5560  -13.0180 N.ar  156  HIS156     -0.2268
     45  CD2      -10.5480   -3.0040  -13.5520 C.ar  156  HIS156      0.1154
     46  CE1       -9.7200   -4.9490  -14.1270 C.ar  156  HIS156      0.1986
     47  NE2      -10.6010   -4.0270  -14.4750 N.ar  156  HIS156     -0.2212
     48  N        -13.5880   -0.4500  -12.9530 N.3   158  ASP158     -0.1225
     49  CA       -13.3590    0.1610  -14.2720 C.3   158  ASP158      0.1805
     50  C        -13.5150    1.6740  -14.1750 C.2   158  ASP158      0.2597
     51  O        -14.3240    2.1770  -13.3840 O.2   158  ASP158     -0.2718
     52  CB       -14.2880   -0.4190  -15.3380 C.3   158  ASP158      0.1424
     53  CG       -13.9000   -1.8490  -15.7580 C.2   158  ASP158      0.3668
     54  OD1      -12.8030   -2.3470  -15.4000 O.co2 158  ASP158     -0.2456
     55  OD2      -14.7140   -2.4890  -16.4460 O.co2 158  ASP158     -0.2456
     56  N        -12.7060    2.3800  -14.9600 N.am  159  PHE159     -0.1976
     57  CA       -12.6520    3.8350  -14.9520 C.3   159  PHE159      0.1639
     58  C        -14.0220    4.4830  -15.0800 C.2   159  PHE159      0.2290
     59  O        -14.9200    3.9740  -15.7660 O.2   159  PHE159     -0.2864
     60  CB       -11.6950    4.3580  -16.0450 C.3   159  PHE159      0.0560
     61  CG       -12.0360    3.8950  -17.4430 C.ar  159  PHE159     -0.0200
     62  CD1      -12.8140    4.6840  -18.2800 C.ar  159  PHE159     -0.0042
     63  CD2      -11.5690    2.6700  -17.9280 C.ar  159  PHE159     -0.0042
     64  CE1      -13.1340    4.2690  -19.5820 C.ar  159  PHE159     -0.0003
     65  CE2      -11.8880    2.2400  -19.2310 C.ar  159  PHE159     -0.0003
     66  CZ       -12.6740    3.0460  -20.0550 C.ar  159  PHE159     -0.0000
     67  N        -17.8700   -7.8740  -22.4230 N.3   166  TYR166     -0.1241
     68  CA       -16.7540   -8.5740  -23.0270 C.3   166  TYR166      0.1605
     69  C        -17.2920   -9.7550  -23.7960 C.2   166  TYR166      0.2264
     70  O        -18.0700  -10.5530  -23.2590 O.2   166  TYR166     -0.2867
     71  CB       -15.7780   -9.0760  -21.9610 C.3   166  TYR166      0.0534
     72  CG       -14.9270   -7.9930  -21.3460 C.ar  166  TYR166     -0.0201
     73  CD1      -14.0040   -7.2950  -22.1160 C.ar  166  TYR166     -0.0009
     74  CD2      -15.0470   -7.6680  -19.9980 C.ar  166  TYR166     -0.0009
     75  CE1      -13.2270   -6.2930  -21.5680 C.ar  166  TYR166      0.0417
     76  CE2      -14.2580   -6.6710  -19.4310 C.ar  166  TYR166      0.0417
     77  CZ       -13.3490   -5.9890  -20.2260 C.ar  166  TYR166      0.1957
     78  OH       -12.5570   -4.9880  -19.7010 O.3   166  TYR166     -0.2866
     79  N        -11.2670  -16.3340  -20.6690 N.3   173  LYS173     -0.1245
     80  CA       -10.9280  -15.4390  -19.5800 C.3   173  LYS173      0.1561
     81  C        -11.6870  -15.8650  -18.3380 C.2   173  LYS173      0.2260
     82  O        -12.8230  -16.3440  -18.4290 O.2   173  LYS173     -0.2867
     83  CB       -11.2390  -13.9860  -19.9430 C.3   173  LYS173      0.0271
     84  CG       -10.1320  -13.3340  -20.7690 C.3   173  LYS173      0.0035
     85  CD       -10.4060  -11.8710  -21.0530 C.3   173  LYS173      0.0206
     86  CE        -9.2770  -11.2590  -21.8670 C.3   173  LYS173      0.1093
     87  NZ        -8.0250  -11.1980  -21.0650 N.3   173  LYS173     -0.1314
     88  N        -12.9400  -14.2570  -14.8040 N.3   175  PHE175     -0.1241
     89  CA       -13.1350  -13.0660  -14.0010 C.3   175  PHE175      0.1605
     90  C        -13.3560  -13.4550  -12.5600 C.2   175  PHE175      0.2264
     91  O        -14.0810  -14.4090  -12.2760 O.2   175  PHE175     -0.2867
     92  CB       -14.3120  -12.2480  -14.5330 C.3   175  PHE175      0.0534
     93  CG       -14.0220  -11.5610  -15.8410 C.ar  175  PHE175     -0.0203
     94  CD1      -13.9550  -12.2900  -17.0320 C.ar  175  PHE175     -0.0042
     95  CD2      -13.7960  -10.1900  -15.8810 C.ar  175  PHE175     -0.0042
     96  CE1      -13.6900  -11.6570  -18.2480 C.ar  175  PHE175     -0.0003
     97  CE2      -13.5300   -9.5440  -17.0940 C.ar  175  PHE175     -0.0003
     98  CZ       -13.4800  -10.2780  -18.2750 C.ar  175  PHE175     -0.0000
     99  N        -13.1270   -6.3910   -9.9130 N.3   228  HIS228     -0.1241
    100  CA       -12.8250   -7.5800  -10.6790 C.3   228  HIS228      0.1621
    101  C        -11.3500   -7.7120  -11.0160 C.2   228  HIS228      0.2264
    102  O        -10.6850   -6.7250  -11.2990 O.2   228  HIS228     -0.2867
    103  CB       -13.6900   -7.6810  -11.9570 C.3   228  HIS228      0.0745
    104  CG       -13.5140   -6.5390  -12.9170 C.ar  228  HIS228      0.0817
    105  ND1      -14.0890   -5.3020  -12.7160 N.ar  228  HIS228     -0.2268
    106  CD2      -12.8320   -6.4520  -14.0890 C.ar  228  HIS228      0.1154
    107  CE1      -13.7710   -4.5060  -13.7250 C.ar  228  HIS228      0.1986
    108  NE2      -13.0030   -5.1750  -14.5700 N.ar  228  HIS228     -0.2212
    109  N         -8.7720  -10.4750  -13.4700 N.3   230  VAL230     -0.1245
    110  CA        -8.9040  -11.3430  -14.6440 C.3   230  VAL230      0.1561
    111  C         -7.6790  -12.2160  -14.8840 C.2   230  VAL230      0.2260
    112  O         -6.5620  -11.7080  -14.9900 O.2   230  VAL230     -0.2867
    113  CB        -9.1860  -10.5340  -15.9380 C.3   230  VAL230      0.0252
    114  CG1       -9.6140  -11.4740  -17.0720 C.3   230  VAL230      0.0019
    115  CG2      -10.2520   -9.4710  -15.6940 C.3   230  VAL230      0.0019
    116  N         -6.1490  -15.1130  -17.6110 N.3   232  THR232     -0.1218
    117  CA        -6.2920  -15.6880  -18.9380 C.3   232  THR232      0.1862
    118  C         -5.5750  -17.0460  -18.9810 C.2   232  THR232      0.2287
    119  O         -4.3520  -17.0970  -19.1650 O.2   232  THR232     -0.2866
    120  CB        -5.7420  -14.7080  -20.0040 C.3   232  THR232      0.1770
    121  OG1       -6.4400  -13.4580  -19.8950 O.3   232  THR232     -0.2211
    122  CG2       -5.9070  -15.2690  -21.4240 C.3   232  THR232      0.0375
@<TRIPOS>BOND
     1    20    19    2
     2    17    18    1
     3    19    18    1
     4    18    21    1
     5    21    22    1
     6    23    22    1
     7    22    24    1
     8    69    70    2
     9    69    68    1
    10     9    10    1
    11    11    12    2
    12    11    10    1
    13    68    67    1
    14    68    71    1
    15    10    13    1
    16     3     4    2
    17     3     2    1
    18    73    75   ar
    19    73    72   ar
    20     2     1    1
    21     2     5    1
    22    71    72    1
    23    86    87    1
    24    86    85    1
    25     7     6    2
    26    75    77   ar
    27   122   120    1
    28    72    74   ar
    29    13    15    1
    30    13    14    1
    31    85    84    1
    32    84    83    1
    33    79    80    1
    34     5     6    1
    35     6     8   am
    36    14    16    1
    37    30    29    1
    38    77    78    1
    39    77    76   ar
    40    66    64   ar
    41    66    65   ar
    42   120   121    1
    43   120   117    1
    44    74    76   ar
    45    83    80    1
    46    64    62   ar
    47    80    81    1
    48    29    26    1
    49    65    63   ar
    50   119   118    2
    51   118   117    1
    52   117   116    1
    53    82    81    2
    54    25    26    1
    55    62    61   ar
    56    98    96   ar
    57    98    97   ar
    58    96    94   ar
    59    26    27    1
    60    63    61   ar
    61    61    60    1
    62    97    95   ar
    63   114   113    1
    64    94    93   ar
    65    27    28    2
    66    36    35    1
    67    55    53   ar
    68    60    57    1
    69   113   115    1
    70   113   110    1
    71    95    93   ar
    72    93    92    1
    73    59    58    2
    74    53    54   ar
    75    53    52    1
    76    52    49    1
    77    35    37    1
    78    35    32    1
    79    58    57    1
    80   112   111    2
    81    56    57    1
    82    56    50   am
    83   111   110    1
    84    88    89    1
    85    31    32    1
    86   110   109    1
    87   108   106   ar
    88   108   107   ar
    89    92    89    1
    90    47    46   ar
    91    47    45   ar
    92    32    33    1
    93    49    50    1
    94    49    48    1
    95    50    51    2
    96    46    44   ar
    97   106   104   ar
    98    89    90    1
    99   107   105   ar
   100    45    43   ar
   101    44    43   ar
   102   104   105   ar
   103   104   103    1
   104    33    34    2
   105    43    42    1
   106    90    91    2
   107   103   100    1
   108    42    39    1
   109   102   101    2
   110   101   100    1
   111   100    99    1
   112    41    40    2
   113    40    39    1
   114    39    38    1
