@<TRIPOS>MOLECULE
tmp/3k3uB00.pdb
 188 183 0 0 0
SMALL
GASTEIGER

@<TRIPOS>ATOM
      1  N          9.2670   39.3590  -14.2920 N.3    24  PHE24      -0.1241
      2  CA        10.3060   38.3900  -14.6280 C.3    24  PHE24       0.1605
      3  C         11.1170   38.8650  -15.8420 C.2    24  PHE24       0.2264
      4  O         12.3410   38.9190  -15.7800 O.2    24  PHE24      -0.2867
      5  CB         9.6600   37.0000  -14.8610 C.3    24  PHE24       0.0534
      6  CG        10.5630   35.9780  -15.4980 C.ar   24  PHE24      -0.0203
      7  CD1       11.6860   35.5020  -14.8290 C.ar   24  PHE24      -0.0042
      8  CD2       10.2460   35.4530  -16.7470 C.ar   24  PHE24      -0.0042
      9  CE1       12.4880   34.5480  -15.4210 C.ar   24  PHE24      -0.0003
     10  CE2       11.0450   34.4740  -17.3380 C.ar   24  PHE24      -0.0003
     11  CZ        12.1720   34.0320  -16.6680 C.ar   24  PHE24      -0.0000
     12  N         16.0470   36.5750  -20.7790 N.3    31  GLU31      -0.1245
     13  CA        15.1040   35.4450  -20.7770 C.3    31  GLU31       0.1567
     14  C         14.1050   35.5040  -21.9390 C.2    31  GLU31       0.2260
     15  O         13.4480   34.5130  -22.2520 O.2    31  GLU31      -0.2867
     16  CB        14.3520   35.3510  -19.4480 C.3    31  GLU31       0.0388
     17  CG        15.2250   34.9710  -18.2560 C.3    31  GLU31       0.1160
     18  CD        15.6270   33.5110  -18.2560 C.2    31  GLU31       0.3649
     19  OE1       16.7320   33.2010  -17.7570 O.co2  31  GLU31      -0.2457
     20  OE2       14.8430   32.6750  -18.7430 O.co2  31  GLU31      -0.2457
     21  N         14.0000   32.8680  -24.9820 N.3    34  TYR34      -0.1227
     22  CA        13.2790   31.5990  -24.9580 C.3    34  TYR34       0.1736
     23  C         11.9080   31.7180  -25.5940 C.2    34  TYR34       0.2595
     24  O         11.2500   30.7050  -25.8760 O.2    34  TYR34      -0.2718
     25  CB        13.1580   31.0880  -23.5270 C.3    34  TYR34       0.0548
     26  CG        14.5020   30.7340  -22.9470 C.ar   34  TYR34      -0.0200
     27  CD1       15.1370   29.5390  -23.3020 C.ar   34  TYR34      -0.0009
     28  CD2       15.1600   31.6030  -22.0820 C.ar   34  TYR34      -0.0009
     29  CE1       16.3800   29.2090  -22.7940 C.ar   34  TYR34       0.0417
     30  CE2       16.4180   31.2820  -21.5630 C.ar   34  TYR34       0.0417
     31  CZ        17.0130   30.0770  -21.9200 C.ar   34  TYR34       0.1957
     32  OH        18.2520   29.7530  -21.4060 O.3    34  TYR34      -0.2866
     33  N         11.5250   32.9490  -25.9680 N.am   35  PHE35      -0.1976
     34  CA        10.2030   33.2480  -26.5770 C.3    35  PHE35       0.1639
     35  C         10.2690   33.8560  -27.9970 C.2    35  PHE35       0.2290
     36  O         11.3550   34.2330  -28.4620 O.2    35  PHE35      -0.2864
     37  CB         9.4080   34.1710  -25.6410 C.3    35  PHE35       0.0560
     38  CG         9.3020   33.6540  -24.2330 C.ar   35  PHE35      -0.0200
     39  CD1       10.2750   33.9550  -23.2900 C.ar   35  PHE35      -0.0042
     40  CD2        8.2330   32.8520  -23.8560 C.ar   35  PHE35      -0.0042
     41  CE1       10.1870   33.4640  -21.9950 C.ar   35  PHE35      -0.0003
     42  CE2        8.1370   32.3630  -22.5690 C.ar   35  PHE35      -0.0003
     43  CZ         9.1170   32.6680  -21.6360 C.ar   35  PHE35      -0.0000
     44  N         -1.0760   33.0590  -23.4800 N.3    55  HIS55      -0.1241
     45  CA        -0.0310   32.1010  -23.1460 C.3    55  HIS55       0.1621
     46  C          0.4040   32.2480  -21.6840 C.2    55  HIS55       0.2264
     47  O          0.7000   31.2500  -21.0250 O.2    55  HIS55      -0.2867
     48  CB         1.1660   32.2170  -24.1080 C.3    55  HIS55       0.0745
     49  CG         0.9160   31.6280  -25.4650 C.ar   55  HIS55       0.0817
     50  ND1       -0.3000   31.7200  -26.1070 N.ar   55  HIS55      -0.2268
     51  CD2        1.7320   30.9470  -26.3060 C.ar   55  HIS55       0.1154
     52  CE1       -0.2240   31.1220  -27.2830 C.ar   55  HIS55       0.1986
     53  NE2        0.9980   30.6450  -27.4280 N.ar   55  HIS55      -0.2212
     54  N         -2.2440   30.6180  -19.5180 N.3    58  LYS58      -0.1231
     55  CA        -2.1800   29.1600  -19.5060 C.3    58  LYS58       0.1693
     56  C         -1.0130   28.6560  -18.6280 C.2    58  LYS58       0.2592
     57  O         -1.1510   27.6530  -17.9180 O.2    58  LYS58      -0.2718
     58  CB        -2.1410   28.6050  -20.9290 C.3    58  LYS58       0.0285
     59  CG        -3.4230   28.9050  -21.7190 C.3    58  LYS58       0.0035
     60  CD        -3.5120   28.0910  -23.0090 C.3    58  LYS58       0.0206
     61  CE        -3.4500   26.6070  -22.7240 C.3    58  LYS58       0.1093
     62  NZ        -3.4730   25.7920  -23.9650 N.3    58  LYS58      -0.1314
     63  N          0.0970   29.3800  -18.6090 N.am   59  TRP59      -0.1976
     64  CA         1.1880   28.9820  -17.7500 C.3    59  TRP59       0.1640
     65  C          0.8270   29.1820  -16.2660 C.2    59  TRP59       0.2290
     66  O          1.0290   28.2730  -15.4540 O.2    59  TRP59      -0.2864
     67  CB         2.4770   29.6730  -18.1750 C.3    59  TRP59       0.0576
     68  CG         3.3340   30.0700  -17.0700 C.ar   59  TRP59       0.0006
     69  CD1        3.4630   29.4570  -15.8700 C.ar   59  TRP59       0.0946
     70  CD2        4.2150   31.1910  -17.0560 C.ar   59  TRP59       0.0152
     71  NE1        4.3710   30.1390  -15.0910 N.ar   59  TRP59      -0.2442
     72  CE2        4.8490   31.2060  -15.8050 C.ar   59  TRP59       0.0810
     73  CE3        4.5310   32.1780  -17.9880 C.ar   59  TRP59       0.0012
     74  CZ2        5.7720   32.1800  -15.4570 C.ar   59  TRP59       0.0191
     75  CZ3        5.4400   33.1360  -17.6430 C.ar   59  TRP59       0.0001
     76  CH2        6.0520   33.1370  -16.3850 C.ar   59  TRP59       0.0015
     77  N         -1.6520   26.5370  -14.9180 N.3    62  LEU62      -0.1231
     78  CA        -1.0110   25.2990  -14.5450 C.3    62  LEU62       0.1693
     79  C         -0.1850   25.5140  -13.3020 C.2    62  LEU62       0.2591
     80  O         -0.1840   24.6570  -12.4090 O.2    62  LEU62      -0.2718
     81  CB        -0.1780   24.7250  -15.6970 C.3    62  LEU62       0.0284
     82  CG         0.5610   23.4180  -15.3800 C.3    62  LEU62       0.0019
     83  CD1       -0.3650   22.3190  -14.8850 C.3    62  LEU62       0.0001
     84  CD2        1.3210   22.9600  -16.6280 C.3    62  LEU62       0.0001
     85  N          0.4940   26.6600  -13.2060 N.am   63  MET63      -0.1979
     86  CA         1.2710   26.8960  -11.9740 C.3    63  MET63       0.1605
     87  C          0.3780   26.8210  -10.7300 C.2    63  MET63       0.2287
     88  O          0.7800   26.2560   -9.7060 O.2    63  MET63      -0.2864
     89  CB         2.0290   28.2240  -11.9880 C.3    63  MET63       0.0413
     90  CG         3.0160   28.2940  -10.8190 C.3    63  MET63       0.0598
     91  SD         3.5690   29.9970  -10.5430 S.3    63  MET63      -0.1393
     92  CE         4.4890   30.2460  -12.0390 C.3    63  MET63       0.0692
     93  N         -0.4380   23.2660   -9.9030 N.3    66  VAL66      -0.1245
     94  CA         0.7240   22.6080   -9.2930 C.3    66  VAL66       0.1561
     95  C          0.8160   23.0160   -7.8070 C.2    66  VAL66       0.2260
     96  O          0.9880   22.1720   -6.9110 O.2    66  VAL66      -0.2867
     97  CB         2.0420   22.8820  -10.0880 C.3    66  VAL66       0.0252
     98  CG1        3.2560   22.2600   -9.3780 C.3    66  VAL66       0.0019
     99  CG2        1.9460   22.3120  -11.5080 C.3    66  VAL66       0.0019
    100  N          6.3050   19.1510  -16.3000 N.3    83  LEU83      -0.1245
    101  CA         7.0270   20.3870  -16.6280 C.3    83  LEU83       0.1561
    102  C          8.3810   20.1300  -17.2920 C.2    83  LEU83       0.2260
    103  O          8.8100   20.8980  -18.1550 O.2    83  LEU83      -0.2867
    104  CB         7.2020   21.2600  -15.3780 C.3    83  LEU83       0.0270
    105  CG         5.8850   21.7260  -14.7580 C.3    83  LEU83       0.0019
    106  CD1        6.1470   22.3550  -13.4050 C.3    83  LEU83       0.0001
    107  CD2        5.1900   22.7220  -15.6830 C.3    83  LEU83       0.0001
    108  N          7.5210   18.5640  -21.1310 N.3    86  MET86      -0.1245
    109  CA         6.8480   19.4400  -22.0970 C.3    86  MET86       0.1570
    110  C          7.8110   19.8850  -23.1870 C.2    86  MET86       0.2261
    111  O          8.8880   20.3980  -22.8890 O.2    86  MET86      -0.2867
    112  CB         6.3280   20.6920  -21.3900 C.3    86  MET86       0.0387
    113  CG         4.9630   20.5550  -20.8060 C.3    86  MET86       0.0595
    114  SD         4.6550   21.9710  -19.7110 S.3    86  MET86      -0.1393
    115  CE         4.6370   23.3120  -20.9010 C.3    86  MET86       0.0692
    116  N          7.6970   22.3700  -25.0100 N.3    88  GLN88      -0.1231
    117  CA         7.9070   23.8150  -24.9340 C.3    88  GLN88       0.1698
    118  C          8.9860   24.1850  -23.9260 C.2    88  GLN88       0.2592
    119  O          9.4960   25.3110  -23.9420 O.2    88  GLN88      -0.2718
    120  CB         6.5960   24.5430  -24.6310 C.3    88  GLN88       0.0381
    121  CG         5.6710   24.6770  -25.8440 C.3    88  GLN88       0.0905
    122  CD         4.2220   24.9390  -25.4530 C.2    88  GLN88       0.2608
    123  OE1        3.6330   24.1790  -24.6850 O.2    88  GLN88      -0.2717
    124  NE2        3.6380   26.0140  -25.9880 N.am   88  GLN88      -0.0878
    125  N          9.3550   23.2270  -23.0780 N.am   89  HIS89      -0.1976
    126  CA        10.3660   23.4490  -22.0700 C.3    89  HIS89       0.1656
    127  C         11.6760   22.7300  -22.3660 C.2    89  HIS89       0.2291
    128  O         12.5310   22.6230  -21.4900 O.2    89  HIS89      -0.2864
    129  CB         9.8360   22.9830  -20.7140 C.3    89  HIS89       0.0771
    130  CG         8.7800   23.8710  -20.1380 C.ar   89  HIS89       0.0820
    131  ND1        8.0690   23.5240  -19.0110 N.ar   89  HIS89      -0.2267
    132  CD2        8.3010   25.0760  -20.5360 C.ar   89  HIS89       0.1154
    133  CE1        7.2290   24.5000  -18.7100 C.ar   89  HIS89       0.1986
    134  NE2        7.3420   25.4500  -19.6200 N.ar   89  HIS89      -0.2212
    135  N         15.0530   24.4950  -21.5030 N.3    92  LEU92      -0.1245
    136  CA        15.2000   25.0440  -20.1430 C.3    92  LEU92       0.1561
    137  C         16.0760   24.2380  -19.2170 C.2    92  LEU92       0.2260
    138  O         16.2620   23.0380  -19.4110 O.2    92  LEU92      -0.2867
    139  CB        13.8390   25.2530  -19.4850 C.3    92  LEU92       0.0270
    140  CG        12.8320   26.0510  -20.3310 C.3    92  LEU92       0.0019
    141  CD1       11.5110   26.2130  -19.6180 C.3    92  LEU92       0.0001
    142  CD2       13.4510   27.4040  -20.7050 C.3    92  LEU92       0.0001
    143  N         16.3140   28.7050  -15.0790 N.3    96  ASN96      -0.1225
    144  CA        15.2140   29.5080  -15.6030 C.3    96  ASN96       0.1785
    145  C         14.1030   29.6170  -14.5760 C.2    96  ASN96       0.2597
    146  O         13.5220   30.6940  -14.3800 O.2    96  ASN96      -0.2718
    147  CB        14.6690   28.9290  -16.9060 C.3    96  ASN96       0.1169
    148  CG        15.7110   28.8980  -18.0000 C.2    96  ASN96       0.2627
    149  OD1       16.2480   27.8400  -18.3290 O.2    96  ASN96      -0.2716
    150  ND2       16.0160   30.0650  -18.5610 N.am   96  ASN96      -0.0877
    151  N         13.7980   28.4880  -13.9460 N.am   97  PHE97      -0.1976
    152  CA        12.7520   28.4460  -12.9290 C.3    97  PHE97       0.1639
    153  C         13.1490   29.2040  -11.6780 C.2    97  PHE97       0.2290
    154  O         12.3200   29.8820  -11.0840 O.2    97  PHE97      -0.2864
    155  CB        12.3930   26.9870  -12.6110 C.3    97  PHE97       0.0560
    156  CG        11.6820   26.3140  -13.7260 C.ar   97  PHE97      -0.0200
    157  CD1       10.2820   26.2130  -13.7210 C.ar   97  PHE97      -0.0042
    158  CD2       12.4040   25.7980  -14.8090 C.ar   97  PHE97      -0.0042
    159  CE1        9.6110   25.5880  -14.7700 C.ar   97  PHE97      -0.0003
    160  CE2       11.7440   25.1810  -15.8670 C.ar   97  PHE97      -0.0003
    161  CZ        10.3350   25.0750  -15.8490 C.ar   97  PHE97      -0.0000
    162  N         12.5770   32.8080  -12.3360 N.3   100  LEU100     -0.1231
    163  CA        11.1460   33.1060  -12.3110 C.3   100  LEU100      0.1693
    164  C         10.6650   33.2890  -10.8670 C.2   100  LEU100      0.2592
    165  O          9.9300   34.2320  -10.5570 O.2   100  LEU100     -0.2718
    166  CB        10.3470   31.9970  -13.0000 C.3   100  LEU100      0.0284
    167  CG         8.8230   32.1230  -12.8250 C.3   100  LEU100      0.0019
    168  CD1        8.2850   33.4350  -13.4460 C.3   100  LEU100      0.0001
    169  CD2        8.1200   30.9050  -13.3980 C.3   100  LEU100      0.0001
    170  N         11.0890   32.3850   -9.9910 N.am  101  PHE101     -0.1976
    171  CA        10.6550   32.4800   -8.6040 C.3   101  PHE101      0.1639
    172  C         11.2720   33.6150   -7.8140 C.2   101  PHE101      0.2290
    173  O         10.6110   34.1680   -6.9320 O.2   101  PHE101     -0.2864
    174  CB        10.7490   31.1200   -7.8910 C.3   101  PHE101      0.0560
    175  CG         9.6330   30.2110   -8.2610 C.ar  101  PHE101     -0.0200
    176  CD1        9.8070   29.2430   -9.2300 C.ar  101  PHE101     -0.0042
    177  CD2        8.3690   30.3750   -7.6970 C.ar  101  PHE101     -0.0042
    178  CE1        8.7560   28.4270   -9.6040 C.ar  101  PHE101     -0.0003
    179  CE2        7.3160   29.5600   -8.0740 C.ar  101  PHE101     -0.0003
    180  CZ         7.5190   28.5890   -9.0280 C.ar  101  PHE101     -0.0000
    181  N          9.9010   23.1140   -5.9740 N.3   127  LEU127     -0.1245
    182  CA         9.6370   22.8040   -7.3810 C.3   127  LEU127      0.1561
    183  C         10.9430   22.5970   -8.1290 C.2   127  LEU127      0.2260
    184  O         11.0750   21.6420   -8.8950 O.2   127  LEU127     -0.2867
    185  CB         8.7840   23.8830   -8.0840 C.3   127  LEU127      0.0270
    186  CG         8.4080   23.5590   -9.5360 C.3   127  LEU127      0.0019
    187  CD1        7.6140   22.2290   -9.6900 C.3   127  LEU127      0.0001
    188  CD2        7.6120   24.7220  -10.1100 C.3   127  LEU127      0.0001
@<TRIPOS>BOND
     1    36    35    2
     2    35    34    1
     3    53    52   ar
     4    53    51   ar
     5    52    50   ar
     6    34    33    1
     7    34    37    1
     8    51    49   ar
     9    50    49   ar
    10   124   122   am
    11    33    23   am
    12    24    23    2
    13   121   122    1
    14   121   120    1
    15    37    38    1
    16    23    22    1
    17    49    48    1
    18   122   123    2
    19   116   117    1
    20    21    22    1
    21    22    25    1
    22   117   120    1
    23   117   118    1
    24    38    40   ar
    25    38    39   ar
    26    48    45    1
    27    62    61    1
    28   119   118    2
    29   118   125   am
    30    40    42   ar
    31    25    26    1
    32    44    45    1
    33    27    26   ar
    34    27    29   ar
    35    39    41   ar
    36   110   111    2
    37   110   109    1
    38    45    46    1
    39   125   126    1
    40    60    61    1
    41    60    59    1
    42    26    28   ar
    43    29    31   ar
    44    42    43   ar
    45   127   126    1
    46   127   128    2
    47    15    14    2
    48   109   112    1
    49   109   108    1
    50    28    30   ar
    51   126   129    1
    52    41    43   ar
    53    14    13    1
    54    31    30   ar
    55    31    32    1
    56    59    58    1
    57    46    47    2
    58   135   136    1
    59   112   113    1
    60    58    55    1
    61   115   114    1
    62   113   114    1
    63    12    13    1
    64    13    16    1
    65   129   130    1
    66   142   140    1
    67   132   130   ar
    68   132   134   ar
    69   140   141    1
    70   140   139    1
    71   136   139    1
    72   136   137    1
    73   130   131   ar
    74   134   133   ar
    75    54    55    1
    76    55    56    1
    77    16    17    1
    78   138   137    2
    79   131   133   ar
    80    20    18   ar
    81    56    63   am
    82    56    57    2
    83    63    64    1
    84   150   148   am
    85   149   148    2
    86    17    18    1
    87    18    19   ar
    88    67    64    1
    89    67    68    1
    90   103   102    2
    91   148   147    1
    92    73    75   ar
    93    73    70   ar
    94    64    65    1
    95    75    76   ar
    96    10     8   ar
    97    10    11   ar
    98   102   101    1
    99    68    70   ar
   100    68    69   ar
   101    70    72   ar
   102   147   144    1
   103     8     6   ar
   104    11     9   ar
   105   101   100    1
   106   101   104    1
   107    84    82    1
   108    76    74   ar
   109    65    66    2
   110    69    71   ar
   111   160   161   ar
   112   160   158   ar
   113   161   159   ar
   114     3     4    2
   115     3     2    1
   116    72    74   ar
   117    72    71   ar
   118    81    82    1
   119    81    78    1
   120   107   105    1
   121   144   143    1
   122   144   145    1
   123     6     5    1
   124     6     7   ar
   125     9     7   ar
   126    82    83    1
   127   104   105    1
   128    77    78    1
   129     5     2    1
   130   158   156   ar
   131   159   157   ar
   132   105   106    1
   133     2     1    1
   134   145   146    2
   135   145   151   am
   136    78    79    1
   137   151   152    1
   138   156   157   ar
   139   156   155    1
   140   168   167    1
   141   169   167    1
   142    79    85   am
   143    79    80    2
   144    85    86    1
   145   166   167    1
   146   166   163    1
   147   152   155    1
   148   152   153    1
   149   162   163    1
   150   163   164    1
   151    92    91    1
   152    89    86    1
   153    89    90    1
   154    86    87    1
   155   153   154    2
   156    99    97    1
   157   164   165    2
   158   164   170   am
   159    90    91    1
   160    87    88    2
   161   188   186    1
   162    97    98    1
   163    97    94    1
   164   170   171    1
   165    93    94    1
   166   187   186    1
   167   178   176   ar
   168   178   180   ar
   169   186   185    1
   170    94    95    1
   171   176   175   ar
   172   180   179   ar
   173   184   183    2
   174   171   174    1
   175   171   172    1
   176   175   174    1
   177   175   177   ar
   178   183   182    1
   179   185   182    1
   180   179   177   ar
   181   172   173    2
   182    95    96    2
   183   182   181    1
