@<TRIPOS>MOLECULE
tmp/3k45A01.pdb
 150 144 0 0 0
SMALL
GASTEIGER

@<TRIPOS>ATOM
      1  N          4.4820    0.5850   10.7650 N.3     7  ILE7       -0.1231
      2  CA         3.9980    1.8810   11.2540 C.3     7  ILE7        0.1692
      3  C          3.3590    1.6390   12.6050 C.2     7  ILE7        0.2592
      4  O          2.5930    0.6920   12.7620 O.2     7  ILE7       -0.2718
      5  CB         3.0490    2.5650   10.2180 C.3     7  ILE7        0.0266
      6  CG1        2.5930    3.9460   10.7000 C.3     7  ILE7        0.0019
      7  CG2        1.8420    1.6820    9.8990 C.3     7  ILE7        0.0020
      8  CD1        2.1090    4.8920    9.5510 C.3     7  ILE7        0.0001
      9  N          3.7030    2.4530   13.5980 N.am    8  VAL8       -0.1966
     10  CA         3.2070    2.2360   14.9640 C.3     8  VAL8        0.1727
     11  C          3.1800    3.5830   15.6690 C.2     8  VAL8        0.2616
     12  O          3.8960    4.5080   15.2540 O.2     8  VAL8       -0.2715
     13  CB         4.1700    1.2810   15.7530 C.3     8  VAL8        0.0290
     14  CG1        5.5170    1.9640   16.0450 C.3     8  VAL8        0.0023
     15  CG2        3.5310    0.7710   17.0810 C.3     8  VAL8        0.0023
     16  N          2.3840    3.6810   16.7290 N.am    9  ALA9       -0.1977
     17  CA         2.4500    4.8210   17.6650 C.3     9  ALA9        0.1597
     18  C          2.8500    4.2670   19.0530 C.2     9  ALA9        0.2287
     19  O          2.3080    3.2580   19.4990 O.2     9  ALA9       -0.2864
     20  CB         1.1150    5.5330   17.7200 C.3     9  ALA9        0.0319
     21  N         -5.8070    0.7880   22.4530 N.3    22  LEU22      -0.1245
     22  CA        -4.6700    1.6900   22.5400 C.3    22  LEU22       0.1561
     23  C         -4.5860    2.2460   23.9580 C.2    22  LEU22       0.2260
     24  O         -5.6020    2.3410   24.6350 O.2    22  LEU22      -0.2867
     25  CB        -4.7920    2.7880   21.4650 C.3    22  LEU22       0.0270
     26  CG        -4.8600    2.2020   20.0350 C.3    22  LEU22       0.0019
     27  CD1       -5.2090    3.2120   18.9550 C.3    22  LEU22       0.0001
     28  CD2       -3.5520    1.5190   19.6800 C.3    22  LEU22       0.0001
     29  N         -3.4050   11.8950   14.5900 N.3    30  GLU30      -0.1231
     30  CA        -2.4650   10.8020   14.4460 C.3    30  GLU30       0.1699
     31  C         -2.9940    9.7540   13.4630 C.2    30  GLU30       0.2592
     32  O         -2.2230    9.2850   12.5960 O.2    30  GLU30      -0.2718
     33  CB        -2.1780   10.1500   15.8100 C.3    30  GLU30       0.0402
     34  CG        -0.7810    9.5220   15.8990 C.3    30  GLU30       0.1161
     35  CD        -0.6690    8.1990   15.1250 C.2    30  GLU30       0.3649
     36  OE1        0.3670    7.9510   14.4990 O.co2  30  GLU30      -0.2457
     37  OE2       -1.6340    7.4240   15.1200 O.co2  30  GLU30      -0.2457
     38  N         -4.2810    9.3810   13.6000 N.am   31  PHE31      -0.1976
     39  CA        -4.9610    8.4460   12.6840 C.3    31  PHE31       0.1639
     40  C         -4.8340    8.9440   11.2260 C.2    31  PHE31       0.2290
     41  O         -4.4770    8.1740   10.3330 O.2    31  PHE31      -0.2864
     42  CB        -6.4660    8.2800   13.0130 C.3    31  PHE31       0.0560
     43  CG        -6.8160    7.1230   13.9500 C.ar   31  PHE31      -0.0200
     44  CD1       -6.2180    5.8620   13.8310 C.ar   31  PHE31      -0.0042
     45  CD2       -7.8290    7.2900   14.9050 C.ar   31  PHE31      -0.0042
     46  CE1       -6.5910    4.8070   14.6970 C.ar   31  PHE31      -0.0003
     47  CE2       -8.2030    6.2510   15.7670 C.ar   31  PHE31      -0.0003
     48  CZ        -7.5870    5.0010   15.6560 C.ar   31  PHE31      -0.0000
     49  N         -2.6310   10.6360    9.8510 N.3    33  TYR33      -0.1227
     50  CA        -1.2840   10.4060    9.3480 C.3    33  TYR33       0.1736
     51  C         -1.1320    8.9230    9.0000 C.2    33  TYR33       0.2595
     52  O         -0.5580    8.5820    7.9820 O.2    33  TYR33      -0.2718
     53  CB        -0.2450   10.7870   10.3990 C.3    33  TYR33       0.0548
     54  CG         1.2100   10.3920   10.0820 C.ar   33  TYR33      -0.0200
     55  CD1        1.8320    9.2940   10.7330 C.ar   33  TYR33      -0.0009
     56  CD2        1.9620   11.1110    9.1470 C.ar   33  TYR33      -0.0009
     57  CE1        3.1480    8.9470   10.4600 C.ar   33  TYR33       0.0417
     58  CE2        3.2970   10.7840    8.8640 C.ar   33  TYR33       0.0417
     59  CZ         3.8780    9.6720    9.5060 C.ar   33  TYR33       0.1957
     60  OH         5.1730    9.3440    9.2300 O.3    33  TYR33      -0.2866
     61  N         -1.5940    8.0400    9.8800 N.am   34  PHE34      -0.1962
     62  CA        -1.5850    6.6190    9.5370 C.3    34  PHE34       0.1771
     63  C         -2.3520    6.3350    8.2120 C.2    34  PHE34       0.2619
     64  O         -1.8840    5.5700    7.3260 O.2    34  PHE34      -0.2715
     65  CB        -2.2370    5.8490   10.6860 C.3    34  PHE34       0.0574
     66  CG        -2.5700    4.4230   10.3450 C.ar   34  PHE34      -0.0200
     67  CD1       -1.5790    3.4320   10.4200 C.ar   34  PHE34      -0.0042
     68  CD2       -3.8700    4.0550    9.8680 C.ar   34  PHE34      -0.0042
     69  CE1       -1.8480    2.1040   10.0860 C.ar   34  PHE34      -0.0003
     70  CE2       -4.1510    2.6870    9.5710 C.ar   34  PHE34      -0.0003
     71  CZ        -3.1360    1.7320    9.6420 C.ar   34  PHE34      -0.0000
     72  N         -3.5240    6.9250    8.0690 N.am   35  GLN35      -0.1977
     73  CA        -4.3120    6.7440    6.8390 C.3    35  GLN35       0.1601
     74  C         -3.5490    7.2550    5.6010 C.2    35  GLN35       0.2287
     75  O         -3.4130    6.5410    4.5800 O.2    35  GLN35      -0.2864
     76  CB        -5.6800    7.4530    6.9570 C.3    35  GLN35       0.0394
     77  CG        -6.5160    6.8580    8.0490 C.3    35  GLN35       0.0908
     78  CD        -7.3280    5.6760    7.5810 C.2    35  GLN35       0.2608
     79  OE1       -6.8430    4.5170    7.4910 O.2    35  GLN35      -0.2717
     80  NE2       -8.6010    5.9560    7.2960 N.am   35  GLN35      -0.0878
     81  N         -5.6700   -7.4570   15.9770 N.3    56  THR56      -0.1218
     82  CA        -5.7120   -6.0890   15.4830 C.3    56  THR56       0.1862
     83  C         -6.8600   -5.9360   14.4520 C.2    56  THR56       0.2287
     84  O         -7.5820   -4.9570   14.4910 O.2    56  THR56      -0.2866
     85  CB        -4.3860   -5.6940   14.8670 C.3    56  THR56       0.1770
     86  OG1       -3.3860   -5.5800   15.9130 O.3    56  THR56      -0.2211
     87  CG2       -4.4850   -4.3490   14.1410 C.3    56  THR56       0.0375
     88  N        -10.0280   -5.6970   16.1460 N.3    59  SER59      -0.1202
     89  CA       -10.0650   -4.4550   16.9440 C.3    59  SER59       0.2020
     90  C        -10.3260   -3.1940   16.1580 C.2    59  SER59       0.2619
     91  O        -10.5270   -2.1240   16.7470 O.2    59  SER59      -0.2717
     92  CB        -8.7840   -4.2790   17.7340 C.3    59  SER59       0.2103
     93  OG        -8.8260   -5.1870   18.8030 O.3    59  SER59      -0.2182
     94  N        -10.3010   -3.3030   14.8340 N.am   60  ILE60      -0.1966
     95  CA       -10.7250   -2.1860   13.9730 C.3    60  ILE60       0.1712
     96  C        -12.2560   -2.2000   13.9760 C.2    60  ILE60       0.2458
     97  O        -12.8680   -3.2690   13.7870 O.2    60  ILE60      -0.2730
     98  CB       -10.2590   -2.3530   12.5210 C.3    60  ILE60       0.0289
     99  CG1       -8.7310   -2.4600   12.4140 C.3    60  ILE60       0.0022
    100  CG2      -10.8470   -1.1930   11.6170 C.3    60  ILE60       0.0023
    101  CD1       -8.2620   -2.8300   11.0080 C.3    60  ILE60       0.0001
    102  N        -12.8890   -1.0390   14.2370 N.am   61  PRO61      -0.2727
    103  CA       -14.3520   -0.9870   14.1350 C.3    61  PRO61       0.1402
    104  C        -14.8190   -1.5990   12.8290 C.2    61  PRO61       0.2269
    105  O        -14.2820   -1.2890   11.7710 O.2    61  PRO61      -0.2865
    106  CB       -14.6440    0.5170   14.1240 C.3    61  PRO61       0.0296
    107  CG       -13.5330    1.1000   14.9620 C.3    61  PRO61       0.0237
    108  CD       -12.3010    0.2500   14.6370 C.3    61  PRO61       0.0939
    109  N        -15.2030    0.3180    9.6810 N.3    64  ASN64      -0.1240
    110  CA       -13.9450    0.7900    9.0730 C.3    64  ASN64       0.1653
    111  C        -13.0700   -0.3400    8.5070 C.2    64  ASN64       0.2266
    112  O        -11.8810   -0.1080    8.2300 O.2    64  ASN64      -0.2867
    113  CB       -13.1330    1.6030   10.0950 C.3    64  ASN64       0.1155
    114  CG       -13.8990    2.8060   10.6180 C.2    64  ASN64       0.2627
    115  OD1      -14.6750    3.4050    9.8830 O.2    64  ASN64      -0.2716
    116  ND2      -13.7010    3.1530   11.8860 N.am   64  ASN64      -0.0877
    117  N         -9.5020   -1.8200    5.8160 N.3    67  LEU67      -0.1245
    118  CA        -8.9790   -0.4570    5.7010 C.3    67  LEU67       0.1561
    119  C         -9.1310   -0.0290    4.2300 C.2    67  LEU67       0.2260
    120  O         -8.6350   -0.7260    3.3300 O.2    67  LEU67      -0.2867
    121  CB        -7.5200   -0.3900    6.2020 C.3    67  LEU67       0.0270
    122  CG        -7.3330   -0.6990    7.6900 C.3    67  LEU67       0.0019
    123  CD1       -5.8190   -0.6690    8.0820 C.3    67  LEU67       0.0001
    124  CD2       -8.1400    0.2370    8.5460 C.3    67  LEU67       0.0001
    125  N          0.9470   -3.1670   10.1870 N.3   115  VAL115     -0.1245
    126  CA         0.1450   -2.1900   10.9440 C.3   115  VAL115      0.1561
    127  C         -0.2990   -2.6560   12.3230 C.2   115  VAL115      0.2260
    128  O         -1.0710   -1.9490   12.9790 O.2   115  VAL115     -0.2867
    129  CB        -1.1020   -1.7030   10.1260 C.3   115  VAL115      0.0252
    130  CG1       -0.6520   -1.0400    8.8060 C.3   115  VAL115      0.0019
    131  CG2       -2.0690   -2.8450    9.9000 C.3   115  VAL115      0.0019
    132  N          4.7790   -6.9530   14.7880 N.3   121  TYR121     -0.1241
    133  CA         5.9540   -6.0780   14.7510 C.3   121  TYR121      0.1605
    134  C          7.1830   -6.8970   15.1070 C.2   121  TYR121      0.2264
    135  O          8.2010   -6.7930   14.4250 O.2   121  TYR121     -0.2867
    136  CB         5.8220   -4.9640   15.7630 C.3   121  TYR121      0.0534
    137  CG         4.7220   -3.9640   15.4550 C.ar  121  TYR121     -0.0201
    138  CD1        3.8550   -3.5420   16.4610 C.ar  121  TYR121     -0.0009
    139  CD2        4.5760   -3.4160   14.1670 C.ar  121  TYR121     -0.0009
    140  CE1        2.8580   -2.5890   16.2080 C.ar  121  TYR121      0.0417
    141  CE2        3.5940   -2.4710   13.8940 C.ar  121  TYR121      0.0417
    142  CZ         2.7300   -2.0720   14.9200 C.ar  121  TYR121      0.1957
    143  OH         1.7570   -1.1390   14.6900 O.3   121  TYR121     -0.2866
    144  N          5.3900    6.9050   15.5900 N.3   136  THR136     -0.1218
    145  CA         4.8540    8.1450   16.1710 C.3   136  THR136      0.1862
    146  C          5.2110    8.0820   17.6330 C.2   136  THR136      0.2287
    147  O          4.7640    7.1680   18.3580 O.2   136  THR136     -0.2866
    148  CB         3.3350    8.2700   15.9970 C.3   136  THR136      0.1770
    149  OG1        3.0240    8.3020   14.5860 O.3   136  THR136     -0.2211
    150  CG2        2.8260    9.5550   16.6790 C.3   136  THR136      0.0375
@<TRIPOS>BOND
     1   120   119    2
     2   119   118    1
     3    75    74    2
     4    74    73    1
     5   118   117    1
     6   118   121    1
     7   121   122    1
     8    73    76    1
     9    73    72    1
    10    76    77    1
    11    80    78   am
    12    64    63    2
    13    79    78    2
    14    78    77    1
    15   122   123    1
    16   122   124    1
    17    52    51    2
    18    72    63   am
    19    63    62    1
    20   112   111    2
    21   111   110    1
    22   130   129    1
    23    58    56   ar
    24    58    59   ar
    25    51    50    1
    26    51    61   am
    27   110   109    1
    28   110   113    1
    29    56    54   ar
    30    60    59    1
    31    50    49    1
    32    50    53    1
    33    59    57   ar
    34    62    61    1
    35    62    65    1
    36     8     6    1
    37    70    71   ar
    38    70    68   ar
    39    71    69   ar
    40    68    66   ar
    41   115   114    2
    42     7     5    1
    43   131   129    1
    44    54    53    1
    45    54    55   ar
    46    69    67   ar
    47   113   114    1
    48   129   126    1
    49   125   126    1
    50     5     6    1
    51     5     2    1
    52    41    40    2
    53    66    67   ar
    54    66    65    1
    55    57    55   ar
    56   114   116   am
    57     1     2    1
    58   126   127    1
    59   101    99    1
    60    40    39    1
    61     2     3    1
    62   100    98    1
    63   105   104    2
    64   127   128    2
    65    99    98    1
    66    98    95    1
    67    32    31    2
    68     3     4    2
    69     3     9   am
    70    39    42    1
    71    39    38    1
    72   104   103    1
    73    42    43    1
    74    31    38   am
    75    31    30    1
    76     9    10    1
    77    97    96    2
    78    44    43   ar
    79    44    46   ar
    80   141   139   ar
    81   141   142   ar
    82    43    45   ar
    83    95    96    1
    84    95    94    1
    85    96   102   am
    86   106   103    1
    87   106   107    1
    88   103   102    1
    89    87    85    1
    90   139   137   ar
    91   102   108    1
    92   135   134    2
    93    30    29    1
    94    30    33    1
    95    83    84    2
    96    83    82    1
    97    36    35   ar
    98   149   148    1
    99   108   107    1
   100   143   142    1
   101    46    48   ar
   102   133   132    1
   103   133   134    1
   104   133   136    1
   105    94    90   am
   106    85    82    1
   107    85    86    1
   108    45    47   ar
   109   142   140   ar
   110    10    11    1
   111    10    13    1
   112    37    35   ar
   113    35    34    1
   114    12    11    2
   115   137   136    1
   116   137   138   ar
   117    82    81    1
   118   144   145    1
   119    48    47   ar
   120    11    16   am
   121    13    14    1
   122    13    15    1
   123    33    34    1
   124   148   145    1
   125   148   150    1
   126    88    89    1
   127    90    91    2
   128    90    89    1
   129   145   146    1
   130   140   138   ar
   131    16    17    1
   132    89    92    1
   133   146   147    2
   134    17    20    1
   135    17    18    1
   136    92    93    1
   137    27    26    1
   138    18    19    2
   139    28    26    1
   140    26    25    1
   141    25    22    1
   142    21    22    1
   143    22    23    1
   144    23    24    2
