@<TRIPOS>MOLECULE
tmp/3k4dB00.pdb
 165 158 0 0 0
SMALL
GASTEIGER

@<TRIPOS>ATOM
      1  N         13.2580  -37.5920   22.0440 N.3   165  ASP165     -0.1225
      2  CA        12.8120  -37.3010   20.7000 C.3   165  ASP165      0.1805
      3  C         11.4430  -36.6010   20.7380 C.2   165  ASP165      0.2597
      4  O         11.2770  -35.5690   20.0940 O.2   165  ASP165     -0.2718
      5  CB        12.8520  -38.5770   19.8330 C.3   165  ASP165      0.1424
      6  CG        12.7650  -38.3110   18.3050 C.2   165  ASP165      0.3668
      7  OD1       12.8360  -37.1610   17.8030 O.co2 165  ASP165     -0.2456
      8  OD2       12.6100  -39.3170   17.5870 O.co2 165  ASP165     -0.2456
      9  N         10.4820  -37.0960   21.5020 N.am  166  PHE166     -0.1976
     10  CA         9.1370  -36.4950   21.4880 C.3   166  PHE166      0.1639
     11  C          9.0870  -35.0640   22.0070 C.2   166  PHE166      0.2290
     12  O         10.0010  -34.6210   22.6950 O.2   166  PHE166     -0.2864
     13  CB         8.1430  -37.3730   22.2530 C.3   166  PHE166      0.0560
     14  CG         8.5580  -37.6920   23.6610 C.ar  166  PHE166     -0.0200
     15  CD1        8.0520  -36.9670   24.7340 C.ar  166  PHE166     -0.0042
     16  CD2        9.4290  -38.7410   23.9140 C.ar  166  PHE166     -0.0042
     17  CE1        8.4150  -37.2760   26.0550 C.ar  166  PHE166     -0.0003
     18  CE2        9.8090  -39.0720   25.2530 C.ar  166  PHE166     -0.0003
     19  CZ         9.3040  -38.3320   26.3140 C.ar  166  PHE166     -0.0000
     20  N          3.1210  -43.5760   21.9470 N.3   298  HIS298     -0.1241
     21  CA         3.1370  -42.3050   22.6510 C.3   298  HIS298      0.1621
     22  C          1.7470  -41.7840   22.9950 C.2   298  HIS298      0.2264
     23  O          0.7380  -42.2910   22.4860 O.2   298  HIS298     -0.2867
     24  CB         3.8510  -41.3240   21.7190 C.3   298  HIS298      0.0745
     25  CG         5.3120  -41.1630   22.0110 C.ar  298  HIS298      0.0817
     26  ND1        5.7920  -40.8930   23.2730 N.ar  298  HIS298     -0.2268
     27  CD2        6.3940  -41.1950   21.1980 C.ar  298  HIS298      0.1154
     28  CE1        7.1060  -40.7920   23.2330 C.ar  298  HIS298      0.1986
     29  NE2        7.4980  -40.9710   21.9840 N.ar  298  HIS298     -0.2212
     30  N          8.4170  -43.9030   27.2960 N.3   332  HIS332     -0.1241
     31  CA         9.1090  -42.7290   27.8260 C.3   332  HIS332      0.1621
     32  C          8.4490  -41.8240   28.8330 C.2   332  HIS332      0.2264
     33  O          8.9040  -40.7000   29.1070 O.2   332  HIS332     -0.2867
     34  CB         9.7520  -42.0100   26.6390 C.3   332  HIS332      0.0745
     35  CG        10.2620  -42.9440   25.5870 C.ar  332  HIS332      0.0817
     36  ND1       10.4760  -42.5560   24.2800 N.ar  332  HIS332     -0.2268
     37  CD2       10.5640  -44.2620   25.6450 C.ar  332  HIS332      0.1154
     38  CE1       10.9120  -43.5940   23.5880 C.ar  332  HIS332      0.1986
     39  NE2       10.9620  -44.6440   24.3910 N.ar  332  HIS332     -0.2212
     40  N         13.9060  -40.9240   30.2160 N.3   357  VAL357     -0.1245
     41  CA        14.5310  -41.0220   28.9020 C.3   357  VAL357      0.1561
     42  C         15.4020  -39.7750   28.7180 C.2   357  VAL357      0.2260
     43  O         15.1630  -38.7600   29.3730 O.2   357  VAL357     -0.2867
     44  CB        13.4490  -41.1040   27.8160 C.3   357  VAL357      0.0252
     45  CG1       12.6110  -39.8350   27.8170 C.3   357  VAL357      0.0019
     46  CG2       14.0550  -41.3850   26.4320 C.3   357  VAL357      0.0019
     47  N         22.5920  -39.0340   21.3290 N.3   363  LEU363     -0.1245
     48  CA        21.3990  -39.3890   20.5600 C.3   363  LEU363      0.1561
     49  C         21.2220  -38.5700   19.2820 C.2   363  LEU363      0.2260
     50  O         20.7870  -39.1000   18.2520 O.2   363  LEU363     -0.2867
     51  CB        20.1460  -39.2760   21.4320 C.3   363  LEU363      0.0270
     52  CG        19.8260  -40.4520   22.3600 C.3   363  LEU363      0.0019
     53  CD1       18.7500  -40.0610   23.3700 C.3   363  LEU363      0.0001
     54  CD2       19.3980  -41.6760   21.5570 C.3   363  LEU363      0.0001
     55  N         14.5270  -45.5410   29.3770 N.3   407  ASN407     -0.1225
     56  CA        14.7270  -45.6710   27.9370 C.3   407  ASN407      0.1785
     57  C         16.0120  -45.0120   27.4660 C.2   407  ASN407      0.2597
     58  O         16.1780  -43.8000   27.5890 O.2   407  ASN407     -0.2718
     59  CB        13.5550  -45.0600   27.1680 C.3   407  ASN407      0.1169
     60  CG        13.7040  -45.2100   25.6610 C.2   407  ASN407      0.2627
     61  OD1       13.4580  -46.2870   25.1190 O.2   407  ASN407     -0.2716
     62  ND2       14.0830  -44.1270   24.9730 N.am  407  ASN407     -0.0877
     63  N         16.9070  -45.8370   26.9300 N.am  408  GLU408     -0.1979
     64  CA        18.1020  -45.3970   26.1790 C.3   408  GLU408      0.1602
     65  C         19.1380  -44.5360   26.9070 C.2   408  GLU408      0.2287
     66  O         19.6020  -43.5340   26.3800 O.2   408  GLU408     -0.2864
     67  CB        17.7020  -44.7610   24.8530 C.3   408  GLU408      0.0415
     68  CG        16.9620  -45.7330   23.9730 C.3   408  GLU408      0.1163
     69  CD        16.9800  -45.3470   22.5300 C.2   408  GLU408      0.3649
     70  OE1       16.8840  -44.1420   22.2370 O.co2 408  GLU408     -0.2457
     71  OE2       17.0900  -46.2520   21.6860 O.co2 408  GLU408     -0.2457
     72  N         16.3000  -51.2490   21.1380 N.3   461  ASN461     -0.1240
     73  CA        15.8180  -50.3380   20.1230 C.3   461  ASN461      0.1653
     74  C         16.8100  -50.3430   19.0010 C.2   461  ASN461      0.2266
     75  O         17.9250  -49.8410   19.1640 O.2   461  ASN461     -0.2867
     76  CB        15.7220  -48.9230   20.6700 C.3   461  ASN461      0.1155
     77  CG        14.7560  -48.8020   21.8090 C.2   461  ASN461      0.2627
     78  OD1       13.9900  -49.7200   22.0910 O.2   461  ASN461     -0.2716
     79  ND2       14.7710  -47.6500   22.4690 N.am  461  ASN461     -0.0877
     80  N         17.9520  -49.8040   14.8220 N.3   463  TYR463     -0.1241
     81  CA        17.6980  -48.9940   13.6370 C.3   463  TYR463      0.1605
     82  C         18.5850  -49.3170   12.4230 C.2   463  TYR463      0.2264
     83  O         18.6050  -48.5300   11.4690 O.2   463  TYR463     -0.2867
     84  CB        17.5430  -47.5700   13.9810 C.3   463  TYR463      0.0534
     85  CG        16.3090  -47.2930   14.8300 C.ar  463  TYR463     -0.0201
     86  CD1       15.0620  -47.1040   14.2300 C.ar  463  TYR463     -0.0009
     87  CD2       16.3830  -47.2550   16.2230 C.ar  463  TYR463     -0.0009
     88  CE1       13.9260  -46.8560   14.9860 C.ar  463  TYR463      0.0417
     89  CE2       15.2510  -47.0260   16.9930 C.ar  463  TYR463      0.0417
     90  CZ        14.0200  -46.8260   16.3660 C.ar  463  TYR463      0.1957
     91  OH        12.8760  -46.5870   17.1060 O.3   463  TYR463     -0.2866
     92  N         19.6580  -45.5130   10.3520 N.3   467  TYR467     -0.1241
     93  CA        20.4760  -44.4230   10.8860 C.3   467  TYR467      0.1605
     94  C         21.8580  -44.8140   10.4200 C.2   467  TYR467      0.2264
     95  O         22.6840  -43.9650   10.1350 O.2   467  TYR467     -0.2867
     96  CB        20.4590  -44.1950   12.3960 C.3   467  TYR467      0.0534
     97  CG        19.1770  -43.5670   12.8770 C.ar  467  TYR467     -0.0201
     98  CD1       18.4120  -44.1620   13.8880 C.ar  467  TYR467     -0.0009
     99  CD2       18.7130  -42.3800   12.3210 C.ar  467  TYR467     -0.0009
    100  CE1       17.2020  -43.5760   14.3300 C.ar  467  TYR467      0.0417
    101  CE2       17.5230  -41.7910   12.7500 C.ar  467  TYR467      0.0417
    102  CZ        16.7650  -42.3840   13.7470 C.ar  467  TYR467      0.1957
    103  OH        15.5710  -41.7770   14.1610 O.3   467  TYR467     -0.2866
    104  N         11.9510  -51.3160   19.9450 N.3   499  GLU499     -0.1245
    105  CA        11.7790  -50.3780   18.8400 C.3   499  GLU499      0.1567
    106  C         12.4680  -50.8650   17.5840 C.2   499  GLU499      0.2260
    107  O         13.6770  -51.1250   17.5970 O.2   499  GLU499     -0.2867
    108  CB        12.3500  -49.0090   19.1980 C.3   499  GLU499      0.0388
    109  CG        11.5980  -48.2760   20.2750 C.3   499  GLU499      0.1160
    110  CD        12.2690  -46.9920   20.6970 C.2   499  GLU499      0.3649
    111  OE1       12.9510  -46.3520   19.8610 O.co2 499  GLU499     -0.2457
    112  OE2       12.1220  -46.6250   21.8840 O.co2 499  GLU499     -0.2457
    113  N          8.2960  -49.4350   16.2790 N.3   544  TRP544     -0.1241
    114  CA         8.3240  -48.0160   16.5320 C.3   544  TRP544      0.1605
    115  C          7.6540  -47.3130   15.3970 C.2   544  TRP544      0.2264
    116  O          7.9030  -47.5750   14.2030 O.2   544  TRP544     -0.2867
    117  CB         9.6980  -47.4490   16.8230 C.3   544  TRP544      0.0550
    118  CG         9.6740  -46.0640   17.4290 C.ar  544  TRP544      0.0003
    119  CD1       10.0430  -44.8960   16.8200 C.ar  544  TRP544      0.0946
    120  CD2        9.2790  -45.7080   18.7590 C.ar  544  TRP544      0.0152
    121  NE1        9.9090  -43.8360   17.6870 N.ar  544  TRP544     -0.2442
    122  CE2        9.4360  -44.3100   18.8830 C.ar  544  TRP544      0.0810
    123  CE3        8.8100  -46.4330   19.8590 C.ar  544  TRP544      0.0012
    124  CZ2        9.1380  -43.6250   20.0580 C.ar  544  TRP544      0.0191
    125  CZ3        8.5160  -45.7450   21.0290 C.ar  544  TRP544      0.0001
    126  CH2        8.6880  -44.3500   21.1120 C.ar  544  TRP544      0.0015
    127  N          3.9370  -38.7710   15.4860 N.3   549  PHE549     -0.1241
    128  CA         3.7840  -37.9630   16.6850 C.3   549  PHE549      0.1605
    129  C          4.7220  -36.7670   16.6610 C.2   549  PHE549      0.2264
    130  O          5.7420  -36.7940   15.9680 O.2   549  PHE549     -0.2867
    131  CB         4.0520  -38.8200   17.9230 C.3   549  PHE549      0.0534
    132  CG         5.4380  -39.3920   17.9790 C.ar  549  PHE549     -0.0203
    133  CD1        5.6870  -40.6670   17.4920 C.ar  549  PHE549     -0.0042
    134  CD2        6.4990  -38.6530   18.5420 C.ar  549  PHE549     -0.0042
    135  CE1        6.9790  -41.2160   17.5670 C.ar  549  PHE549     -0.0003
    136  CE2        7.7780  -39.1900   18.6140 C.ar  549  PHE549     -0.0003
    137  CZ         8.0200  -40.4740   18.1240 C.ar  549  PHE549     -0.0000
    138  N         13.4550  -34.2190   11.5640 N.3   557  ARG557     -0.1245
    139  CA        12.0570  -34.5450   11.7930 C.3   557  ARG557      0.1563
    140  C         11.1730  -33.7100   10.8960 C.2   557  ARG557      0.2260
    141  O         11.1200  -32.4950   11.0570 O.2   557  ARG557     -0.2867
    142  CB        11.7020  -34.3750   13.2860 C.3   557  ARG557      0.0307
    143  CG        12.4440  -35.3580   14.2070 C.3   557  ARG557      0.0489
    144  CD        11.8830  -36.7770   14.0620 C.3   557  ARG557      0.2205
    145  NE        12.5670  -37.7530   14.9260 N.pl3 557  ARG557     -0.0865
    146  CZ        13.5070  -38.5890   14.4940 C.cat 557  ARG557      0.5346
    147  NH1       13.8730  -38.5660   13.2130 N.pl3 557  ARG557      0.1354
    148  NH2       14.1000  -39.4480   15.3320 N.pl3 557  ARG557      0.1354
    149  N          7.9710  -36.8450   14.1960 N.3   561  ASN561     -0.1240
    150  CA         8.4430  -38.2080   13.9410 C.3   561  ASN561      0.1653
    151  C          7.4900  -38.9580   13.0220 C.2   561  ASN561      0.2266
    152  O          6.2940  -38.9810   13.2780 O.2   561  ASN561     -0.2867
    153  CB         8.5690  -38.9440   15.2440 C.3   561  ASN561      0.1155
    154  CG         9.4090  -40.2220   15.1330 C.2   561  ASN561      0.2627
    155  OD1        9.0680  -41.1530   14.4070 O.2   561  ASN561     -0.2716
    156  ND2       10.4870  -40.2780   15.8980 N.am  561  ASN561     -0.0877
    157  N          7.6480  -42.3700   11.9620 N.3   563  LYS563     -0.1245
    158  CA         7.8830  -43.8170   11.9890 C.3   563  LYS563      0.1561
    159  C          6.6120  -44.5800   12.3100 C.2   563  LYS563      0.2260
    160  O          6.6310  -45.8080   12.5180 O.2   563  LYS563     -0.2867
    161  CB         8.9680  -44.1650   12.9990 C.3   563  LYS563      0.0271
    162  CG        10.3480  -43.8710   12.4970 C.3   563  LYS563      0.0035
    163  CD        11.4280  -44.4090   13.4280 C.3   563  LYS563      0.0206
    164  CE        12.8100  -43.8960   13.0010 C.3   563  LYS563      0.1093
    165  NZ        12.9950  -42.4530   13.3610 N.3   563  LYS563     -0.1314
@<TRIPOS>BOND
     1    95    94    2
     2    92    93    1
     3    94    93    1
     4    93    96    1
     5   140   141    2
     6   140   139    1
     7    83    82    2
     8   138   139    1
     9   139   142    1
    10   157   158    1
    11   158   159    1
    12   158   161    1
    13   159   160    2
    14    99   101   ar
    15    99    97   ar
    16    96    97    1
    17    82    81    1
    18   162   161    1
    19   162   163    1
    20   101   102   ar
    21    97    98   ar
    22   164   165    1
    23   164   163    1
    24   151   152    2
    25   151   150    1
    26   147   146    1
    27   142   143    1
    28    81    84    1
    29    81    80    1
    30   102   103    1
    31   102   100   ar
    32    98   100   ar
    33   150   149    1
    34   150   153    1
    35    84    85    1
    36   144   143    1
    37   144   145    1
    38   116   115    2
    39    86    85   ar
    40    86    88   ar
    41   155   154    2
    42   146   145    2
    43   146   148    1
    44    85    87   ar
    45    88    90   ar
    46   154   153    1
    47   154   156   am
    48   115   114    1
    49   127   128    1
    50   130   129    2
    51    87    89   ar
    52   113   114    1
    53    90    89   ar
    54    90    91    1
    55   114   117    1
    56   129   128    1
    57   128   131    1
    58   119   118   ar
    59   119   121   ar
    60   117   118    1
    61   118   120   ar
    62   133   135   ar
    63   133   132   ar
    64   135   137   ar
    65   106   107    2
    66   106   105    1
    67     8     6   ar
    68   121   122   ar
    69     7     6   ar
    70   131   132    1
    71   132   134   ar
    72   137   136   ar
    73    50    49    2
    74     6     5    1
    75   134   136   ar
    76   120   122   ar
    77   120   123   ar
    78   105   108    1
    79   105   104    1
    80   122   124   ar
    81    74    75    2
    82    74    73    1
    83   108   109    1
    84    49    48    1
    85     5     2    1
    86   123   125   ar
    87   111   110   ar
    88   124   126   ar
    89     4     3    2
    90    73    76    1
    91    73    72    1
    92   109   110    1
    93    48    47    1
    94    48    51    1
    95    76    77    1
    96   110   112   ar
    97     2     3    1
    98     2     1    1
    99     3     9   am
   100   125   126   ar
   101    27    29   ar
   102    27    25   ar
   103    51    52    1
   104    10     9    1
   105    10    11    1
   106    10    13    1
   107    54    52    1
   108    71    69   ar
   109    24    25    1
   110    24    21    1
   111    77    78    2
   112    77    79   am
   113    20    21    1
   114    29    28   ar
   115    11    12    2
   116    25    26   ar
   117    70    69   ar
   118    13    14    1
   119    52    53    1
   120    23    22    2
   121    69    68    1
   122    21    22    1
   123    28    26   ar
   124    38    36   ar
   125    38    39   ar
   126    14    16   ar
   127    14    15   ar
   128    16    18   ar
   129    68    67    1
   130    36    35   ar
   131    39    37   ar
   132    15    17   ar
   133    67    64    1
   134    62    60   am
   135    61    60    2
   136    18    19   ar
   137    35    37   ar
   138    35    34    1
   139    60    59    1
   140    17    19   ar
   141    64    65    1
   142    64    63    1
   143    66    65    2
   144    46    44    1
   145    34    31    1
   146    63    57   am
   147    59    56    1
   148    30    31    1
   149    57    58    2
   150    57    56    1
   151    44    45    1
   152    44    41    1
   153    31    32    1
   154    56    55    1
   155    42    41    1
   156    42    43    2
   157    32    33    2
   158    41    40    1
