@<TRIPOS>MOLECULE
tmp/3k4fB01.pdb
 155 150 0 0 0
SMALL
GASTEIGER

@<TRIPOS>ATOM
      1  N          9.1580    3.5360   43.5920 N.3    16  HIS16      -0.1241
      2  CA         8.2380    2.5380   43.0490 C.3    16  HIS16       0.1621
      3  C          6.7940    2.8650   43.4300 C.2    16  HIS16       0.2264
      4  O          5.8760    2.6520   42.6380 O.2    16  HIS16      -0.2867
      5  CB         8.6090    1.1340   43.5310 C.3    16  HIS16       0.0745
      6  CG         7.8500    0.0400   42.8480 C.ar   16  HIS16       0.0817
      7  ND1        6.6440   -0.4340   43.3180 N.ar   16  HIS16      -0.2268
      8  CD2        8.1240   -0.6720   41.7300 C.ar   16  HIS16       0.1154
      9  CE1        6.2090   -1.3920   42.5200 C.ar   16  HIS16       0.1986
     10  NE2        7.0880   -1.5550   41.5470 N.ar   16  HIS16      -0.2212
     11  N         -1.0440    8.1240   34.8040 N.3    24  PHE24      -0.1227
     12  CA        -1.2040    7.1580   33.7160 C.3    24  PHE24       0.1736
     13  C         -1.3340    5.7350   34.2450 C.2    24  PHE24       0.2595
     14  O         -2.1140    4.9380   33.7220 O.2    24  PHE24      -0.2718
     15  CB        -0.0480    7.2480   32.7100 C.3    24  PHE24       0.0547
     16  CG        -0.2450    6.3890   31.4870 C.ar   24  PHE24      -0.0202
     17  CD1        0.2550    5.0920   31.4440 C.ar   24  PHE24      -0.0042
     18  CD2       -0.9420    6.8720   30.3860 C.ar   24  PHE24      -0.0042
     19  CE1        0.0670    4.2890   30.3260 C.ar   24  PHE24      -0.0003
     20  CE2       -1.1340    6.0760   29.2580 C.ar   24  PHE24      -0.0003
     21  CZ        -0.6300    4.7830   29.2290 C.ar   24  PHE24      -0.0000
     22  N         -0.5610    5.4320   35.2830 N.am   25  MET25      -0.1979
     23  CA        -0.5800    4.1200   35.9150 C.3    25  MET25       0.1605
     24  C         -1.8960    3.8610   36.6390 C.2    25  MET25       0.2287
     25  O         -2.4370    2.7560   36.5650 O.2    25  MET25      -0.2864
     26  CB         0.6090    3.9700   36.8630 C.3    25  MET25       0.0413
     27  CG         1.9680    3.9850   36.1690 C.3    25  MET25       0.0598
     28  SD         2.2900    2.5240   35.1590 S.3    25  MET25      -0.1393
     29  CE         1.6010    3.0040   33.5860 C.3    25  MET25       0.0692
     30  N         -4.4230    3.2080   33.8550 N.3    28  PHE28      -0.1241
     31  CA        -4.2000    1.8880   33.2710 C.3    28  PHE28       0.1605
     32  C         -4.7210    0.7690   34.1690 C.2    28  PHE28       0.2264
     33  O         -5.3460   -0.1710   33.6780 O.2    28  PHE28      -0.2867
     34  CB        -2.7190    1.6630   32.9420 C.3    28  PHE28       0.0534
     35  CG        -2.4780    0.4920   32.0310 C.ar   28  PHE28      -0.0203
     36  CD1       -2.1980   -0.7690   32.5510 C.ar   28  PHE28      -0.0042
     37  CD2       -2.5450    0.6460   30.6490 C.ar   28  PHE28      -0.0042
     38  CE1       -1.9840   -1.8560   31.7080 C.ar   28  PHE28      -0.0003
     39  CE2       -2.3320   -0.4340   29.7980 C.ar   28  PHE28      -0.0003
     40  CZ        -2.0510   -1.6870   30.3290 C.ar   28  PHE28      -0.0000
     41  N         -1.7930    3.5480   24.5670 N.3    38  PHE38      -0.1241
     42  CA        -1.0670    2.2820   24.5660 C.3    38  PHE38       0.1605
     43  C          0.0530    2.2710   23.5240 C.2    38  PHE38       0.2264
     44  O          1.1630    1.8260   23.8120 O.2    38  PHE38      -0.2867
     45  CB        -2.0280    1.1120   24.3480 C.3    38  PHE38       0.0534
     46  CG        -1.4110   -0.2320   24.6060 C.ar   38  PHE38      -0.0203
     47  CD1       -1.2320   -0.6900   25.9070 C.ar   38  PHE38      -0.0042
     48  CD2       -1.0090   -1.0410   23.5480 C.ar   38  PHE38      -0.0042
     49  CE1       -0.6590   -1.9330   26.1520 C.ar   38  PHE38      -0.0003
     50  CE2       -0.4380   -2.2870   23.7840 C.ar   38  PHE38      -0.0003
     51  CZ        -0.2620   -2.7310   25.0870 C.ar   38  PHE38      -0.0000
     52  N          3.1130    4.1960   24.7820 N.3    41  VAL41      -0.1231
     53  CA         3.9570    3.4710   25.7370 C.3    41  VAL41       0.1692
     54  C          4.8030    2.4170   25.0270 C.2    41  VAL41       0.2591
     55  O          5.9830    2.2520   25.3390 O.2    41  VAL41      -0.2718
     56  CB         3.1270    2.8130   26.8690 C.3    41  VAL41       0.0266
     57  CG1        4.0380    2.1290   27.8830 C.3    41  VAL41       0.0020
     58  CG2        2.2720    3.8500   27.5670 C.3    41  VAL41       0.0020
     59  N          4.1950    1.7160   24.0700 N.am   42  MET42      -0.1979
     60  CA         4.8980    0.6970   23.2890 C.3    42  MET42       0.1605
     61  C          6.0530    1.3020   22.4920 C.2    42  MET42       0.2287
     62  O          7.1380    0.7160   22.4170 O.2    42  MET42      -0.2864
     63  CB         3.9310   -0.0520   22.3660 C.3    42  MET42       0.0413
     64  CG         2.8690   -0.8640   23.1040 C.3    42  MET42       0.0598
     65  SD         3.5400   -2.1750   24.1500 S.3    42  MET42      -0.1393
     66  CE         3.8560   -3.4480   22.9330 C.3    42  MET42       0.0692
     67  N          8.7770    2.1780   25.0980 N.3    45  LEU45      -0.1245
     68  CA         9.4710    0.9470   25.4820 C.3    45  LEU45       0.1561
     69  C         10.4370    0.4690   24.4040 C.2    45  LEU45       0.2260
     70  O         11.5390    0.0110   24.7130 O.2    45  LEU45      -0.2867
     71  CB         8.4650   -0.1580   25.8270 C.3    45  LEU45       0.0270
     72  CG         7.6840    0.0010   27.1360 C.3    45  LEU45       0.0019
     73  CD1        6.4160   -0.8360   27.1050 C.3    45  LEU45       0.0001
     74  CD2        8.5430   -0.3520   28.3450 C.3    45  LEU45       0.0001
     75  N         15.8220   -2.6490   36.4690 N.3   126  THR126     -0.1203
     76  CA        14.6480   -1.7770   36.4470 C.3   126  THR126      0.1994
     77  C         13.6900   -2.1360   35.3030 C.2   126  THR126      0.2617
     78  O         12.4770   -2.2400   35.5100 O.2   126  THR126     -0.2717
     79  CB        15.0660   -0.2840   36.3700 C.3   126  THR126      0.1784
     80  OG1       15.9780    0.0130   37.4350 O.3   126  THR126     -0.2211
     81  CG2       13.8610    0.6330   36.4920 C.3   126  THR126      0.0376
     82  N         14.2440   -2.3410   34.1110 N.am  127  ARG127     -0.1979
     83  CA        13.4490   -2.7260   32.9490 C.3   127  ARG127      0.1597
     84  C         12.9790   -4.1790   33.0110 C.2   127  ARG127      0.2287
     85  O         11.7800   -4.4340   33.1070 O.2   127  ARG127     -0.2864
     86  CB        14.2140   -2.4610   31.6460 C.3   127  ARG127      0.0334
     87  CG        14.0710   -1.0380   31.1120 C.3   127  ARG127      0.0492
     88  CD        12.9210   -0.8900   30.1100 C.3   127  ARG127      0.2205
     89  NE        11.5930   -1.1050   30.6920 N.pl3 127  ARG127     -0.0865
     90  CZ        10.8640   -0.1660   31.2930 C.cat 127  ARG127      0.5346
     91  NH1       11.3230    1.0740   31.4110 N.pl3 127  ARG127      0.1354
     92  NH2        9.6700   -0.4690   31.7850 N.pl3 127  ARG127      0.1354
     93  N         11.0240   -5.6270   36.3310 N.3   130  GLY130     -0.1210
     94  CA         9.7430   -4.9310   36.3670 C.3   130  GLY130      0.1956
     95  C          8.7920   -5.4270   35.2910 C.2   130  GLY130      0.2611
     96  O          7.6600   -5.8120   35.5900 O.2   130  GLY130     -0.2717
     97  N          9.2570   -5.4290   34.0410 N.am  131  ASP131     -0.1973
     98  CA         8.4350   -5.8590   32.9040 C.3   131  ASP131      0.1709
     99  C          8.0550   -7.3410   32.9730 C.2   131  ASP131      0.2293
    100  O          6.9690   -7.7260   32.5340 O.2   131  ASP131     -0.2864
    101  CB         9.1250   -5.5350   31.5700 C.3   131  ASP131      0.1436
    102  CG         9.3410   -4.0360   31.3600 C.2   131  ASP131      0.3671
    103  OD1        8.9620   -3.2310   32.2360 O.co2 131  ASP131     -0.2456
    104  OD2        9.9030   -3.6590   30.3130 O.co2 131  ASP131     -0.2456
    105  N          7.6280   -8.9570   35.8570 N.3   133  SER133     -0.1202
    106  CA         6.6950   -9.0620   36.9810 C.3   133  SER133      0.2020
    107  C          5.2620   -8.6840   36.6120 C.2   133  SER133      0.2619
    108  O          4.3130   -9.3260   37.0610 O.2   133  SER133     -0.2717
    109  CB         7.1630   -8.1950   38.1520 C.3   133  SER133      0.2103
    110  OG         8.4260   -8.6180   38.6320 O.3   133  SER133     -0.2182
    111  N          5.1120   -7.6400   35.8000 N.am  134  GLY134     -0.1956
    112  CA         3.7940   -7.1160   35.4530 C.3   134  GLY134      0.1869
    113  C          3.2620   -7.5500   34.1020 C.2   134  GLY134      0.2309
    114  O          2.0740   -7.3750   33.8200 O.2   134  GLY134     -0.2863
    115  N         -0.4490   -6.7140   32.9270 N.3   138  LEU138     -0.1245
    116  CA        -0.5580   -5.6190   31.9600 C.3   138  LEU138      0.1561
    117  C         -1.2220   -6.0700   30.6610 C.2   138  LEU138      0.2260
    118  O         -2.0430   -5.3440   30.0960 O.2   138  LEU138     -0.2867
    119  CB         0.8200   -5.0250   31.6530 C.3   138  LEU138      0.0270
    120  CG         1.6210   -4.3460   32.7670 C.3   138  LEU138      0.0019
    121  CD1        3.0550   -4.1510   32.3170 C.3   138  LEU138      0.0001
    122  CD2        1.0050   -3.0220   33.1660 C.3   138  LEU138      0.0001
    123  N          5.3840   -8.3650   23.4520 N.3   157  PHE157     -0.1227
    124  CA         6.2520   -7.7940   24.4850 C.3   157  PHE157      0.1736
    125  C          5.9300   -8.3100   25.8920 C.2   157  PHE157      0.2595
    126  O          6.8240   -8.4620   26.7260 O.2   157  PHE157     -0.2718
    127  CB         6.1820   -6.2600   24.4560 C.3   157  PHE157      0.0547
    128  CG         6.7730   -5.5980   25.6720 C.ar  157  PHE157     -0.0202
    129  CD1        8.1540   -5.4800   25.8170 C.ar  157  PHE157     -0.0042
    130  CD2        5.9480   -5.0980   26.6770 C.ar  157  PHE157     -0.0042
    131  CE1        8.7040   -4.8730   26.9430 C.ar  157  PHE157     -0.0003
    132  CE2        6.4900   -4.4890   27.8090 C.ar  157  PHE157     -0.0003
    133  CZ         7.8700   -4.3750   27.9400 C.ar  157  PHE157     -0.0000
    134  N          4.6520   -8.5850   26.1380 N.am  158  PHE158     -0.1976
    135  CA         4.1750   -8.9560   27.4690 C.3   158  PHE158      0.1639
    136  C          4.3700  -10.4320   27.8050 C.2   158  PHE158      0.2290
    137  O          4.1520  -10.8460   28.9450 O.2   158  PHE158     -0.2864
    138  CB         2.7140   -8.5260   27.6460 C.3   158  PHE158      0.0560
    139  CG         2.5070   -7.0430   27.5080 C.ar  158  PHE158     -0.0200
    140  CD1        2.6410   -6.2030   28.6090 C.ar  158  PHE158     -0.0042
    141  CD2        2.2060   -6.4830   26.2690 C.ar  158  PHE158     -0.0042
    142  CE1        2.4670   -4.8260   28.4810 C.ar  158  PHE158     -0.0003
    143  CE2        2.0320   -5.1120   26.1320 C.ar  158  PHE158     -0.0003
    144  CZ         2.1610   -4.2810   27.2400 C.ar  158  PHE158     -0.0000
    145  N          6.2620    8.6740   32.0970 N.3   205  PHE205     -0.1241
    146  CA         4.8100    8.5060   32.1950 C.3   205  PHE205      0.1605
    147  C          4.0630    9.7870   32.5640 C.2   205  PHE205      0.2264
    148  O          2.8820    9.9300   32.2440 O.2   205  PHE205     -0.2867
    149  CB         4.4450    7.3510   33.1350 C.3   205  PHE205      0.0534
    150  CG         4.6460    5.9940   32.5190 C.ar  205  PHE205     -0.0203
    151  CD1        3.7310    5.4920   31.6000 C.ar  205  PHE205     -0.0042
    152  CD2        5.7570    5.2250   32.8440 C.ar  205  PHE205     -0.0042
    153  CE1        3.9170    4.2420   31.0180 C.ar  205  PHE205     -0.0003
    154  CE2        5.9520    3.9730   32.2690 C.ar  205  PHE205     -0.0003
    155  CZ         5.0300    3.4810   31.3550 C.ar  205  PHE205     -0.0000
@<TRIPOS>BOND
     1    63    64    1
     2    63    60    1
     3    62    61    2
     4    61    60    1
     5    66    65    1
     6    64    65    1
     7    60    59    1
     8   123   124    1
     9    43    44    2
    10    43    42    1
    11    48    50   ar
    12    48    46   ar
    13    50    51   ar
    14    59    54   am
    15    45    42    1
    16    45    46    1
    17    69    70    2
    18    69    68    1
    19   127   124    1
    20   127   128    1
    21   124   125    1
    22    42    41    1
    23    46    47   ar
    24    52    53    1
    25    54    55    2
    26    54    53    1
    27    51    49   ar
    28    67    68    1
    29    68    71    1
    30   128   129   ar
    31   128   130   ar
    32    53    56    1
    33   129   131   ar
    34    71    72    1
    35   125   134   am
    36   125   126    2
    37    47    49   ar
    38   143   141   ar
    39   143   144   ar
    40   134   135    1
    41   141   139   ar
    42   130   132   ar
    43    56    58    1
    44    56    57    1
    45   131   133   ar
    46    73    72    1
    47    72    74    1
    48   144   142   ar
    49   135   138    1
    50   135   136    1
    51   139   138    1
    52   139   140   ar
    53   136   137    2
    54   132   133   ar
    55   142   140   ar
    56    21    20   ar
    57    21    19   ar
    58    20    18   ar
    59    39    40   ar
    60    39    37   ar
    61   118   117    2
    62    88    89    1
    63    88    87    1
    64   104   102   ar
    65    19    17   ar
    66    40    38   ar
    67    18    16   ar
    68    37    35   ar
    69   117   116    1
    70    89    90    2
    71   153   155   ar
    72   153   151   ar
    73    87    86    1
    74    90    91    1
    75    90    92    1
    76   155   154   ar
    77   102   101    1
    78   102   103   ar
    79    17    16   ar
    80    16    15    1
    81   101    98    1
    82   151   150   ar
    83    86    83    1
    84   119   116    1
    85   119   120    1
    86    38    36   ar
    87   116   115    1
    88    35    36   ar
    89    35    34    1
    90   145   146    1
    91   146   147    1
    92   146   149    1
    93   148   147    2
    94   154   152   ar
    95   121   120    1
    96   150   152   ar
    97   150   149    1
    98   100    99    2
    99    15    12    1
   100   120   122    1
   101    98    99    1
   102    98    97    1
   103    34    31    1
   104    83    84    1
   105    83    82    1
   106    84    85    2
   107    31    30    1
   108    31    32    1
   109    29    28    1
   110    33    32    2
   111    12    13    1
   112    12    11    1
   113    14    13    2
   114   114   113    2
   115    97    95   am
   116   113   112    1
   117    82    77   am
   118    13    22   am
   119    28    27    1
   120    22    23    1
   121    95    96    2
   122    95    94    1
   123    77    78    2
   124    77    76    1
   125   112   111    1
   126   111   107   am
   127   105   106    1
   128    23    24    1
   129    23    26    1
   130    27    26    1
   131    93    94    1
   132    79    76    1
   133    79    81    1
   134    79    80    1
   135    76    75    1
   136    25    24    2
   137   107   106    1
   138   107   108    2
   139   106   109    1
   140   109   110    1
   141    10     8   ar
   142    10     9   ar
   143     8     6   ar
   144     9     7   ar
   145     4     3    2
   146     6     7   ar
   147     6     5    1
   148     2     3    1
   149     2     5    1
   150     2     1    1
