@<TRIPOS>MOLECULE
tmp/3k4hA00.pdb
 192 181 0 0 0
SMALL
GASTEIGER

@<TRIPOS>ATOM
      1  N         65.2010    5.8710  115.1060 N.3     9  PRO9       -0.2116
      2  CA        66.6140    5.7610  115.4580 C.3     9  PRO9        0.1372
      3  C         66.8350    5.7790  116.9600 C.2     9  PRO9        0.2244
      4  O         67.9290    5.4720  117.4060 O.2     9  PRO9       -0.2868
      5  CB        67.2450    6.9920  114.8410 C.3     9  PRO9        0.0268
      6  CG        66.2060    7.6420  114.0630 C.3     9  PRO9        0.0207
      7  CD        64.9030    7.1660  114.4720 C.3     9  PRO9        0.0892
      8  N         62.3160   10.9420  122.1000 N.3    14  LYS14      -0.1245
      9  CA        63.2860   11.8090  121.4260 C.3    14  LYS14       0.1561
     10  C         62.7890   12.1190  120.0000 C.2    14  LYS14       0.2260
     11  O         62.8280   13.2660  119.5610 O.2    14  LYS14      -0.2867
     12  CB        64.7050   11.2060  121.4260 C.3    14  LYS14       0.0271
     13  CG        65.8730   12.1850  121.0770 C.3    14  LYS14       0.0035
     14  CD        65.8600   12.7950  119.6200 C.3    14  LYS14       0.0206
     15  CE        66.1950   11.7600  118.4950 C.3    14  LYS14       0.1093
     16  NZ        65.9830   12.2440  117.0770 N.3    14  LYS14      -0.1314
     17  N         61.4450   15.9960  117.3790 N.3    18  ASN18      -0.1240
     18  CA        61.9260   16.4340  116.0940 C.3    18  ASN18       0.1653
     19  C         60.7780   16.4920  115.1030 C.2    18  ASN18       0.2266
     20  O         60.1340   15.4820  114.8600 O.2    18  ASN18      -0.2867
     21  CB        63.0380   15.5190  115.5810 C.3    18  ASN18       0.1155
     22  CG        63.6390   16.0410  114.3080 C.2    18  ASN18       0.2627
     23  OD1       62.9350   16.6370  113.5040 O.2    18  ASN18      -0.2716
     24  ND2       64.9290   15.8600  114.1250 N.am   18  ASN18      -0.0877
     25  N         60.5220   16.2990  112.1060 N.3    20  PHE20      -0.1227
     26  CA        60.5810   15.3650  110.9860 C.3    20  PHE20       0.1736
     27  C         59.6020   14.1730  111.1410 C.2    20  PHE20       0.2595
     28  O         58.9160   13.7600  110.1640 O.2    20  PHE20      -0.2718
     29  CB        61.9890   14.8340  110.7390 C.3    20  PHE20       0.0547
     30  CG        62.0610   13.8520  109.6030 C.ar   20  PHE20      -0.0202
     31  CD1       62.2330   14.2900  108.2980 C.ar   20  PHE20      -0.0042
     32  CD2       61.9030   12.4930  109.8290 C.ar   20  PHE20      -0.0042
     33  CE1       62.2570   13.3860  107.2240 C.ar   20  PHE20      -0.0003
     34  CE2       61.9180   11.5810  108.7540 C.ar   20  PHE20      -0.0003
     35  CZ        62.1000   12.0400  107.4520 C.ar   20  PHE20      -0.0000
     36  N         59.5460   13.6180  112.3470 N.am   21  PHE21      -0.1976
     37  CA        58.8420   12.3670  112.5630 C.3    21  PHE21       0.1639
     38  C         57.3140   12.3810  112.5310 C.2    21  PHE21       0.2290
     39  O         56.7270   11.5250  111.8610 O.2    21  PHE21      -0.2864
     40  CB        59.4310   11.6150  113.7370 C.3    21  PHE21       0.0560
     41  CG        60.8560   11.2610  113.5110 C.ar   21  PHE21      -0.0200
     42  CD1       61.8820   12.0420  114.0520 C.ar   21  PHE21      -0.0042
     43  CD2       61.1960   10.1940  112.6750 C.ar   21  PHE21      -0.0042
     44  CE1       63.2310   11.7330  113.7930 C.ar   21  PHE21      -0.0003
     45  CE2       62.5330    9.8700  112.4240 C.ar   21  PHE21      -0.0003
     46  CZ        63.5510   10.6500  112.9740 C.ar   21  PHE21      -0.0000
     47  N         62.5100    4.3130  109.8080 N.3    67  LEU67      -0.1231
     48  CA        62.4260    5.7640  109.5780 C.3    67  LEU67       0.1693
     49  C         63.7860    6.4290  109.5260 C.2    67  LEU67       0.2592
     50  O         63.9040    7.6560  109.5890 O.2    67  LEU67      -0.2718
     51  CB        61.5660    6.4440  110.6290 C.3    67  LEU67       0.0284
     52  CG        60.0640    6.3220  110.4450 C.3    67  LEU67       0.0019
     53  CD1       59.8210    6.1530  108.9930 C.3    67  LEU67       0.0001
     54  CD2       59.5010    5.1230  111.1840 C.3    67  LEU67       0.0001
     55  N         64.8130    5.6100  109.4150 N.am   68  TYR68      -0.1962
     56  CA        66.1610    6.0990  109.4750 C.3    68  TYR68       0.1771
     57  C         67.0850    5.1150  108.7400 C.2    68  TYR68       0.2620
     58  O         66.6510    4.0040  108.3960 O.2    68  TYR68      -0.2715
     59  CB        66.5860    6.2410  110.9260 C.3    68  TYR68       0.0574
     60  CG        66.8440    4.9200  111.5770 C.ar   68  TYR68      -0.0198
     61  CD1       65.7940    4.1380  112.0370 C.ar   68  TYR68      -0.0009
     62  CD2       68.1380    4.4420  111.7120 C.ar   68  TYR68      -0.0009
     63  CE1       66.0260    2.9170  112.6350 C.ar   68  TYR68       0.0417
     64  CE2       68.3900    3.2190  112.3070 C.ar   68  TYR68       0.0417
     65  CZ        67.3270    2.4590  112.7690 C.ar   68  TYR68       0.1957
     66  OH        67.5610    1.2430  113.3510 O.3    68  TYR68      -0.2866
     67  N         68.3340    5.5380  108.5020 N.am   69  SER69      -0.1950
     68  CA        69.3280    4.6980  107.8810 C.3    69  SER69       0.1924
     69  C         70.7010    4.8810  108.4750 C.2    69  SER69       0.2314
     70  O         71.4060    5.8560  108.2030 O.2    69  SER69      -0.2863
     71  CB        69.3870    4.9220  106.3910 C.3    69  SER69       0.2116
     72  OG        70.4910    4.2160  105.8700 O.3    69  SER69      -0.2180
     73  N         63.6540    4.5030  104.8570 N.3    89  ILE89      -0.1231
     74  CA        63.5760    5.9330  104.4970 C.3    89  ILE89       0.1692
     75  C         64.9970    6.4680  104.6440 C.2    89  ILE89       0.2593
     76  O         65.4280    6.7940  105.7390 O.2    89  ILE89      -0.2718
     77  CB        62.5590    6.7530  105.3780 C.3    89  ILE89       0.0266
     78  CG1       61.1470    6.1200  105.3790 C.3    89  ILE89       0.0019
     79  CG2       62.5320    8.2430  104.9520 C.3    89  ILE89       0.0020
     80  CD1       59.9910    7.1300  105.5750 C.3    89  ILE89       0.0001
     81  N         65.7370    6.5080  103.5500 N.am   90  GLY90      -0.1942
     82  CA        67.1840    6.7980  103.5640 C.3    90  GLY90       0.2014
     83  C         67.9700    5.7780  102.7470 C.2    90  GLY90       0.2638
     84  O         67.5430    4.6340  102.5890 O.2    90  GLY90      -0.2714
     85  N         69.1140    6.1920  102.2090 N.am   91  LYS91      -0.1977
     86  CA        70.0240    5.3010  101.5050 C.3    91  LYS91       0.1596
     87  C         70.6040    4.2440  102.4470 C.2    91  LYS91       0.2287
     88  O         70.9720    4.5490  103.5810 O.2    91  LYS91      -0.2864
     89  CB        71.1570    6.1200  100.9520 C.3    91  LYS91       0.0298
     90  CG        71.6900    5.6610   99.6400 C.3    91  LYS91       0.0038
     91  CD        72.6500    6.6990   99.0740 C.3    91  LYS91       0.0206
     92  CE        73.9540    6.7130   99.8360 C.3    91  LYS91       0.1093
     93  NZ        74.8570    7.6930   99.2130 N.3    91  LYS91      -0.1314
     94  N         64.0980    8.0010   99.4420 N.3   103  ASP103     -0.1225
     95  CA        65.0610    8.9830   99.8600 C.3   103  ASP103      0.1805
     96  C         64.9550   10.2160   99.0550 C.2   103  ASP103      0.2597
     97  O         64.2460   10.2390   98.1400 O.2   103  ASP103     -0.2718
     98  CB        66.4390    8.4070   99.7340 C.3   103  ASP103      0.1424
     99  CG        67.4450    9.1420  100.5080 C.2   103  ASP103      0.3668
    100  OD1       67.0840    9.8880  101.3860 O.co2 103  ASP103     -0.2456
    101  OD2       68.6130    8.9670  100.2440 O.co2 103  ASP103     -0.2456
    102  N         65.6020   11.2780   99.4600 N.am  104  ASN104     -0.1974
    103  CA        65.7950   12.4100   98.6020 C.3   104  ASN104      0.1688
    104  C         67.1790   12.3330   98.0400 C.2   104  ASN104      0.2292
    105  O         67.9870   11.6760   98.5740 O.2   104  ASN104     -0.2864
    106  CB        65.7450   13.6980   99.3510 C.3   104  ASN104      0.1181
    107  CG        64.6510   13.7810  100.2760 C.2   104  ASN104      0.2629
    108  OD1       64.8070   13.5320  101.4240 O.2   104  ASN104     -0.2716
    109  ND2       63.5520   14.2310   99.8140 N.am  104  ASN104     -0.0877
    110  N         69.9470   13.5660   98.4990 N.3   106  ASN106     -0.1240
    111  CA        70.6400   14.3770   99.4650 C.3   106  ASN106      0.1653
    112  C         72.0080   14.8490   98.9970 C.2   106  ASN106      0.2266
    113  O         72.4200   15.9640   99.3060 O.2   106  ASN106     -0.2867
    114  CB        70.7740   13.5860  100.7420 C.3   106  ASN106      0.1155
    115  CG        69.5240   13.6220  101.5510 C.2   106  ASN106      0.2627
    116  OD1       68.9370   14.6920  101.7250 O.2   106  ASN106     -0.2716
    117  ND2       69.0830   12.4630  102.0420 N.am  106  ASN106     -0.0877
    118  N         74.9410    8.1030  110.4560 N.3   134  LEU134     -0.1245
    119  CA        73.7200    8.2070  109.6610 C.3   134  LEU134      0.1561
    120  C         74.0120    8.5680  108.2140 C.2   134  LEU134      0.2260
    121  O         74.8920    9.3820  107.9250 O.2   134  LEU134     -0.2867
    122  CB        72.7500    9.2050  110.2610 C.3   134  LEU134      0.0270
    123  CG        72.1270    8.8270  111.5960 C.3   134  LEU134      0.0019
    124  CD1       70.9000    9.6660  111.7670 C.3   134  LEU134      0.0001
    125  CD2       71.7290    7.3710  111.6420 C.3   134  LEU134      0.0001
    126  N         72.1110   10.0080  105.7970 N.3   136  VAL136     -0.1245
    127  CA        71.7080   11.3380  105.3810 C.3   136  VAL136      0.1561
    128  C         72.8050   12.3810  105.7070 C.2   136  VAL136      0.2260
    129  O         73.0640   13.2850  104.9070 O.2   136  VAL136     -0.2867
    130  CB        70.3380   11.7330  105.9470 C.3   136  VAL136      0.0252
    131  CG1       70.3460   11.7630  107.4890 C.3   136  VAL136      0.0019
    132  CG2       69.9180   13.0770  105.3810 C.3   136  VAL136      0.0019
    133  N         74.9420   14.4120  102.8130 N.3   140  ARG140     -0.1245
    134  CA        74.8790   15.8700  102.8820 C.3   140  ARG140      0.1563
    135  C         76.2740   16.4610  103.0480 C.2   140  ARG140      0.2260
    136  O         76.6480   17.3750  102.3000 O.2   140  ARG140     -0.2867
    137  CB        73.8930   16.3360  103.9400 C.3   140  ARG140      0.0307
    138  CG        72.4930   16.2780  103.3980 C.3   140  ARG140      0.0489
    139  CD        71.4370   16.6640  104.3770 C.3   140  ARG140      0.2205
    140  NE        70.1420   16.2210  103.8720 N.pl3 140  ARG140     -0.0865
    141  CZ        69.0350   16.0890  104.5950 C.cat 140  ARG140      0.5346
    142  NH1       69.0300   16.3730  105.8770 N.pl3 140  ARG140      0.1354
    143  NH2       67.9190   15.6580  104.0290 N.pl3 140  ARG140      0.1354
    144  N         70.7170   16.0830  116.7030 N.3   164  PHE164     -0.1241
    145  CA        69.8660   17.1260  116.1930 C.3   164  PHE164      0.1605
    146  C         69.0440   17.6840  117.2800 C.2   164  PHE164      0.2264
    147  O         68.0800   17.1090  117.6420 O.2   164  PHE164     -0.2867
    148  CB        68.8290   16.5040  115.3210 C.3   164  PHE164      0.0534
    149  CG        69.3650   15.6460  114.2640 C.ar  164  PHE164     -0.0203
    150  CD1       69.8400   16.1780  113.1240 C.ar  164  PHE164     -0.0042
    151  CD2       69.3340   14.3050  114.3810 C.ar  164  PHE164     -0.0042
    152  CE1       70.3020   15.3980  112.1540 C.ar  164  PHE164     -0.0003
    153  CE2       69.7940   13.5290  113.4040 C.ar  164  PHE164     -0.0003
    154  CZ        70.2790   14.0740  112.2970 C.ar  164  PHE164     -0.0000
    155  N         72.2130   20.4300  108.6920 N.3   187  THR187     -0.1203
    156  CA        71.5280   19.2900  108.0800 C.3   187  THR187      0.1994
    157  C         70.1240   19.0690  108.6580 C.2   187  THR187      0.2617
    158  O         69.4060   18.1980  108.1880 O.2   187  THR187     -0.2717
    159  CB        72.3400   18.0180  108.2290 C.3   187  THR187      0.1784
    160  OG1       72.6540   17.8270  109.6130 O.3   187  THR187     -0.2211
    161  CG2       73.6310   18.1140  107.4350 C.3   187  THR187      0.0376
    162  N         69.7340   19.8970  109.6360 N.am  188  ASP188     -0.1973
    163  CA        68.4240   19.8240  110.2760 C.3   188  ASP188      0.1709
    164  C         67.9770   21.1790  110.8650 C.2   188  ASP188      0.2293
    165  O         68.7350   21.8230  111.5890 O.2   188  ASP188     -0.2864
    166  CB        68.4810   18.7720  111.3880 C.3   188  ASP188      0.1436
    167  CG        67.1420   18.5400  112.0530 C.2   188  ASP188      0.3671
    168  OD1       66.6330   17.4230  111.8850 O.co2 188  ASP188     -0.2456
    169  OD2       66.5950   19.4440  112.7360 O.co2 188  ASP188     -0.2456
    170  N         64.9330   20.5850  105.7540 N.3   216  ASN216     -0.1240
    171  CA        63.6530   20.1000  106.2250 C.3   216  ASN216      0.1653
    172  C         62.4400   20.9850  106.3830 C.2   216  ASN216      0.2266
    173  O         61.3870   20.4850  106.4690 O.2   216  ASN216     -0.2867
    174  CB        63.8810   19.6510  107.6430 C.3   216  ASN216      0.1155
    175  CG        64.5240   18.3190  107.7660 C.2   216  ASN216      0.2627
    176  OD1       64.7180   17.8460  108.8530 O.2   216  ASN216     -0.2716
    177  ND2       64.8530   17.7120  106.6800 N.am  216  ASN216     -0.0877
    178  N         62.0900   19.0610  101.7080 N.3   233  VAL233     -0.1245
    179  CA        62.5870   17.7450  101.4560 C.3   233  VAL233      0.1561
    180  C         61.3470   16.8280  101.3970 C.2   233  VAL233      0.2260
    181  O         61.4510   15.6190  101.2640 O.2   233  VAL233     -0.2867
    182  CB        63.5690   17.4300  102.6010 C.3   233  VAL233      0.0252
    183  CG1       62.9810   16.4710  103.6400 C.3   233  VAL233      0.0019
    184  CG2       64.8860   16.9800  102.0820 C.3   233  VAL233      0.0019
    185  N         57.8360   11.3980  101.4890 N.3   238  LEU238     -0.1245
    186  CA        58.7780   10.3690  101.8850 C.3   238  LEU238      0.1561
    187  C         58.0080    9.2850  102.6140 C.2   238  LEU238      0.2260
    188  O         58.2100    8.1180  102.3520 O.2   238  LEU238     -0.2867
    189  CB        59.8880   10.9180  102.7980 C.3   238  LEU238      0.0270
    190  CG        61.0020   11.8330  102.2660 C.3   238  LEU238      0.0019
    191  CD1       61.9050   12.2320  103.4350 C.3   238  LEU238      0.0001
    192  CD2       61.8360   11.2090  101.1370 C.3   238  LEU238      0.0001
@<TRIPOS>BOND
     1   104   105    2
     2   104   103    1
     3    97    96    2
     4   110   111    1
     5   103   106    1
     6   103   102    1
     7   112   113    2
     8   112   111    1
     9    96   102   am
    10    96    95    1
    11    91    90    1
    12    91    92    1
    13    93    92    1
    14   106   107    1
    15    94    95    1
    16   111   114    1
    17    90    89    1
    18    98    95    1
    19    98    99    1
    20   109   107   am
    21   101    99   ar
    22   107   108    2
    23    99   100   ar
    24   114   115    1
    25    89    86    1
    26   192   190    1
    27   181   180    2
    28   180   179    1
    29   179   178    1
    30   179   182    1
    31   185   186    1
    32    86    85    1
    33    86    87    1
    34   115   116    2
    35   115   117   am
    36   186   187    1
    37   186   189    1
    38   184   182    1
    39    85    83   am
    40   190   189    1
    41   190   191    1
    42   136   135    2
    43   188   187    2
    44    87    88    2
    45    84    83    2
    46   182   183    1
    47    83    82    1
    48   133   134    1
    49   134   135    1
    50   134   137    1
    51   138   137    1
    52   138   139    1
    53    81    82    1
    54    81    75   am
    55   140   139    1
    56   140   141    2
    57   143   141    1
    58    74    75    1
    59    74    73    1
    60    74    77    1
    61   141   142    1
    62    75    76    2
    63   129   128    2
    64    79    77    1
    65    77    78    1
    66    78    80    1
    67   132   130    1
    68   127   128    1
    69   127   126    1
    70   127   130    1
    71   170   171    1
    72    72    71    1
    73   130   131    1
    74   171   172    1
    75   171   174    1
    76   172   173    2
    77    71    68    1
    78   177   175   am
    79    33    35   ar
    80    33    31   ar
    81   161   159    1
    82    35    34   ar
    83   174   175    1
    84   175   176    2
    85    68    69    1
    86    68    67    1
    87   121   120    2
    88   156   159    1
    89   156   157    1
    90   156   155    1
    91   158   157    2
    92    70    69    2
    93   120   119    1
    94   159   160    1
    95    31    30   ar
    96    58    57    2
    97    67    57   am
    98   157   162   am
    99    57    56    1
   100    34    32   ar
   101    53    52    1
   102    55    56    1
   103    55    49   am
   104    56    59    1
   105    49    48    1
   106    49    50    2
   107    48    47    1
   108    48    51    1
   109    30    32   ar
   110    30    29    1
   111   162   163    1
   112   119   122    1
   113   119   118    1
   114    28    27    2
   115   122   123    1
   116   163   164    1
   117   163   166    1
   118    52    51    1
   119    52    54    1
   120    29    26    1
   121   164   165    2
   122    59    60    1
   123    26    27    1
   124    26    25    1
   125    27    36   am
   126   166   167    1
   127    60    62   ar
   128    60    61   ar
   129   123   125    1
   130   123   124    1
   131    62    64   ar
   132    39    38    2
   133   168   167   ar
   134    61    63   ar
   135   167   169   ar
   136   152   154   ar
   137   152   150   ar
   138   154   153   ar
   139    64    65   ar
   140    36    37    1
   141    45    43   ar
   142    45    46   ar
   143    38    37    1
   144    37    40    1
   145    63    65   ar
   146    43    41   ar
   147    65    66    1
   148    46    44   ar
   149   150   149   ar
   150   153   151   ar
   151    23    22    2
   152    41    40    1
   153    41    42   ar
   154    44    42   ar
   155     6     7    1
   156     6     5    1
   157    24    22   am
   158   149   151   ar
   159   149   148    1
   160    22    21    1
   161     7     1    1
   162     5     2    1
   163    20    19    2
   164    19    18    1
   165     1     2    1
   166   148   145    1
   167     2     3    1
   168    21    18    1
   169    18    17    1
   170   145   144    1
   171   145   146    1
   172     3     4    2
   173    16    15    1
   174   146   147    2
   175    15    14    1
   176    11    10    2
   177    14    13    1
   178    10     9    1
   179    13    12    1
   180     9    12    1
   181     9     8    1
