@<TRIPOS>MOLECULE
tmp/3k4mD03.pdb
 110 103 0 0 0
SMALL
GASTEIGER

@<TRIPOS>ATOM
      1  N         30.6730   -8.2940   55.9520 N.3   124  THR124     -0.1218
      2  CA        30.5950   -9.6900   56.3620 C.3   124  THR124      0.1862
      3  C         31.0690  -10.6990   55.3050 C.2   124  THR124      0.2287
      4  O         31.3510  -11.8240   55.6350 O.2   124  THR124     -0.2866
      5  CB        29.1550  -10.0310   56.7200 C.3   124  THR124      0.1770
      6  OG1       28.7310   -9.1380   57.7230 O.3   124  THR124     -0.2211
      7  CG2       29.0180  -11.4580   57.2540 C.3   124  THR124      0.0375
      8  N         29.4190  -12.0430   52.6690 N.3   126  ALA126     -0.1245
      9  CA        28.4090  -12.9160   52.0550 C.3   126  ALA126      0.1562
     10  C         28.1740  -12.4340   50.6210 C.2   126  ALA126      0.2260
     11  O         27.7410  -11.2910   50.4080 O.2   126  ALA126     -0.2867
     12  CB        27.1100  -12.8610   52.8290 C.3   126  ALA126      0.0290
     13  N         14.8910   -6.3980   57.3980 N.3   316  LEU316     -0.1245
     14  CA        15.8120   -7.3800   58.0260 C.3   316  LEU316      0.1561
     15  C         15.2540   -7.8170   59.3740 C.2   316  LEU316      0.2260
     16  O         14.8520   -7.0130   60.1370 O.2   316  LEU316     -0.2867
     17  CB        17.2470   -6.8160   58.1240 C.3   316  LEU316      0.0270
     18  CG        18.2130   -7.5050   59.0670 C.3   316  LEU316      0.0019
     19  CD1       18.7410   -8.6910   58.4610 C.3   316  LEU316      0.0001
     20  CD2       19.3480   -6.5400   59.4140 C.3   316  LEU316      0.0001
     21  N         20.5990  -15.9450   56.5960 N.3   403  GLN403     -0.1245
     22  CA        21.9040  -16.3160   57.1640 C.3   403  GLN403      0.1566
     23  C         21.7600  -16.8280   58.6030 C.2   403  GLN403      0.2260
     24  O         21.1620  -16.1650   59.4660 O.2   403  GLN403     -0.2867
     25  CB        22.8730  -15.1330   57.0830 C.3   403  GLN403      0.0367
     26  CG        23.0880  -14.7150   55.7000 C.3   403  GLN403      0.0905
     27  CD        24.0260  -13.5460   55.4460 C.2   403  GLN403      0.2608
     28  OE1       24.2150  -13.1810   54.2840 O.2   403  GLN403     -0.2717
     29  NE2       24.6060  -12.9530   56.4820 N.am  403  GLN403     -0.0878
     30  N         24.2280  -18.1230   61.3700 N.3   405  HIS405     -0.1241
     31  CA        25.6470  -17.9600   61.4000 C.3   405  HIS405      0.1621
     32  C         26.0330  -17.2440   62.6580 C.2   405  HIS405      0.2264
     33  O         25.2390  -17.2150   63.6060 O.2   405  HIS405     -0.2867
     34  CB        26.0810  -17.1300   60.2100 C.3   405  HIS405      0.0745
     35  CG        25.5140  -15.7410   60.1780 C.ar  405  HIS405      0.0817
     36  ND1       26.2160  -14.6720   59.6520 N.ar  405  HIS405     -0.2268
     37  CD2       24.3180  -15.2440   60.5960 C.ar  405  HIS405      0.1154
     38  CE1       25.4780  -13.5830   59.7350 C.ar  405  HIS405      0.1986
     39  NE2       24.3190  -13.9000   60.3000 N.ar  405  HIS405     -0.2212
     40  N         27.8010  -13.4200   63.3960 N.3   407  ASP407     -0.1239
     41  CA        28.3730  -12.1940   62.8920 C.3   407  ASP407      0.1674
     42  C         29.1710  -11.5350   64.0440 C.2   407  ASP407      0.2266
     43  O         29.0330  -11.9100   65.1880 O.2   407  ASP407     -0.2867
     44  CB        27.2070  -11.2710   62.4390 C.3   407  ASP407      0.1410
     45  CG        27.5200  -10.4480   61.1410 C.2   407  ASP407      0.3668
     46  OD1       28.6850  -10.0280   60.9750 O.co2 407  ASP407     -0.2456
     47  OD2       26.5820  -10.2290   60.2960 O.co2 407  ASP407     -0.2456
     48  N         19.3860  -14.1090   60.6150 N.3   427  ARG427     -0.1197
     49  CA        19.0270  -12.9200   59.8740 C.3   427  ARG427      0.1779
     50  C         18.3100  -13.3510   58.5880 C.2   427  ARG427      0.2305
     51  O         18.8000  -14.1950   57.8260 O.2   427  ARG427     -0.2863
     52  CB        20.3010  -12.0880   59.5090 C.2   427  ARG427     -0.0007
     53  CG        20.9800  -11.4290   60.6610 C.2   427  ARG427      0.0176
     54  CD        22.2620  -10.6070   60.3050 C.3   427  ARG427      0.2464
     55  NE        22.6580   -9.8330   61.5030 N.pl3 427  ARG427     -0.0815
     56  CZ        23.3320  -10.3470   62.5310 C.cat 427  ARG427      0.5349
     57  NH1       23.7990  -11.6130   62.5270 N.pl3 427  ARG427      0.1354
     58  NH2       23.6060   -9.5780   63.5570 N.pl3 427  ARG427      0.1354
     59  N         16.3120  -11.5320   55.2700 N.3   429  PHE429     -0.1241
     60  CA        16.4890  -10.2630   54.5060 C.3   429  PHE429      0.1605
     61  C         15.3880  -10.2610   53.4840 C.2   429  PHE429      0.2264
     62  O         15.3290  -11.1790   52.6870 O.2   429  PHE429     -0.2867
     63  CB        17.8050  -10.2930   53.7130 C.3   429  PHE429      0.0534
     64  CG        19.0170  -10.4910   54.5510 C.ar  429  PHE429     -0.0203
     65  CD1       19.3530  -11.7450   55.0000 C.ar  429  PHE429     -0.0042
     66  CD2       19.7960   -9.4060   54.9540 C.ar  429  PHE429     -0.0042
     67  CE1       20.4630  -11.9300   55.7930 C.ar  429  PHE429     -0.0003
     68  CE2       20.9220   -9.6010   55.7270 C.ar  429  PHE429     -0.0003
     69  CZ        21.2480  -10.8540   56.1610 C.ar  429  PHE429     -0.0000
     70  N         19.5830   -0.1890   58.6300 N.3   500  LEU500     -0.1231
     71  CA        20.6970   -0.7930   59.3570 C.3   500  LEU500      0.1693
     72  C         21.3110   -1.8790   58.4660 C.2   500  LEU500      0.2592
     73  O         22.5140   -2.1040   58.4680 O.2   500  LEU500     -0.2718
     74  CB        20.2830   -1.3910   60.7290 C.3   500  LEU500      0.0284
     75  CG        21.3370   -1.4800   61.8800 C.3   500  LEU500      0.0019
     76  CD1       21.8940   -0.0820   62.2940 C.3   500  LEU500      0.0001
     77  CD2       20.8410   -2.0490   63.2170 C.3   500  LEU500      0.0001
     78  N         20.4690   -2.5840   57.7310 N.am  501  VAL501     -0.1966
     79  CA        20.9290   -3.6320   56.8060 C.3   501  VAL501      0.1727
     80  C         21.9640   -3.1820   55.7390 C.2   501  VAL501      0.2616
     81  O         22.7780   -3.9650   55.2850 O.2   501  VAL501     -0.2715
     82  CB        19.7290   -4.2360   56.1370 C.3   501  VAL501      0.0290
     83  CG1       19.0930   -3.2600   55.1780 C.3   501  VAL501      0.0023
     84  CG2       20.1120   -5.4120   55.4290 C.3   501  VAL501      0.0023
     85  N         21.9130   -1.9280   55.3430 N.am  502  LEU502     -0.1963
     86  CA        22.9120   -1.3170   54.4410 C.3   502  LEU502      0.1728
     87  C         22.9510   -2.0420   53.1080 C.2   502  LEU502      0.2616
     88  O         24.0420   -2.3740   52.6000 O.2   502  LEU502     -0.2715
     89  CB        24.2660   -1.3530   55.0920 C.3   502  LEU502      0.0311
     90  CG        24.3810   -0.4440   56.3320 C.3   502  LEU502      0.0022
     91  CD1       25.7230   -0.7070   57.0500 C.3   502  LEU502      0.0001
     92  CD2       24.2550    1.0590   55.9490 C.3   502  LEU502      0.0001
     93  N         21.7580   -2.3190   52.5650 N.am  503  HIS503     -0.1973
     94  CA        21.6590   -2.9230   51.2440 C.3   503  HIS503      0.1656
     95  C         20.8320   -2.0760   50.3040 C.2   503  HIS503      0.2291
     96  O         20.2140   -2.5640   49.3830 O.2   503  HIS503     -0.2864
     97  CB        21.0180   -4.2860   51.3220 C.3   503  HIS503      0.0771
     98  CG        21.8810   -5.3150   51.9590 C.ar  503  HIS503      0.0820
     99  ND1       21.4370   -6.5810   52.2300 N.ar  503  HIS503     -0.2267
    100  CD2       23.1550   -5.2630   52.3900 C.ar  503  HIS503      0.1154
    101  CE1       22.4110   -7.2890   52.7590 C.ar  503  HIS503      0.1986
    102  NE2       23.4660   -6.5130   52.8740 N.ar  503  HIS503     -0.2212
    103  N         22.3800  -10.4820   49.3760 N.3   548  ASN548     -0.1240
    104  CA        23.2910   -9.3790   49.6620 C.3   548  ASN548      0.1653
    105  C         23.7460   -8.9420   48.2900 C.2   548  ASN548      0.2266
    106  O         24.1720   -9.7810   47.5140 O.2   548  ASN548     -0.2867
    107  CB        24.5320   -9.8320   50.4610 C.3   548  ASN548      0.1155
    108  CG        24.2070  -10.8560   51.5320 C.2   548  ASN548      0.2627
    109  OD1       23.7100  -11.9560   51.2480 O.2   548  ASN548     -0.2716
    110  ND2       24.5200  -10.5230   52.7700 N.am  548  ASN548     -0.0877
@<TRIPOS>BOND
     1   106   105    2
     2   105   104    1
     3   103   104    1
     4    96    95    2
     5   104   107    1
     6    95    94    1
     7    11    10    2
     8   107   108    1
     9    10     9    1
    10    94    97    1
    11    94    93    1
    12   109   108    2
    13    97    98    1
    14   108   110   am
    15    98    99   ar
    16    98   100   ar
    17     9     8    1
    18     9    12    1
    19    99   101   ar
    20   100   102   ar
    21    93    87   am
    22    88    87    2
    23    62    61    2
    24   101   102   ar
    25    87    86    1
    26    61    60    1
    27    63    60    1
    28    63    64    1
    29    28    27    2
    30    86    89    1
    31    86    85    1
    32    60    59    1
    33    64    66   ar
    34    64    65   ar
    35    66    68   ar
    36    65    67   ar
    37    89    90    1
    38    83    82    1
    39    81    80    2
    40     3     4    2
    41     3     2    1
    42    85    80   am
    43    84    82    1
    44    27    26    1
    45    27    29   am
    46    26    25    1
    47    68    69   ar
    48    80    79    1
    49    67    69   ar
    50    92    90    1
    51     1     2    1
    52    82    79    1
    53    90    91    1
    54     2     5    1
    55    21    22    1
    56     5     7    1
    57     5     6    1
    58    79    78    1
    59    25    22    1
    60    22    23    1
    61    13    14    1
    62    78    72   am
    63    51    50    2
    64    14    17    1
    65    14    15    1
    66    17    18    1
    67    19    18    1
    68    72    73    2
    69    72    71    1
    70    50    49    1
    71    23    24    2
    72    70    71    1
    73    18    20    1
    74    71    74    1
    75    15    16    2
    76    52    49    1
    77    52    53    2
    78    36    38   ar
    79    36    35   ar
    80    38    39   ar
    81    49    48    1
    82    35    34    1
    83    35    37   ar
    84    34    31    1
    85    47    45   ar
    86    39    37   ar
    87    54    53    1
    88    54    55    1
    89    74    75    1
    90    46    45   ar
    91    45    44    1
    92    30    31    1
    93    31    32    1
    94    55    56    2
    95    75    76    1
    96    75    77    1
    97    44    41    1
    98    57    56    1
    99    56    58    1
   100    32    33    2
   101    41    40    1
   102    41    42    1
   103    42    43    2
