@<TRIPOS>MOLECULE
tmp/3k4mD01.pdb
 98 97 0 0 0
SMALL
GASTEIGER

@<TRIPOS>ATOM
      1  N         13.4660   14.3310   72.2410 N.3    76  LEU76      -0.1231
      2  CA        13.4710   13.7920   73.5680 C.3    76  LEU76       0.1693
      3  C         13.4460   14.9200   74.5660 C.2    76  LEU76       0.2592
      4  O         14.1140   15.9130   74.3580 O.2    76  LEU76      -0.2718
      5  CB        14.7660   13.0480   73.7650 C.3    76  LEU76       0.0284
      6  CG        14.7930   11.6950   73.0620 C.3    76  LEU76       0.0019
      7  CD1       16.2330   11.1430   72.9590 C.3    76  LEU76       0.0001
      8  CD2       13.8830   10.6770   73.8090 C.3    76  LEU76       0.0001
      9  N         12.7290   14.7310   75.6530 N.am   77  VAL77      -0.1966
     10  CA        12.5520   15.7190   76.6890 C.3    77  VAL77       0.1727
     11  C         13.4660   15.4280   77.8490 C.2    77  VAL77       0.2616
     12  O         13.3220   14.4180   78.4910 O.2    77  VAL77      -0.2715
     13  CB        11.0870   15.6470   77.2960 C.3    77  VAL77       0.0290
     14  CG1       10.9600   16.5020   78.5050 C.3    77  VAL77       0.0023
     15  CG2       10.0600   16.0380   76.2420 C.3    77  VAL77       0.0023
     16  N         14.3570   16.3580   78.1330 N.am   78  VAL78      -0.1977
     17  CA        15.2400   16.2630   79.2570 C.3    78  VAL78       0.1596
     18  C         14.8390   17.4030   80.1740 C.2    78  VAL78       0.2287
     19  O         15.2170   18.5690   79.9490 O.2    78  VAL78      -0.2864
     20  CB        16.7070   16.3580   78.8780 C.3    78  VAL78       0.0276
     21  CG1       17.5930   16.2100   80.1270 C.3    78  VAL78       0.0022
     22  CG2       17.0870   15.2850   77.8340 C.3    78  VAL78       0.0022
     23  N         17.4100   18.7110   84.0270 N.3    81  LEU81      -0.1245
     24  CA        18.5760   19.5590   84.1060 C.3    81  LEU81       0.1561
     25  C         18.5060   20.3690   85.4210 C.2    81  LEU81       0.2260
     26  O         17.4430   20.6190   85.9650 O.2    81  LEU81      -0.2867
     27  CB        18.6680   20.5370   82.9460 C.3    81  LEU81       0.0270
     28  CG        18.7990   19.9600   81.5570 C.3    81  LEU81       0.0019
     29  CD1       18.4990   21.0350   80.5430 C.3    81  LEU81       0.0001
     30  CD2       20.1560   19.3980   81.4010 C.3    81  LEU81       0.0001
     31  N         21.7120   26.1150   80.9350 N.3    86  TRP86      -0.1227
     32  CA        21.0010   26.6300   79.8230 C.3    86  TRP86       0.1737
     33  C         20.0830   25.5640   79.2390 C.2    86  TRP86       0.2595
     34  O         20.4910   24.4460   78.9630 O.2    86  TRP86      -0.2718
     35  CB        21.9890   27.0400   78.7870 C.3    86  TRP86       0.0564
     36  CG        21.4360   27.7970   77.7180 C.ar   86  TRP86       0.0003
     37  CD1       21.4590   29.1300   77.5920 C.ar   86  TRP86       0.0946
     38  CD2       20.8150   27.2740   76.5480 C.ar   86  TRP86       0.0152
     39  NE1       20.8740   29.5030   76.4030 N.ar   86  TRP86      -0.2442
     40  CE2       20.4620   28.3740   75.7420 C.ar   86  TRP86       0.0810
     41  CE3       20.5030   25.9810   76.1080 C.ar   86  TRP86       0.0012
     42  CZ2       19.8010   28.2290   74.5000 C.ar   86  TRP86       0.0191
     43  CZ3       19.8510   25.8270   74.8530 C.ar   86  TRP86       0.0001
     44  CH2       19.5080   26.9580   74.0770 C.ar   86  TRP86       0.0015
     45  N         18.8240   25.9350   79.0710 N.am   87  GLN87      -0.1965
     46  CA        17.7550   24.9820   78.7670 C.3    87  GLN87       0.1733
     47  C         16.9690   25.5150   77.5770 C.2    87  GLN87       0.2616
     48  O         16.7960   26.7230   77.4010 O.2    87  GLN87      -0.2715
     49  CB        16.8750   24.8050   80.0120 C.3    87  GLN87       0.0408
     50  CG        15.4450   24.4210   79.7400 C.3    87  GLN87       0.0908
     51  CD        14.8240   23.5920   80.8940 C.2    87  GLN87       0.2608
     52  OE1       14.0640   22.6640   80.6480 O.2    87  GLN87      -0.2717
     53  NE2       15.1880   23.9130   82.1360 N.am   87  GLN87      -0.0878
     54  N         16.5510   24.6170   76.6990 N.am   88  ALA88      -0.1977
     55  CA        16.1460   25.0710   75.3820 C.3    88  ALA88       0.1597
     56  C         14.6830   25.3890   75.4510 C.2    88  ALA88       0.2287
     57  O         13.9850   24.8610   76.3190 O.2    88  ALA88      -0.2864
     58  CB        16.4120   23.9980   74.3940 C.3    88  ALA88       0.0319
     59  N         12.9470   25.2520   72.4270 N.3    90  THR90      -0.1203
     60  CA        12.3910   24.4610   71.3100 C.3    90  THR90       0.1994
     61  C         13.2800   23.2670   71.0280 C.2    90  THR90       0.2618
     62  O         14.4170   23.2000   71.4880 O.2    90  THR90      -0.2717
     63  CB        12.3190   25.3150   70.0440 C.3    90  THR90       0.1784
     64  OG1       13.6530   25.6650   69.6210 O.3    90  THR90      -0.2211
     65  CG2       11.4860   26.6430   70.3110 C.3    90  THR90       0.0376
     66  N         12.7820   22.3240   70.2520 N.am   91  PHE91      -0.1961
     67  CA        13.6060   21.2980   69.7290 C.3    91  PHE91       0.1771
     68  C         14.2970   21.8430   68.4910 C.2    91  PHE91       0.2619
     69  O         13.9110   21.5760   67.3910 O.2    91  PHE91      -0.2715
     70  CB        12.7260   20.0710   69.4870 C.3    91  PHE91       0.0574
     71  CG        12.1450   19.4960   70.7820 C.ar   91  PHE91      -0.0200
     72  CD1       12.9840   19.0070   71.7760 C.ar   91  PHE91      -0.0042
     73  CD2       10.7700   19.4350   70.9950 C.ar   91  PHE91      -0.0042
     74  CE1       12.4840   18.4770   72.9460 C.ar   91  PHE91      -0.0003
     75  CE2       10.2540   18.9010   72.1920 C.ar   91  PHE91      -0.0003
     76  CZ        11.0950   18.4230   73.1640 C.ar   91  PHE91      -0.0000
     77  N         15.3290   22.6370   68.6720 N.am   92  PHE92      -0.1974
     78  CA        15.9870   23.3080   67.5230 C.3    92  PHE92       0.1639
     79  C         17.0170   22.3870   66.8180 C.2    92  PHE92       0.2290
     80  O         17.3420   21.3220   67.3160 O.2    92  PHE92      -0.2864
     81  CB        16.6150   24.6290   67.9860 C.3    92  PHE92       0.0560
     82  CG        17.7590   24.4540   68.9910 C.ar   92  PHE92      -0.0200
     83  CD1       17.5070   24.3060   70.3330 C.ar   92  PHE92      -0.0042
     84  CD2       19.0640   24.4570   68.5690 C.ar   92  PHE92      -0.0042
     85  CE1       18.5480   24.1930   71.2370 C.ar   92  PHE92      -0.0003
     86  CE2       20.1090   24.2810   69.4640 C.ar   92  PHE92      -0.0003
     87  CZ        19.8680   24.1490   70.7740 C.ar   92  PHE92      -0.0000
     88  N         20.1590   20.6860   66.1670 N.3    94  ARG94      -0.1245
     89  CA        21.2960   20.4240   67.0670 C.3    94  ARG94       0.1563
     90  C         22.1250   19.2670   66.4850 C.2    94  ARG94       0.2260
     91  O         21.5690   18.3800   65.8170 O.2    94  ARG94      -0.2867
     92  CB        20.7910   19.8820   68.4310 C.3    94  ARG94       0.0307
     93  CG        20.2640   20.8320   69.4630 C.3    94  ARG94       0.0489
     94  CD        19.3810   20.1240   70.5040 C.3    94  ARG94       0.2205
     95  NE        18.1310   19.9650   69.8310 N.pl3  94  ARG94      -0.0865
     96  CZ        17.1520   19.1380   70.1340 C.cat  94  ARG94       0.5346
     97  NH1       17.2000   18.3730   71.1890 N.pl3  94  ARG94       0.1354
     98  NH2       16.1080   19.1070   69.3240 N.pl3  94  ARG94       0.1354
@<TRIPOS>BOND
     1    91    90    2
     2    88    89    1
     3    90    89    1
     4    79    80    2
     5    79    78    1
     6    89    92    1
     7    69    68    2
     8    78    81    1
     9    78    77    1
    10    81    82    1
    11    92    93    1
    12    68    77   am
    13    68    67    1
    14    84    82   ar
    15    84    86   ar
    16    82    83   ar
    17    98    96    1
    18    93    94    1
    19    86    87   ar
    20    70    67    1
    21    70    71    1
    22    64    63    1
    23    67    66    1
    24    95    96    2
    25    95    94    1
    26    63    65    1
    27    63    60    1
    28    96    97    1
    29    66    61   am
    30    83    85   ar
    31    87    85   ar
    32    71    73   ar
    33    71    72   ar
    34    73    75   ar
    35    61    60    1
    36    61    62    2
    37    60    59    1
    38    72    74   ar
    39    75    76   ar
    40     1     2    1
    41    74    76   ar
    42     7     6    1
    43     6     5    1
    44     6     8    1
    45     2     5    1
    46     2     3    1
    47    44    42   ar
    48    44    43   ar
    49     4     3    2
    50    58    55    1
    51    42    40   ar
    52     3     9   am
    53    43    41   ar
    54    55    56    1
    55    55    54    1
    56    56    57    2
    57     9    10    1
    58    40    39   ar
    59    40    38   ar
    60    41    38   ar
    61    15    13    1
    62    39    37   ar
    63    38    36   ar
    64    10    13    1
    65    10    11    1
    66    54    47   am
    67    13    14    1
    68    48    47    2
    69    47    46    1
    70    37    36   ar
    71    36    35    1
    72    22    20    1
    73    11    16   am
    74    11    12    2
    75    16    17    1
    76    46    45    1
    77    46    49    1
    78    35    32    1
    79    20    17    1
    80    20    21    1
    81    34    33    2
    82    45    33   am
    83    33    32    1
    84    17    18    1
    85    50    49    1
    86    50    51    1
    87    32    31    1
    88    19    18    2
    89    29    28    1
    90    52    51    2
    91    51    53   am
    92    30    28    1
    93    28    27    1
    94    27    24    1
    95    23    24    1
    96    24    25    1
    97    25    26    2
