@<TRIPOS>MOLECULE
tmp/3k4pA02.pdb
 76 73 0 0 0
SMALL
GASTEIGER

@<TRIPOS>ATOM
      1  N         -6.4640   -4.9500   43.3950 N.3   278  ALA278     -0.1245
      2  CA        -6.5780   -5.7850   44.5920 C.3   278  ALA278      0.1562
      3  C         -5.6710   -5.3870   45.7200 C.2   278  ALA278      0.2260
      4  O         -5.9990   -5.6170   46.8930 O.2   278  ALA278     -0.2867
      5  CB        -6.3470   -7.2590   44.2600 C.3   278  ALA278      0.0290
      6  N        -10.8010   -6.2210   38.3720 N.3   341  PHE341     -0.1227
      7  CA       -10.6320   -6.9090   39.6440 C.3   341  PHE341      0.1736
      8  C        -11.9450   -7.2790   40.3220 C.2   341  PHE341      0.2595
      9  O        -12.0740   -8.4100   40.7890 O.2   341  PHE341     -0.2718
     10  CB        -9.6940   -6.1600   40.5950 C.3   341  PHE341      0.0547
     11  CG        -8.2060   -6.3570   40.2660 C.ar  341  PHE341     -0.0202
     12  CD1       -7.4910   -7.4510   40.7780 C.ar  341  PHE341     -0.0042
     13  CD2       -7.5160   -5.4360   39.4700 C.ar  341  PHE341     -0.0042
     14  CE1       -6.1010   -7.6080   40.4840 C.ar  341  PHE341     -0.0003
     15  CE2       -6.1030   -5.5940   39.1710 C.ar  341  PHE341     -0.0003
     16  CZ        -5.4130   -6.6590   39.6710 C.ar  341  PHE341     -0.0000
     17  N        -12.9260   -6.3750   40.3230 N.am  342  ALA342     -0.1980
     18  CA       -14.2610   -6.6950   40.8600 C.3   342  ALA342      0.1597
     19  C        -14.9380   -7.8150   40.0800 C.2   342  ALA342      0.2287
     20  O        -15.8470   -8.4770   40.5880 O.2   342  ALA342     -0.2864
     21  CB       -15.1410   -5.4950   40.8790 C.3   342  ALA342      0.0319
     22  N        -13.3890  -10.4490   39.1470 N.3   344  GLY344     -0.1225
     23  CA       -12.6400  -11.6600   39.4510 C.3   344  GLY344      0.1811
     24  C        -11.5160  -11.9650   38.4810 C.2   344  GLY344      0.2280
     25  O        -10.7810  -12.9220   38.6980 O.2   344  GLY344     -0.2866
     26  N         -7.9690  -13.0640   39.8650 N.3   347  ASN347     -0.1240
     27  CA        -8.0080  -13.7780   41.1140 C.3   347  ASN347      0.1653
     28  C         -7.0970  -15.0030   41.1750 C.2   347  ASN347      0.2266
     29  O         -7.2450  -15.8440   42.0600 O.2   347  ASN347     -0.2867
     30  CB        -9.4470  -14.1420   41.4260 C.3   347  ASN347      0.1155
     31  CG       -10.0960  -13.1610   42.2970 C.2   347  ASN347      0.2627
     32  OD1       -9.6960  -11.9960   42.3760 O.2   347  ASN347     -0.2716
     33  ND2      -11.1180  -13.6160   42.9700 N.am  347  ASN347     -0.0877
     34  N        -12.9000  -16.6400   36.9860 N.3   405  HIS405     -0.1226
     35  CA       -12.6270  -17.1710   38.3170 C.3   405  HIS405      0.1752
     36  C        -13.9400  -17.1180   39.0490 C.2   405  HIS405      0.2596
     37  O        -14.8580  -16.3480   38.6590 O.2   405  HIS405     -0.2718
     38  CB       -11.5550  -16.3540   39.0650 C.3   405  HIS405      0.0759
     39  CG       -10.1380  -16.6510   38.6340 C.ar  405  HIS405      0.0818
     40  ND1       -9.4880  -15.9330   37.6520 N.ar  405  HIS405     -0.2268
     41  CD2       -9.2490  -17.5730   39.0640 C.ar  405  HIS405      0.1154
     42  CE1       -8.2670  -16.4110   37.4780 C.ar  405  HIS405      0.1986
     43  NE2       -8.0970  -17.4050   38.3250 N.ar  405  HIS405     -0.2212
     44  N        -14.0420  -17.9590   40.0800 N.am  406  GLY406     -0.1957
     45  CA       -15.1990  -17.9630   40.9760 C.3   406  GLY406      0.1869
     46  C        -16.3240  -18.8410   40.4750 C.2   406  GLY406      0.2309
     47  O        -17.4280  -18.8690   41.0510 O.2   406  GLY406     -0.2863
     48  N        -20.7840  -16.4420   41.0860 N.3   423  GLY423     -0.1210
     49  CA       -19.4050  -16.2150   41.5610 C.3   423  GLY423      0.1956
     50  C        -19.1170  -14.7530   41.9600 C.2   423  GLY423      0.2612
     51  O        -18.1530  -14.4460   42.7100 O.2   423  GLY423     -0.2717
     52  N        -19.9520  -13.8380   41.4880 N.am  424  LEU424     -0.1965
     53  CA       -19.7120  -12.4140   41.7300 C.3   424  LEU424      0.1728
     54  C        -20.4680  -11.9130   42.9480 C.2   424  LEU424      0.2617
     55  O        -21.0390  -10.7830   42.9490 O.2   424  LEU424     -0.2715
     56  CB       -20.0430  -11.5850   40.4790 C.3   424  LEU424      0.0311
     57  CG       -19.3640  -11.8580   39.1210 C.3   424  LEU424      0.0022
     58  CD1      -20.0470  -10.9730   38.0880 C.3   424  LEU424      0.0001
     59  CD2      -17.8290  -11.6200   39.1270 C.3   424  LEU424      0.0001
     60  N        -20.4700  -12.7710   43.9790 N.am  425  SER425     -0.1936
     61  CA       -21.0510  -12.4730   45.2910 C.3   425  SER425      0.2055
     62  C        -20.4020  -11.2660   45.9320 C.2   425  SER425      0.2643
     63  O        -21.0760  -10.5150   46.6400 O.2   425  SER425     -0.2714
     64  CB       -20.8840  -13.6670   46.2290 C.3   425  SER425      0.2130
     65  OG       -19.6340  -14.2730   46.0070 O.3   425  SER425     -0.2179
     66  N        -19.1000  -11.0660   45.6820 N.am  426  PHE426     -0.1973
     67  CA       -18.4410   -9.8710   46.1840 C.3   426  PHE426      0.1639
     68  C        -19.2240   -8.6590   45.6830 C.2   426  PHE426      0.2290
     69  O        -19.7950   -7.9350   46.4850 O.2   426  PHE426     -0.2864
     70  CB       -16.9640   -9.8310   45.8020 C.3   426  PHE426      0.0560
     71  CG       -16.2550   -8.5200   46.1780 C.ar  426  PHE426     -0.0200
     72  CD1      -15.8310   -8.2820   47.4900 C.ar  426  PHE426     -0.0042
     73  CD2      -16.0190   -7.5500   45.2150 C.ar  426  PHE426     -0.0042
     74  CE1      -15.2180   -7.1240   47.8220 C.ar  426  PHE426     -0.0003
     75  CE2      -15.3860   -6.3710   45.5420 C.ar  426  PHE426     -0.0003
     76  CZ       -15.0130   -6.1330   46.8560 C.ar  426  PHE426     -0.0000
@<TRIPOS>BOND
     1    34    35    1
     2    42    40   ar
     3    42    43   ar
     4    40    39   ar
     5    58    57    1
     6    35    36    1
     7    35    38    1
     8    43    41   ar
     9     6     7    1
    10    24    25    2
    11    24    23    1
    12    39    41   ar
    13    39    38    1
    14    37    36    2
    15    36    44   am
    16    57    59    1
    17    57    56    1
    18    22    23    1
    19    15    13   ar
    20    15    16   ar
    21    13    11   ar
    22     7     8    1
    23     7    10    1
    24    16    14   ar
    25    26    27    1
    26    19    20    2
    27    19    18    1
    28    44    45    1
    29    11    10    1
    30    11    12   ar
    31     8    17   am
    32     8     9    2
    33    17    18    1
    34    46    45    1
    35    46    47    2
    36    56    53    1
    37    14    12   ar
    38    18    21    1
    39    48    49    1
    40    27    28    1
    41    27    30    1
    42    28    29    2
    43    30    31    1
    44    52    53    1
    45    52    50   am
    46    49    50    1
    47    53    54    1
    48    50    51    2
    49    31    32    2
    50    31    33   am
    51    54    55    2
    52    54    60   am
    53     1     2    1
    54    60    61    1
    55     5     2    1
    56     2     3    1
    57    73    75   ar
    58    73    71   ar
    59    61    62    1
    60    61    64    1
    61    75    76   ar
    62    66    62   am
    63    66    67    1
    64    68    67    1
    65    68    69    2
    66     3     4    2
    67    70    71    1
    68    70    67    1
    69    62    63    2
    70    65    64    1
    71    71    72   ar
    72    76    74   ar
    73    72    74   ar
