@<TRIPOS>MOLECULE
tmp/3k4qA00.pdb
 166 158 0 0 0
SMALL
GASTEIGER

@<TRIPOS>ATOM
      1  N          0.7500    1.8510   31.1560 N.3    21  GLN21      -0.1231
      2  CA        -0.4690    2.5100   30.7290 C.3    21  GLN21       0.1698
      3  C         -0.1690    3.6620   29.7380 C.2    21  GLN21       0.2592
      4  O         -1.1120    4.3020   29.2060 O.2    21  GLN21      -0.2718
      5  CB        -1.3190    3.0130   31.9300 C.3    21  GLN21       0.0381
      6  CG        -0.8060    4.3020   32.6520 C.3    21  GLN21       0.0905
      7  CD         0.4840    4.0790   33.4630 C.2    21  GLN21       0.2608
      8  OE1        0.7250    2.9780   33.9300 O.2    21  GLN21      -0.2717
      9  NE2        1.3140    5.1150   33.6020 N.am   21  GLN21      -0.0878
     10  N          1.1220    3.9280   29.5120 N.am   22  TYR22      -0.1976
     11  CA         1.5280    4.7980   28.4100 C.3    22  TYR22       0.1639
     12  C          1.9130    4.0300   27.1260 C.2    22  TYR22       0.2290
     13  O          2.4200    4.6180   26.2010 O.2    22  TYR22      -0.2864
     14  CB         2.6900    5.7580   28.8040 C.3    22  TYR22       0.0560
     15  CG         2.4360    6.6230   30.0280 C.ar   22  TYR22      -0.0198
     16  CD1        1.1310    7.1090   30.3290 C.ar   22  TYR22      -0.0009
     17  CD2        3.4740    6.9310   30.9060 C.ar   22  TYR22      -0.0009
     18  CE1        0.8820    7.9140   31.4280 C.ar   22  TYR22       0.0417
     19  CE2        3.2240    7.7390   32.0590 C.ar   22  TYR22       0.0417
     20  CZ         1.9350    8.1950   32.3160 C.ar   22  TYR22       0.1957
     21  OH         1.7150    9.0000   33.4030 O.3    22  TYR22      -0.2866
     22  N        -10.6310    2.1230   26.9730 N.3    52  ARG52      -0.1231
     23  CA       -10.0200    3.3230   27.4640 C.3    52  ARG52       0.1694
     24  C         -9.9680    4.3620   26.3340 C.2    52  ARG52       0.2592
     25  O        -10.1120    3.9710   25.1880 O.2    52  ARG52      -0.2718
     26  CB        -8.6010    3.0680   27.9220 C.3    52  ARG52       0.0321
     27  CG        -7.9680    4.2720   28.6590 C.3    52  ARG52       0.0489
     28  CD        -6.5460    3.9130   29.0560 C.3    52  ARG52       0.2205
     29  NE        -5.8180    5.0670   29.5480 N.pl3  52  ARG52      -0.0865
     30  CZ        -4.4890    5.1260   29.7330 C.cat  52  ARG52       0.5346
     31  NH1       -3.6830    4.0900   29.5190 N.pl3  52  ARG52       0.1354
     32  NH2       -3.9740    6.2700   30.1040 N.pl3  52  ARG52       0.1354
     33  N         -9.7380    5.6420   26.6680 N.am   53  HIS53      -0.1976
     34  CA        -9.6170    6.6740   25.6630 C.3    53  HIS53       0.1656
     35  C         -8.3010    6.4080   24.9700 C.2    53  HIS53       0.2291
     36  O         -7.5800    5.5110   25.3890 O.2    53  HIS53      -0.2864
     37  CB        -9.6080    8.0510   26.3220 C.3    53  HIS53       0.0771
     38  CG        -8.4870    8.2050   27.2820 C.ar   53  HIS53       0.0820
     39  ND1       -7.1510    8.2660   26.8810 N.ar   53  HIS53      -0.2267
     40  CD2       -8.4960    8.2640   28.6370 C.ar   53  HIS53       0.1154
     41  CE1       -6.3990    8.3300   27.9710 C.ar   53  HIS53       0.1986
     42  NE2       -7.1980    8.3650   29.0380 N.ar   53  HIS53      -0.2212
     43  N         -2.9190   10.1660   24.3490 N.3    56  ARG56      -0.1245
     44  CA        -3.1730   11.5610   24.6380 C.3    56  ARG56       0.1563
     45  C         -1.8900   12.3580   24.8580 C.2    56  ARG56       0.2260
     46  O         -0.7900   11.8180   24.9750 O.2    56  ARG56      -0.2867
     47  CB        -4.0840   11.6810   25.8880 C.3    56  ARG56       0.0307
     48  CG        -3.4630   11.1090   27.1950 C.3    56  ARG56       0.0489
     49  CD        -4.2890   11.5800   28.4180 C.3    56  ARG56       0.2205
     50  NE        -3.8040   10.9430   29.6320 N.pl3  56  ARG56      -0.0865
     51  CZ        -2.7300   11.3070   30.3460 C.cat  56  ARG56       0.5346
     52  NH1       -1.9810   12.3390   30.0030 N.pl3  56  ARG56       0.1354
     53  NH2       -2.3920   10.5980   31.4230 N.pl3  56  ARG56       0.1354
     54  N         -1.1400   15.4520   30.8650 N.3    59  THR59      -0.1218
     55  CA        -2.0840   16.3440   31.5140 C.3    59  THR59       0.1862
     56  C         -1.3620   17.6930   31.6390 C.2    59  THR59       0.2287
     57  O         -0.1480   17.7480   31.4750 O.2    59  THR59      -0.2866
     58  CB        -2.5180   15.8470   32.8860 C.3    59  THR59       0.1770
     59  OG1       -1.3590   15.7890   33.7110 O.3    59  THR59      -0.2211
     60  CG2       -3.2050   14.4240   32.8340 C.3    59  THR59       0.0375
     61  N         -0.8330   19.8490   34.2370 N.3    61  SER61      -0.1202
     62  CA         0.1050   19.5790   35.3200 C.3    61  SER61       0.2020
     63  C          1.4320   18.9120   34.9210 C.2    61  SER61       0.2618
     64  O          2.4960   19.4890   35.1260 O.2    61  SER61      -0.2717
     65  CB        -0.5880   18.6770   36.3050 C.3    61  SER61       0.2103
     66  OG        -0.5820   19.3120   37.5430 O.3    61  SER61      -0.2182
     67  N          1.3710   17.6900   34.3690 N.am   62  LYS62      -0.1979
     68  CA         2.5920   16.9620   34.0580 C.3    62  LYS62       0.1596
     69  C          3.3290   17.6310   32.9420 C.2    62  LYS62       0.2287
     70  O          4.5640   17.6950   32.9460 O.2    62  LYS62      -0.2864
     71  CB         2.3420   15.5090   33.7110 C.3    62  LYS62       0.0298
     72  CG         1.9250   14.6650   34.8840 C.3    62  LYS62       0.0038
     73  CD         3.1100   14.1500   35.6660 C.3    62  LYS62       0.0206
     74  CE         2.6690   13.1870   36.7370 C.3    62  LYS62       0.1093
     75  NZ         3.4510   11.9500   36.4990 N.3    62  LYS62      -0.1314
     76  N         -3.7200   17.3780   27.7020 N.3    97  ASP97      -0.1239
     77  CA        -4.9800   16.6450   28.0030 C.3    97  ASP97       0.1674
     78  C         -5.6630   15.8880   26.8370 C.2    97  ASP97       0.2266
     79  O         -6.1300   14.7600   27.0120 O.2    97  ASP97      -0.2867
     80  CB        -5.9960   17.5540   28.7090 C.3    97  ASP97       0.1410
     81  CG        -5.4880   18.0550   30.0790 C.2    97  ASP97       0.3668
     82  OD1       -5.2830   17.2270   30.9860 O.co2  97  ASP97      -0.2456
     83  OD2       -5.2910   19.2740   30.2380 O.co2  97  ASP97      -0.2456
     84  N        -11.5360   13.7810   26.6190 N.3   136  ARG136     -0.1245
     85  CA       -10.7520   12.8190   25.8500 C.3   136  ARG136      0.1563
     86  C        -11.4720   11.4490   25.7430 C.2   136  ARG136      0.2260
     87  O        -11.3070   10.6900   24.7730 O.2   136  ARG136     -0.2867
     88  CB        -9.3360   12.7060   26.4090 C.3   136  ARG136      0.0307
     89  CG        -9.2310   12.2470   27.9340 C.3   136  ARG136      0.0489
     90  CD        -7.7720   11.8330   28.2900 C.3   136  ARG136      0.2205
     91  NE        -7.6040   11.6430   29.7390 N.pl3 136  ARG136     -0.0865
     92  CZ        -7.3910   12.6560   30.6040 C.cat 136  ARG136      0.5346
     93  NH1       -7.2940   13.8920   30.1370 N.pl3 136  ARG136      0.1354
     94  NH2       -7.2560   12.4220   31.9130 N.pl3 136  ARG136      0.1354
     95  N        -18.3550   13.1060   35.6940 N.3   173  GLU173     -0.1245
     96  CA       -17.2290   12.9300   36.6320 C.3   173  GLU173      0.1567
     97  C        -17.2440   13.9220   37.8180 C.2   173  GLU173      0.2260
     98  O        -16.3230   13.9200   38.6320 O.2   173  GLU173     -0.2867
     99  CB       -15.8590   13.0340   35.9340 C.3   173  GLU173      0.0388
    100  CG       -15.7380   12.1000   34.7700 C.3   173  GLU173      0.1160
    101  CD       -14.3620   12.0740   34.1440 C.2   173  GLU173      0.3649
    102  OE1      -13.4800   12.8500   34.5560 O.co2 173  GLU173     -0.2457
    103  OE2      -14.1620   11.2650   33.2240 O.co2 173  GLU173     -0.2457
    104  N        -15.8220    5.2270   36.5470 N.3   182  ASP182     -0.1239
    105  CA       -14.6380    5.8320   37.2140 C.3   182  ASP182      0.1674
    106  C        -15.0670    6.5460   38.5010 C.2   182  ASP182      0.2266
    107  O        -15.1690    7.7810   38.5160 O.2   182  ASP182     -0.2867
    108  CB       -13.8840    6.8090   36.3080 C.3   182  ASP182      0.1410
    109  CG       -12.4860    7.2060   36.8940 C.2   182  ASP182      0.3668
    110  OD1      -11.5230    6.3650   36.8290 O.co2 182  ASP182     -0.2456
    111  OD2      -12.3370    8.3720   37.4020 O.co2 182  ASP182     -0.2456
    112  N          5.5050    9.8780   25.4030 N.3   237  PHE237     -0.1241
    113  CA         4.8030   11.0420   24.9330 C.3   237  PHE237      0.1605
    114  C          5.4340   11.7190   23.7350 C.2   237  PHE237      0.2264
    115  O          4.7080   12.2300   22.8960 O.2   237  PHE237     -0.2867
    116  CB         4.5860   12.0350   26.0550 C.3   237  PHE237      0.0534
    117  CG         3.5340   11.6050   27.0210 C.ar  237  PHE237     -0.0203
    118  CD1        2.1820   11.7850   26.7320 C.ar  237  PHE237     -0.0042
    119  CD2        3.8840   11.0140   28.2170 C.ar  237  PHE237     -0.0042
    120  CE1        1.1900   11.3850   27.6370 C.ar  237  PHE237     -0.0003
    121  CE2        2.8940   10.5880   29.1280 C.ar  237  PHE237     -0.0003
    122  CZ         1.5560   10.7710   28.8220 C.ar  237  PHE237     -0.0000
    123  N          2.0600    0.9060   40.3810 N.3   271  LYS271     -0.1231
    124  CA         1.1720    2.0220   40.5970 C.3   271  LYS271      0.1693
    125  C         -0.3020    1.6090   40.4050 C.2   271  LYS271      0.2591
    126  O         -1.1980    1.9880   41.1910 O.2   271  LYS271     -0.2718
    127  CB         1.4800    3.1280   39.6070 C.3   271  LYS271      0.0285
    128  CG         2.8460    3.7910   39.6700 C.3   271  LYS271      0.0035
    129  CD         2.6640    5.2270   39.1290 C.3   271  LYS271      0.0206
    130  CE         3.6850    5.5320   38.0630 C.3   271  LYS271      0.1093
    131  NZ         3.5350    6.8770   37.3550 N.3   271  LYS271     -0.1314
    132  N         -0.5610    0.8430   39.3420 N.am  272  LYS272     -0.1980
    133  CA        -1.9320    0.4670   39.0640 C.3   272  LYS272      0.1596
    134  C         -2.3880   -0.6020   40.0460 C.2   272  LYS272      0.2287
    135  O         -3.4680   -0.4590   40.6380 O.2   272  LYS272     -0.2864
    136  CB        -2.0950    0.0550   37.5930 C.3   272  LYS272      0.0298
    137  CG        -1.8710    1.2300   36.6290 C.3   272  LYS272      0.0038
    138  CD        -2.5460    2.5150   37.0990 C.3   272  LYS272      0.0206
    139  CE        -2.4140    3.5740   36.0250 C.3   272  LYS272      0.1093
    140  NZ        -2.8870    4.8990   36.4500 N.3   272  LYS272     -0.1314
    141  N        -11.4480    5.7040   31.7380 N.3   332  HIS332     -0.1226
    142  CA       -10.0440    5.9720   32.0850 C.3   332  HIS332      0.1752
    143  C         -9.4120    4.6650   32.5520 C.2   332  HIS332      0.2596
    144  O        -10.1190    3.7400   32.9340 O.2   332  HIS332     -0.2718
    145  CB        -9.9450    7.0070   33.2370 C.3   332  HIS332      0.0759
    146  CG       -10.6070    8.3140   32.9410 C.ar  332  HIS332      0.0818
    147  ND1       -9.9410    9.3650   32.3320 N.ar  332  HIS332     -0.2268
    148  CD2      -11.8720    8.7470   33.1680 C.ar  332  HIS332      0.1154
    149  CE1      -10.7690   10.3860   32.2020 C.ar  332  HIS332      0.1986
    150  NE2      -11.9390   10.0460   32.7220 N.ar  332  HIS332     -0.2212
    151  N         -8.0780    4.5960   32.5450 N.am  333  ASP333     -0.1960
    152  CA        -7.3750    3.3740   32.9620 C.3   333  ASP333      0.1840
    153  C         -7.6580    2.9500   34.4450 C.2   333  ASP333      0.2622
    154  O         -7.7980    1.7760   34.7480 O.2   333  ASP333     -0.2715
    155  CB        -5.8900    3.5550   32.7330 C.3   333  ASP333      0.1450
    156  CG        -5.3420    4.7630   33.4600 C.2   333  ASP333      0.3671
    157  OD1       -6.0260    5.3800   34.2910 O.co2 333  ASP333     -0.2456
    158  OD2       -4.2340    5.1730   33.1710 O.co2 333  ASP333     -0.2456
    159  N         -7.7730    3.9170   35.3440 N.am  334  ASN334     -0.1972
    160  CA        -7.8490    3.6150   36.7500 C.3   334  ASN334      0.1688
    161  C         -9.1530    2.9100   37.0460 C.2   334  ASN334      0.2292
    162  O         -9.1660    1.9580   37.8130 O.2   334  ASN334     -0.2864
    163  CB        -7.7230    4.9000   37.6350 C.3   334  ASN334      0.1181
    164  CG        -6.2880    5.4710   37.7090 C.2   334  ASN334      0.2629
    165  OD1       -5.2640    4.7970   37.3960 O.2   334  ASN334     -0.2716
    166  ND2       -6.2050    6.7500   38.1300 N.am  334  ASN334     -0.0877
@<TRIPOS>BOND
     1   115   114    2
     2   114   113    1
     3    43    44    1
     4    44    45    1
     5    44    47    1
     6    87    86    2
     7    45    46    2
     8   113   112    1
     9   113   116    1
    10    35    36    2
    11    35    34    1
    12    25    24    2
    13    34    37    1
    14    34    33    1
    15    86    85    1
    16    85    88    1
    17    85    84    1
    18    47    48    1
    19   116   117    1
    20    13    12    2
    21    37    38    1
    22    24    33   am
    23    24    23    1
    24    88    89    1
    25   118   117   ar
    26   118   120   ar
    27    78    79    2
    28    78    77    1
    29    39    38   ar
    30    39    41   ar
    31    22    23    1
    32   117   119   ar
    33    12    11    1
    34    48    49    1
    35    38    40   ar
    36    23    26    1
    37   120   122   ar
    38    76    77    1
    39    26    27    1
    40    89    90    1
    41    41    42   ar
    42    77    80    1
    43   119   121   ar
    44    90    91    1
    45    11    14    1
    46    11    10    1
    47    49    50    1
    48    40    42   ar
    49    27    28    1
    50    80    81    1
    51    14    15    1
    52   122   121   ar
    53    28    29    1
    54     4     3    2
    55    10     3   am
    56    31    30    1
    57    29    30    2
    58    50    51    2
    59    30    32    1
    60     3     2    1
    61    91    92    2
    62    52    51    1
    63    15    16   ar
    64    15    17   ar
    65    81    83   ar
    66    81    82   ar
    67    93    92    1
    68    16    18   ar
    69    51    53    1
    70    92    94    1
    71     2     1    1
    72     2     5    1
    73    54    55    1
    74    17    19   ar
    75    18    20   ar
    76    57    56    2
    77    55    56    1
    78    55    58    1
    79   141   142    1
    80     5     6    1
    81    19    20   ar
    82   142   143    1
    83   142   145    1
    84   149   147   ar
    85   149   150   ar
    86    20    21    1
    87   147   146   ar
    88   151   143   am
    89   151   152    1
    90   143   144    2
    91     6     7    1
    92   150   148   ar
    93   155   152    1
    94   155   156    1
    95    60    58    1
    96    58    59    1
    97   146   148   ar
    98   146   145    1
    99    69    70    2
   100    69    68    1
   101   152   153    1
   102   158   156   ar
   103   103   101   ar
   104   156   157   ar
   105     7     9   am
   106     7     8    2
   107    71    68    1
   108    71    72    1
   109    68    67    1
   110   101   102   ar
   111   101   100    1
   112    61    62    1
   113    67    63   am
   114   153   154    2
   115   153   159   am
   116   100    99    1
   117    72    73    1
   118    63    64    2
   119    63    62    1
   120    62    65    1
   121   159   160    1
   122    73    74    1
   123    95    96    1
   124    99    96    1
   125   139   140    1
   126   139   138    1
   127    65    66    1
   128   108   109    1
   129   108   105    1
   130    75    74    1
   131   104   105    1
   132   137   138    1
   133   137   136    1
   134    96    97    1
   135   160   161    1
   136   160   163    1
   137   110   109   ar
   138   109   111   ar
   139   161   162    2
   140   105   106    1
   141   131   130    1
   142   165   164    2
   143   136   133    1
   144   163   164    1
   145   164   166   am
   146    97    98    2
   147   130   129    1
   148   106   107    2
   149   133   132    1
   150   133   134    1
   151   129   128    1
   152   132   125   am
   153   127   128    1
   154   127   124    1
   155   134   135    2
   156   123   124    1
   157   125   124    1
   158   125   126    2
