@<TRIPOS>MOLECULE
tmp/3k4qA02.pdb
 86 84 0 0 0
SMALL
GASTEIGER

@<TRIPOS>ATOM
      1  N        -22.4780    9.6190   41.0090 N.3   178  ASN178     -0.1240
      2  CA       -22.3100    8.1690   40.9350 C.3   178  ASN178      0.1653
      3  C        -21.9370    7.7620   39.5150 C.2   178  ASN178      0.2266
      4  O        -22.7930    7.7850   38.6530 O.2   178  ASN178     -0.2867
      5  CB       -23.5770    7.4230   41.4050 C.3   178  ASN178      0.1155
      6  CG       -23.8630    7.6300   42.8840 C.2   178  ASN178      0.2627
      7  OD1      -23.0830    8.2500   43.5920 O.2   178  ASN178     -0.2716
      8  ND2      -24.9880    7.1170   43.3490 N.am  178  ASN178     -0.0877
      9  N        -16.5560    8.8400   44.4940 N.3   185  THR185     -0.1218
     10  CA       -17.3110    9.1390   45.6960 C.3   185  THR185      0.1862
     11  C        -16.8730    8.3430   46.9270 C.2   185  THR185      0.2287
     12  O        -17.4370    8.5490   47.9840 O.2   185  THR185     -0.2866
     13  CB       -18.8560    8.8700   45.5180 C.3   185  THR185      0.1770
     14  OG1      -19.0750    7.5450   44.9750 O.3   185  THR185     -0.2211
     15  CG2      -19.4950    9.9200   44.6370 C.3   185  THR185      0.0375
     16  N        -25.6040   -0.7920   45.2300 N.3   306  ASP306     -0.1225
     17  CA       -25.6750    0.4010   46.0250 C.3   306  ASP306      0.1805
     18  C        -24.3240    1.0230   46.2850 C.2   306  ASP306      0.2598
     19  O        -24.1110    1.6850   47.3070 O.2   306  ASP306     -0.2718
     20  CB       -26.3840    0.0990   47.3340 C.3   306  ASP306      0.1424
     21  CG       -27.8150    0.5500   47.2940 C.2   306  ASP306      0.3668
     22  OD1      -28.6650   -0.2060   46.7430 O.co2 306  ASP306     -0.2456
     23  OD2      -28.0580    1.7050   47.7720 O.co2 306  ASP306     -0.2456
     24  N        -23.4180    0.8330   45.3310 N.am  307  THR307     -0.1953
     25  CA       -22.1260    1.4680   45.3940 C.3   307  THR307      0.1897
     26  C        -21.9890    2.6860   44.4400 C.2   307  THR307      0.2313
     27  O        -22.3750    3.8140   44.7810 O.2   307  THR307     -0.2863
     28  CB       -21.0490    0.4020   45.1250 C.3   307  THR307      0.1794
     29  OG1      -21.0820    0.0190   43.7440 O.3   307  THR307     -0.2208
     30  CG2      -21.2960   -0.8310   46.0240 C.3   307  THR307      0.0378
     31  N        -23.2900    3.0590   41.3340 N.3   309  SER309     -0.1202
     32  CA       -24.2560    3.1910   40.2880 C.3   309  SER309      0.2020
     33  C        -25.2070    4.3710   40.5300 C.2   309  SER309      0.2619
     34  O        -25.5430    4.7200   41.6780 O.2   309  SER309     -0.2717
     35  CB       -25.0000    1.8750   40.0750 C.3   309  SER309      0.2103
     36  OG       -26.0660    1.7650   40.9710 O.3   309  SER309     -0.2182
     37  N        -25.5840    5.0280   39.4510 N.am  310  ASN310     -0.1960
     38  CA       -26.6130    6.0190   39.5070 C.3   310  ASN310      0.1819
     39  C        -27.9760    5.3250   39.2050 C.2   310  ASN310      0.2621
     40  O        -28.1610    4.7570   38.1170 O.2   310  ASN310     -0.2715
     41  CB       -26.2470    7.1400   38.5270 C.3   310  ASN310      0.1195
     42  CG       -27.2600    8.2450   38.4960 C.2   310  ASN310      0.2630
     43  OD1      -28.4340    7.9840   38.6750 O.2   310  ASN310     -0.2716
     44  ND2      -26.8190    9.4750   38.2570 N.am  310  ASN310     -0.0877
     45  N        -28.8920    5.3680   40.1840 N.am  311  HIS311     -0.1959
     46  CA       -30.2030    4.7100   40.1410 C.3   311  HIS311      0.1787
     47  C        -31.1600    5.4330   39.1940 C.2   311  HIS311      0.2620
     48  O        -32.0600    4.8310   38.6230 O.2   311  HIS311     -0.2715
     49  CB       -30.8310    4.6300   41.5450 C.3   311  HIS311      0.0785
     50  CG       -30.0360    3.8150   42.5160 C.ar  311  HIS311      0.0821
     51  ND1      -29.9040    2.4500   42.4110 N.ar  311  HIS311     -0.2267
     52  CD2      -29.3070    4.1710   43.5930 C.ar  311  HIS311      0.1154
     53  CE1      -29.1400    1.9990   43.3870 C.ar  311  HIS311      0.1986
     54  NE2      -28.7630    3.0250   44.1200 N.ar  311  HIS311     -0.2212
     55  N        -30.9760    6.7300   39.0320 N.am  312  THR312     -0.1951
     56  CA       -31.8590    7.4350   38.1220 C.3   312  THR312      0.1897
     57  C        -31.5540    6.9250   36.7170 C.2   312  THR312      0.2313
     58  O        -32.4820    6.5580   35.9500 O.2   312  THR312     -0.2863
     59  CB       -31.6750    8.9480   38.1900 C.3   312  THR312      0.1794
     60  OG1      -32.0230    9.3910   39.4860 O.3   312  THR312     -0.2208
     61  CG2      -32.6170    9.6520   37.1880 C.3   312  THR312      0.0378
     62  N        -17.7120   -1.4500   49.9200 N.3   433  TRP433     -0.1241
     63  CA       -18.1730   -0.1060   49.7590 C.3   433  TRP433      0.1605
     64  C        -18.5920    0.5340   51.1120 C.2   433  TRP433      0.2264
     65  O        -18.4520    1.7660   51.2910 O.2   433  TRP433     -0.2867
     66  CB       -19.3130   -0.0510   48.7250 C.3   433  TRP433      0.0550
     67  CG       -19.6790    1.3620   48.3450 C.ar  433  TRP433      0.0003
     68  CD1      -20.6330    2.1250   48.9280 C.ar  433  TRP433      0.0946
     69  CD2      -19.0420    2.1910   47.3650 C.ar  433  TRP433      0.0152
     70  NE1      -20.6440    3.3870   48.3760 N.ar  433  TRP433     -0.2442
     71  CE2      -19.6790    3.4550   47.4080 C.ar  433  TRP433      0.0810
     72  CE3      -18.0220    1.9840   46.4290 C.ar  433  TRP433      0.0012
     73  CZ2      -19.3360    4.5010   46.5580 C.ar  433  TRP433      0.0191
     74  CZ3      -17.6710    3.0490   45.5640 C.ar  433  TRP433      0.0001
     75  CH2      -18.3420    4.2840   45.6420 C.ar  433  TRP433      0.0015
     76  N        -16.6600    5.0470   54.1240 N.3   437  PHE437     -0.1241
     77  CA       -17.1180    6.0650   55.0600 C.3   437  PHE437      0.1605
     78  C        -16.6590    5.7480   56.5150 C.2   437  PHE437      0.2264
     79  O        -16.2520    6.6170   57.2290 O.2   437  PHE437     -0.2867
     80  CB       -18.6270    6.2450   54.8900 C.3   437  PHE437      0.0534
     81  CG       -19.0300    6.4390   53.4570 C.ar  437  PHE437     -0.0203
     82  CD1      -18.6200    7.5820   52.7590 C.ar  437  PHE437     -0.0042
     83  CD2      -19.7600    5.4540   52.7840 C.ar  437  PHE437     -0.0042
     84  CE1      -18.9340    7.7550   51.4110 C.ar  437  PHE437     -0.0003
     85  CE2      -20.1160    5.6110   51.4240 C.ar  437  PHE437     -0.0003
     86  CZ       -19.6960    6.7680   50.7350 C.ar  437  PHE437     -0.0000
@<TRIPOS>BOND
     1    58    57    2
     2    57    56    1
     3    61    59    1
     4    40    39    2
     5    56    59    1
     6    56    55    1
     7    59    60    1
     8    44    42   am
     9    42    41    1
    10    42    43    2
    11    41    38    1
    12    48    47    2
    13     4     3    2
    14    55    47   am
    15    47    46    1
    16    39    38    1
    17    39    45   am
    18    37    38    1
    19    37    33   am
    20     3     2    1
    21    35    32    1
    22    35    36    1
    23    46    45    1
    24    46    49    1
    25    32    33    1
    26    32    31    1
    27    33    34    2
    28     2     1    1
    29     2     5    1
    30     5     6    1
    31    49    50    1
    32    51    50   ar
    33    51    53   ar
    34    50    52   ar
    35     6     8   am
    36     6     7    2
    37    53    54   ar
    38    52    54   ar
    39    29    28    1
    40    26    27    2
    41    26    25    1
    42     9    10    1
    43    15    13    1
    44    14    13    1
    45    28    25    1
    46    28    30    1
    47    16    17    1
    48    24    25    1
    49    24    18   am
    50    13    10    1
    51    74    75   ar
    52    74    72   ar
    53    75    73   ar
    54    10    11    1
    55    17    18    1
    56    17    20    1
    57    18    19    2
    58    72    69   ar
    59    73    71   ar
    60    22    21   ar
    61    11    12    2
    62    21    20    1
    63    21    23   ar
    64    69    71   ar
    65    69    67   ar
    66    71    70   ar
    67    67    66    1
    68    67    68   ar
    69    70    68   ar
    70    66    63    1
    71    63    62    1
    72    63    64    1
    73    86    84   ar
    74    86    85   ar
    75    64    65    2
    76    84    82   ar
    77    85    83   ar
    78    82    81   ar
    79    83    81   ar
    80    81    80    1
    81    76    77    1
    82    80    77    1
    83    77    78    1
    84    78    79    2
