@<TRIPOS>MOLECULE
tmp/3k4uE00.pdb
 128 122 0 0 0
SMALL
GASTEIGER

@<TRIPOS>ATOM
      1  N        -15.5440  -19.8800   31.1350 N.3    11  GLU11      -0.1231
      2  CA       -16.8100  -19.7500   31.8270 C.3    11  GLU11       0.1684
      3  C        -17.4280  -21.1250   31.9370 C.2    11  GLU11       0.2434
      4  O        -17.7780  -21.7410   30.9120 O.2    11  GLU11      -0.2733
      5  CB       -17.7530  -18.7960   31.0910 C.3    11  GLU11       0.0402
      6  CG       -18.8990  -18.2880   31.9860 C.3    11  GLU11       0.1161
      7  CD       -20.0870  -17.7740   31.2110 C.2    11  GLU11       0.3649
      8  OE1      -20.4580  -18.4290   30.2080 O.co2  11  GLU11      -0.2457
      9  OE2      -20.6680  -16.7300   31.6090 O.co2  11  GLU11      -0.2457
     10  N        -17.5340  -21.6470   33.1630 N.am   12  PRO12      -0.2729
     11  CA       -18.0300  -23.0150   33.2070 C.3    12  PRO12       0.1401
     12  C        -19.4920  -23.1440   32.8040 C.2    12  PRO12       0.2269
     13  O        -20.2790  -22.2040   32.9640 O.2    12  PRO12      -0.2865
     14  CB       -17.8080  -23.4010   34.6560 C.3    12  PRO12       0.0296
     15  CG       -16.5150  -22.6470   35.0040 C.3    12  PRO12       0.0237
     16  CD       -16.7600  -21.3060   34.3710 C.3    12  PRO12       0.0939
     17  N        -20.7610  -24.3650   29.6660 N.3    14  TYR14      -0.1241
     18  CA       -20.8930  -24.7660   28.2860 C.3    14  TYR14       0.1605
     19  C        -20.4070  -26.1890   28.1950 C.2    14  TYR14       0.2264
     20  O        -19.2500  -26.4230   27.8520 O.2    14  TYR14      -0.2867
     21  CB       -20.0130  -23.8790   27.4050 C.3    14  TYR14       0.0534
     22  CG       -20.0560  -24.1440   25.9130 C.ar   14  TYR14      -0.0201
     23  CD1      -19.1290  -23.5370   25.0700 C.ar   14  TYR14      -0.0009
     24  CD2      -21.0140  -24.9860   25.3360 C.ar   14  TYR14      -0.0009
     25  CE1      -19.1560  -23.7330   23.7060 C.ar   14  TYR14       0.0417
     26  CE2      -21.0400  -25.2040   23.9570 C.ar   14  TYR14       0.0417
     27  CZ       -20.1080  -24.5750   23.1590 C.ar   14  TYR14       0.1957
     28  OH       -20.1110  -24.7810   21.8020 O.3    14  TYR14      -0.2866
     29  N        -19.0360  -14.4670   31.1930 N.3    49  TRP49      -0.1241
     30  CA       -18.7930  -14.4420   29.7560 C.3    49  TRP49       0.1605
     31  C        -18.4240  -13.0490   29.2240 C.2    49  TRP49       0.2264
     32  O        -17.5190  -12.9030   28.3790 O.2    49  TRP49      -0.2867
     33  CB       -19.9880  -15.0270   28.9810 C.3    49  TRP49       0.0550
     34  CG       -19.7260  -15.0280   27.5560 C.ar   49  TRP49       0.0003
     35  CD1      -20.1090  -14.0830   26.6490 C.ar   49  TRP49       0.0946
     36  CD2      -18.9370  -15.9840   26.8410 C.ar   49  TRP49       0.0152
     37  NE1      -19.6170  -14.4050   25.4070 N.ar   49  TRP49      -0.2442
     38  CE2      -18.9020  -15.5680   25.4950 C.ar   49  TRP49       0.0810
     39  CE3      -18.2670  -17.1600   27.2080 C.ar   49  TRP49       0.0012
     40  CZ2      -18.2160  -16.2780   24.5080 C.ar   49  TRP49       0.0191
     41  CZ3      -17.5680  -17.8670   26.2290 C.ar   49  TRP49       0.0001
     42  CH2      -17.5600  -17.4260   24.8860 C.ar   49  TRP49       0.0015
     43  N        -12.4900  -21.2760   25.9290 N.3    66  SER66      -0.1202
     44  CA       -13.8490  -21.2980   26.4240 C.3    66  SER66       0.2020
     45  C        -14.8180  -21.6160   25.3110 C.2    66  SER66       0.2619
     46  O        -15.9640  -21.2280   25.3660 O.2    66  SER66      -0.2717
     47  CB       -14.1940  -19.9390   27.0170 C.3    66  SER66       0.2103
     48  OG       -15.0670  -20.1070   28.1230 O.3    66  SER66      -0.2182
     49  N        -14.3460  -22.2920   24.2740 N.am   67  GLY67      -0.1956
     50  CA       -15.2280  -22.6850   23.1730 C.3    67  GLY67       0.1869
     51  C        -15.8010  -21.4790   22.4830 C.2    67  GLY67       0.2309
     52  O        -16.9610  -21.4270   22.1970 O.2    67  GLY67      -0.2863
     53  N        -16.4030  -18.5820   19.6800 N.3    68  THR68      -0.1218
     54  CA       -16.5810  -18.4700   18.2370 C.3    68  THR68       0.1862
     55  C        -15.6030  -17.4200   17.7320 C.2    68  THR68       0.2287
     56  O        -15.4110  -16.4010   18.3770 O.2    68  THR68      -0.2866
     57  CB       -18.0320  -18.0460   17.9380 C.3    68  THR68       0.1770
     58  OG1      -18.9000  -19.1580   18.2010 O.3    68  THR68      -0.2211
     59  CG2      -18.2380  -17.5630   16.4820 C.3    68  THR68       0.0375
     60  N        -15.3960   -9.7610   17.3620 N.3    73  ARG73      -0.1245
     61  CA       -14.4650  -10.0260   18.4480 C.3    73  ARG73       0.1563
     62  C        -13.0420   -9.9550   17.9530 C.2    73  ARG73       0.2260
     63  O        -12.1440   -9.5530   18.7030 O.2    73  ARG73      -0.2867
     64  CB       -14.6740  -11.4200   19.0300 C.3    73  ARG73       0.0307
     65  CG       -15.8350  -11.5420   19.9230 C.3    73  ARG73       0.0489
     66  CD       -16.2070  -12.9840   20.0460 C.3    73  ARG73       0.2205
     67  NE       -17.5820  -13.1320   20.5140 N.pl3  73  ARG73      -0.0865
     68  CZ       -18.1420  -14.3050   20.8180 C.cat  73  ARG73       0.5346
     69  NH1      -17.4280  -15.4170   20.7240 N.pl3  73  ARG73       0.1354
     70  NH2      -19.4030  -14.3750   21.2330 N.pl3  73  ARG73       0.1354
     71  N        -28.9630  -18.2210   26.1320 N.3   116  LYS116     -0.1245
     72  CA       -28.1840  -17.4460   27.0570 C.3   116  LYS116      0.1561
     73  C        -27.9260  -16.0430   26.4930 C.2   116  LYS116      0.2260
     74  O        -27.9050  -15.8530   25.2610 O.2   116  LYS116     -0.2867
     75  CB       -26.8660  -18.1600   27.3320 C.3   116  LYS116      0.0271
     76  CG       -25.7940  -17.2560   27.9910 C.3   116  LYS116      0.0035
     77  CD       -24.4410  -17.9450   27.8900 C.3   116  LYS116      0.0206
     78  CE       -23.4080  -17.2780   28.7350 C.3   116  LYS116      0.1093
     79  NZ       -23.7110  -17.4340   30.1680 N.3   116  LYS116     -0.1314
     80  N        -24.4810  -14.1110   23.5100 N.3   119  VAL119     -0.1231
     81  CA       -23.6680  -15.2570   23.1300 C.3   119  VAL119      0.1692
     82  C        -23.9840  -15.6620   21.6560 C.2   119  VAL119      0.2592
     83  O        -25.0470  -15.3210   21.1340 O.2   119  VAL119     -0.2718
     84  CB       -23.9620  -16.3750   24.1440 C.3   119  VAL119      0.0266
     85  CG1      -24.6420  -17.5350   23.5130 C.3   119  VAL119      0.0020
     86  CG2      -22.7540  -16.7630   24.8420 C.3   119  VAL119      0.0020
     87  N        -23.0750  -16.3810   20.9970 N.am  120  SER120     -0.1952
     88  CA       -23.2360  -16.7480   19.5910 C.3   120  SER120      0.1924
     89  C        -24.6810  -17.0070   19.2280 C.2   120  SER120      0.2314
     90  O        -25.1820  -16.4710   18.2460 O.2   120  SER120     -0.2863
     91  CB       -22.4620  -18.0120   19.2570 C.3   120  SER120      0.2116
     92  OG       -21.2340  -17.7160   18.6590 O.3   120  SER120     -0.2180
     93  N        -26.8830  -21.1280   30.3010 N.3   140  GLU140     -0.1245
     94  CA       -27.3890  -22.0910   29.3450 C.3   140  GLU140      0.1567
     95  C        -28.4420  -22.8930   30.0410 C.2   140  GLU140      0.2260
     96  O        -29.5360  -23.0960   29.5050 O.2   140  GLU140     -0.2867
     97  CB       -26.2830  -23.0570   28.8910 C.3   140  GLU140      0.0388
     98  CG       -25.2150  -22.4690   28.0030 C.3   140  GLU140      0.1160
     99  CD       -24.0080  -21.9570   28.7620 C.2   140  GLU140      0.3649
    100  OE1      -22.8610  -22.2300   28.3260 O.co2 140  GLU140     -0.2457
    101  OE2      -24.1920  -21.2840   29.8020 O.co2 140  GLU140     -0.2457
    102  N        -28.6120  -23.2260   20.7170 N.3   156  PHE156     -0.1227
    103  CA       -27.2590  -23.1330   21.2290 C.3   156  PHE156      0.1736
    104  C        -26.3530  -24.0160   20.3910 C.2   156  PHE156      0.2595
    105  O        -26.8340  -24.8310   19.6130 O.2   156  PHE156     -0.2718
    106  CB       -27.2310  -23.5950   22.6980 C.3   156  PHE156      0.0547
    107  CG       -26.1270  -22.9890   23.4880 C.ar  156  PHE156     -0.0202
    108  CD1      -26.3010  -21.7590   24.1160 C.ar  156  PHE156     -0.0042
    109  CD2      -24.9110  -23.6360   23.6050 C.ar  156  PHE156     -0.0042
    110  CE1      -25.2550  -21.1790   24.8260 C.ar  156  PHE156     -0.0003
    111  CE2      -23.8710  -23.0670   24.3110 C.ar  156  PHE156     -0.0003
    112  CZ       -24.0410  -21.8380   24.9270 C.ar  156  PHE156     -0.0000
    113  N        -25.0470  -23.8330   20.5700 N.am  157  ASP157     -0.1974
    114  CA       -24.0390  -24.6940   20.0130 C.3   157  ASP157      0.1709
    115  C        -24.4400  -26.1550   20.1540 C.2   157  ASP157      0.2293
    116  O        -24.8420  -26.6200   21.2250 O.2   157  ASP157     -0.2864
    117  CB       -22.6770  -24.4440   20.6670 C.3   157  ASP157      0.1436
    118  CG       -22.1590  -23.0110   20.4560 C.2   157  ASP157      0.3671
    119  OD1      -20.9130  -22.7870   20.4450 O.co2 157  ASP157     -0.2456
    120  OD2      -22.9970  -22.1050   20.3170 O.co2 157  ASP157     -0.2456
    121  N        -14.4040  -22.3210   16.2080 N.3   184  LEU184     -0.1245
    122  CA       -14.1130  -22.0460   17.5810 C.3   184  LEU184      0.1561
    123  C        -12.5860  -21.8930   17.7010 C.2   184  LEU184      0.2260
    124  O        -11.8380  -22.7550   17.1990 O.2   184  LEU184     -0.2867
    125  CB       -14.6560  -23.2180   18.4000 C.3   184  LEU184      0.0270
    126  CG       -15.9990  -23.1250   19.1430 C.3   184  LEU184      0.0019
    127  CD1      -17.0610  -22.2020   18.5600 C.3   184  LEU184      0.0001
    128  CD2      -16.5620  -24.4660   19.3720 C.3   184  LEU184      0.0001
@<TRIPOS>BOND
     1   121   122    1
     2    59    57    1
     3   124   123    2
     4    60    61    1
     5   122   123    1
     6   122   125    1
     7    55    54    1
     8    55    56    2
     9    57    58    1
    10    57    54    1
    11    62    61    1
    12    62    63    2
    13    54    53    1
    14    90    89    2
    15   125   126    1
    16    61    64    1
    17   127   126    1
    18    92    91    1
    19    64    65    1
    20   126   128    1
    21    89    88    1
    22    91    88    1
    23    88    87    1
    24   105   104    2
    25    65    66    1
    26   114   115    1
    27   114   113    1
    28   114   117    1
    29    66    67    1
    30   115   116    2
    31   120   118   ar
    32   104   113   am
    33   104   103    1
    34   119   118   ar
    35   118   117    1
    36    67    68    2
    37   102   103    1
    38    69    68    1
    39    68    70    1
    40    87    82   am
    41    83    82    2
    42   103   106    1
    43    82    81    1
    44    28    27    1
    45    52    51    2
    46    51    50    1
    47   106   107    1
    48    81    80    1
    49    81    84    1
    50    27    25   ar
    51    27    26   ar
    52    50    49    1
    53   107   109   ar
    54   107   108   ar
    55    85    84    1
    56   109   111   ar
    57    25    23   ar
    58    26    24   ar
    59   108   110   ar
    60    84    86    1
    61    49    45   am
    62   111   112   ar
    63    40    42   ar
    64    40    38   ar
    65   110   112   ar
    66    42    41   ar
    67    23    22   ar
    68    74    73    2
    69    45    46    2
    70    45    44    1
    71    24    22   ar
    72    37    38   ar
    73    37    35   ar
    74    38    36   ar
    75    22    21    1
    76    43    44    1
    77    71    72    1
    78    41    39   ar
    79    44    47    1
    80    73    72    1
    81    35    34   ar
    82    36    39   ar
    83    36    34   ar
    84    47    48    1
    85    72    75    1
    86    75    76    1
    87    21    18    1
    88    34    33    1
    89    20    19    2
    90    77    76    1
    91    77    78    1
    92    98    99    1
    93    98    97    1
    94    19    18    1
    95    18    17    1
    96   100    99   ar
    97    32    31    2
    98    78    79    1
    99    99   101   ar
   100    97    94    1
   101    33    30    1
   102    31    30    1
   103    94    95    1
   104    94    93    1
   105    96    95    2
   106    30    29    1
   107     8     7   ar
   108     4     3    2
   109     5     2    1
   110     5     6    1
   111     1     2    1
   112     7     9   ar
   113     7     6    1
   114     2     3    1
   115     3    10   am
   116    12    13    2
   117    12    11    1
   118    10    11    1
   119    10    16    1
   120    11    14    1
   121    16    15    1
   122    14    15    1
