@<TRIPOS>MOLECULE
tmp/3k4yA00.pdb
 103 94 0 0 0
SMALL
GASTEIGER

@<TRIPOS>ATOM
      1  N         57.4050   10.5980   17.1510 N.3     6  LYS6       -0.1245
      2  CA        56.5050   10.7390   16.0230 C.3     6  LYS6        0.1561
      3  C         56.2310    9.3850   15.4070 C.2     6  LYS6        0.2260
      4  O         57.1470    8.7140   14.9360 O.2     6  LYS6       -0.2867
      5  CB        57.0720   11.6790   14.9640 C.3     6  LYS6        0.0271
      6  CG        56.1690   11.7870   13.7410 C.3     6  LYS6        0.0035
      7  CD        56.7450   12.7130   12.6810 C.3     6  LYS6        0.0206
      8  CE        55.9920   12.5570   11.3700 C.3     6  LYS6        0.1093
      9  NZ        54.5240   12.5210   11.6180 N.3     6  LYS6       -0.1314
     10  N         47.7050    4.3410    3.7730 N.3    15  LYS15      -0.1245
     11  CA        46.9390    5.4380    3.1900 C.3    15  LYS15       0.1561
     12  C         46.2740    5.0840    1.8600 C.2    15  LYS15       0.2260
     13  O         45.4040    5.8120    1.3840 O.2    15  LYS15      -0.2867
     14  CB        47.8120    6.6790    3.0400 C.3    15  LYS15       0.0271
     15  CG        49.1920    6.4060    2.4750 C.3    15  LYS15       0.0035
     16  CD        50.1360    7.5320    2.8580 C.3    15  LYS15       0.0206
     17  CE        49.3820    8.8620    2.9370 C.3    15  LYS15       0.1093
     18  NZ        50.1350    9.8770    3.7320 N.3    15  LYS15      -0.1314
     19  N         50.1140   11.2150   12.2570 N.3    54  GLY54      -0.1210
     20  CA        49.5610   11.9000   11.1000 C.3    54  GLY54       0.1956
     21  C         48.1620   11.4130   10.8020 C.2    54  GLY54       0.2612
     22  O         47.4890   10.8610   11.6780 O.2    54  GLY54      -0.2717
     23  N         47.7230   11.6100    9.5610 N.am   55  GLY55      -0.1942
     24  CA        46.3480   11.3180    9.1790 C.3    55  GLY55       0.2014
     25  C         46.1590    9.9080    8.6690 C.2    55  GLY55       0.2639
     26  O         45.0530    9.3710    8.6990 O.2    55  GLY55      -0.2714
     27  N         47.2420    9.3030    8.1990 N.am   56  GLY56      -0.1954
     28  CA        47.1640    7.9670    7.6270 C.3    56  GLY56       0.1869
     29  C         46.0320    7.8930    6.6270 C.2    56  GLY56       0.2309
     30  O         45.8540    8.7960    5.8090 O.2    56  GLY56      -0.2863
     31  N         43.0150   11.1370    7.3910 N.3    59  GLY59      -0.1210
     32  CA        43.1120   12.5390    7.0040 C.3    59  GLY59       0.1956
     33  C         43.0400   12.8240    5.5100 C.2    59  GLY59       0.2611
     34  O         42.0320   13.3200    5.0100 O.2    59  GLY59      -0.2717
     35  N         44.1140   12.5160    4.7950 N.am   60  HIS60      -0.1975
     36  CA        44.2370   12.9350    3.4030 C.3    60  HIS60       0.1656
     37  C         43.0890   12.4820    2.4970 C.2    60  HIS60       0.2291
     38  O         42.6000   13.2600    1.6830 O.2    60  HIS60      -0.2864
     39  CB        45.5990   12.5360    2.8250 C.3    60  HIS60       0.0771
     40  CG        46.7060   13.4780    3.1950 C.ar   60  HIS60       0.0820
     41  ND1       46.7440   14.7890    2.7640 N.ar   60  HIS60      -0.2267
     42  CD2       47.8130   13.3010    3.9570 C.ar   60  HIS60       0.1154
     43  CE1       47.8260   15.3780    3.2430 C.ar   60  HIS60       0.1986
     44  NE2       48.4930   14.4970    3.9690 N.ar   60  HIS60      -0.2212
     45  N         40.3000   14.7270    3.1940 N.3    63  ALA63      -0.1245
     46  CA        40.6590   16.1010    2.8600 C.3    63  ALA63       0.1562
     47  C         40.7140   16.3170    1.3460 C.2    63  ALA63       0.2260
     48  O         40.3200   17.3710    0.8460 O.2    63  ALA63      -0.2867
     49  CB        41.9830   16.4740    3.5020 C.3    63  ALA63       0.0290
     50  N         36.8130   16.3730    8.1190 N.3    86  ILE86      -0.1245
     51  CA        38.2040   16.0670    8.3960 C.3    86  ILE86       0.1561
     52  C         38.4320   15.9240    9.9030 C.2    86  ILE86       0.2260
     53  O         39.1480   15.0270   10.3470 O.2    86  ILE86      -0.2867
     54  CB        39.1320   17.1360    7.7940 C.3    86  ILE86       0.0252
     55  CG1       39.0280   17.1090    6.2630 C.3    86  ILE86       0.0019
     56  CG2       40.5700   16.9160    8.2390 C.3    86  ILE86       0.0019
     57  CD1       39.4560   18.4020    5.5880 C.3    86  ILE86       0.0001
     58  N         39.8120   12.4520   11.6980 N.3    90  MET90      -0.1245
     59  CA        40.9660   12.4900   12.6060 C.3    90  MET90       0.1570
     60  C         40.5920   12.1040   14.0530 C.2    90  MET90       0.2261
     61  O         41.3840   11.4720   14.7480 O.2    90  MET90      -0.2867
     62  CB        41.6640   13.8550   12.5780 C.3    90  MET90       0.0387
     63  CG        42.3640   14.1990   11.2690 C.3    90  MET90       0.0595
     64  SD        43.4720   12.9140   10.6500 S.3    90  MET90      -0.1393
     65  CE        44.4160   12.5100   12.1260 C.3    90  MET90       0.0692
     66  N         48.0250   15.2990   13.4330 N.3   144  GLY144     -0.1210
     67  CA        47.8150   16.1410   12.2710 C.3   144  GLY144      0.1956
     68  C         46.3300   16.4150   12.1520 C.2   144  GLY144      0.2611
     69  O         45.5060   15.5390   12.4250 O.2   144  GLY144     -0.2717
     70  N         45.9840   17.6300   11.7370 N.am  145  ASP145     -0.1973
     71  CA        44.5920   18.0400   11.7300 C.3   145  ASP145      0.1709
     72  C         44.3290   19.1660   10.7230 C.2   145  ASP145      0.2293
     73  O         45.2570   19.7680   10.1690 O.2   145  ASP145     -0.2864
     74  CB        44.1890   18.4830   13.1400 C.3   145  ASP145      0.1436
     75  CG        42.7090   18.2890   13.4230 C.2   145  ASP145      0.3671
     76  OD1       41.9780   17.8220   12.5210 O.co2 145  ASP145     -0.2456
     77  OD2       42.2840   18.6050   14.5580 O.co2 145  ASP145     -0.2456
     78  N         46.2450   22.1850    6.3740 N.3   156  ILE156     -0.1245
     79  CA        46.5150   20.9450    7.0800 C.3   156  ILE156      0.1561
     80  C         47.7900   21.1140    7.8850 C.2   156  ILE156      0.2260
     81  O         48.8560   21.3670    7.3290 O.2   156  ILE156     -0.2867
     82  CB        46.7190   19.7570    6.1270 C.3   156  ILE156      0.0252
     83  CG1       45.4120   19.3920    5.4190 C.3   156  ILE156      0.0019
     84  CG2       47.2400   18.5680    6.9020 C.3   156  ILE156      0.0019
     85  CD1       44.4260   18.6320    6.2900 C.3   156  ILE156      0.0001
     86  N         50.5440   19.2290    9.9130 N.3   158  SER158     -0.1202
     87  CA        51.0390   17.8620    9.9650 C.3   158  SER158      0.2020
     88  C         51.8410   17.6010   11.2270 C.2   158  SER158      0.2619
     89  O         52.0980   18.5130   12.0220 O.2   158  SER158     -0.2717
     90  CB        51.9240   17.5860    8.7560 C.3   158  SER158      0.2103
     91  OG        53.0740   18.4090    8.8040 O.3   158  SER158     -0.2182
     92  N         52.2390   16.3470   11.4030 N.am  159  GLY159     -0.1942
     93  CA        53.1660   16.0000   12.4650 C.3   159  GLY159      0.2014
     94  C         54.4440   16.7900   12.2700 C.2   159  GLY159      0.2638
     95  O         55.0870   17.2070   13.2370 O.2   159  GLY159     -0.2714
     96  N         54.7980   17.0080   11.0050 N.am  160  ASP160     -0.1971
     97  CA        56.0030   17.7520   10.6450 C.3   160  ASP160      0.1709
     98  C         55.9730   19.2020   11.1210 C.2   160  ASP160      0.2293
     99  O         57.0120   19.7700   11.4470 O.2   160  ASP160     -0.2864
    100  CB        56.2570   17.6780    9.1350 C.3   160  ASP160      0.1436
    101  CG        56.7970   16.3200    8.7040 C.2   160  ASP160      0.3671
    102  OD1       56.6090   15.9370    7.5260 O.co2 160  ASP160     -0.2456
    103  OD2       57.4060   15.6280    9.5540 O.co2 160  ASP160     -0.2456
@<TRIPOS>BOND
     1    48    47    2
     2    47    46    1
     3    13    12    2
     4    38    37    2
     5    12    11    1
     6    15    16    1
     7    15    14    1
     8    37    36    1
     9    41    40   ar
    10    41    43   ar
    11    39    40    1
    12    39    36    1
    13    16    17    1
    14    46    45    1
    15    46    49    1
    16    17    18    1
    17    14    11    1
    18    11    10    1
    19    40    42   ar
    20    43    44   ar
    21    36    35    1
    22    42    44   ar
    23    35    33   am
    24    34    33    2
    25    83    82    1
    26    83    85    1
    27    33    32    1
    28    57    55    1
    29    30    29    2
    30    82    84    1
    31    82    79    1
    32    55    54    1
    33    78    79    1
    34    29    28    1
    35    32    31    1
    36    79    80    1
    37    81    80    2
    38   102   101   ar
    39    28    27    1
    40    54    56    1
    41    54    51    1
    42    50    51    1
    43    27    25   am
    44    51    52    1
    45    25    26    2
    46    25    24    1
    47   101   100    1
    48   101   103   ar
    49    90    91    1
    50    90    87    1
    51   100    97    1
    52    24    23    1
    53    23    21   am
    54    52    53    2
    55    86    87    1
    56    87    88    1
    57    73    72    2
    58    97    96    1
    59    97    98    1
    60    64    63    1
    61    64    65    1
    62    72    71    1
    63    21    20    1
    64    21    22    2
    65    96    94   am
    66    20    19    1
    67    98    99    2
    68    88    92   am
    69    88    89    2
    70    63    62    1
    71     8     9    1
    72     8     7    1
    73    92    93    1
    74    58    59    1
    75    71    70    1
    76    71    74    1
    77    70    68   am
    78    68    67    1
    79    68    69    2
    80    94    93    1
    81    94    95    2
    82    67    66    1
    83    76    75   ar
    84    62    59    1
    85    59    60    1
    86     7     6    1
    87    74    75    1
    88    75    77   ar
    89     6     5    1
    90    60    61    2
    91     4     3    2
    92     5     2    1
    93     3     2    1
    94     2     1    1
