@<TRIPOS>MOLECULE
tmp/3k4zA01.pdb
 135 130 0 0 0
SMALL
GASTEIGER

@<TRIPOS>ATOM
      1  N         16.5260    6.9010   59.3630 N.3    35  ASP35      -0.1239
      2  CA        17.3420    7.1750   60.5450 C.3    35  ASP35       0.1674
      3  C         16.4510    7.1630   61.8210 C.2    35  ASP35       0.2266
      4  O         15.2010    7.3300   61.7450 O.2    35  ASP35      -0.2867
      5  CB        18.0910    8.5340   60.3600 C.3    35  ASP35       0.1410
      6  CG        18.9470    8.8880   61.5620 C.2    35  ASP35       0.3668
      7  OD1       20.0100    8.2490   61.7110 O.co2  35  ASP35      -0.2456
      8  OD2       18.5060    9.7120   62.4110 O.co2  35  ASP35      -0.2456
      9  N         12.0830   14.4470   62.5460 N.3    67  ARG67      -0.1231
     10  CA        11.5940   14.7120   61.2130 C.3    67  ARG67       0.1694
     11  C         12.5380   14.1570   60.1480 C.2    67  ARG67       0.2592
     12  O         12.0930   13.7090   59.0750 O.2    67  ARG67      -0.2718
     13  CB        11.2140   16.1800   61.0410 C.3    67  ARG67       0.0321
     14  CG        12.3340   17.0870   60.7710 C.3    67  ARG67       0.0489
     15  CD        12.2870   18.2320   61.6950 C.3    67  ARG67       0.2205
     16  NE        11.2880   19.2660   61.4670 N.pl3  67  ARG67      -0.0865
     17  CZ        11.5690   20.5680   61.2810 C.cat  67  ARG67       0.5346
     18  NH1       12.8330   21.0320   61.1790 N.pl3  67  ARG67       0.1354
     19  NH2       10.5730   21.4100   61.1440 N.pl3  67  ARG67       0.1354
     20  N         13.8420   14.1250   60.4710 N.am   68  TRP68      -0.1976
     21  CA        14.8440   13.6200   59.5560 C.3    68  TRP68       0.1640
     22  C         14.9350   12.0740   59.5920 C.2    68  TRP68       0.2290
     23  O         15.8130   11.4920   58.9800 O.2    68  TRP68      -0.2864
     24  CB        16.2360   14.2200   59.8580 C.3    68  TRP68       0.0576
     25  CG        16.7450   13.9180   61.2220 C.ar   68  TRP68       0.0006
     26  CD1       17.3600   12.7820   61.6290 C.ar   68  TRP68       0.0946
     27  CD2       16.5960   14.7400   62.3980 C.ar   68  TRP68       0.0152
     28  NE1       17.6360   12.8540   62.9730 N.ar   68  TRP68      -0.2442
     29  CE2       17.1920   14.0430   63.4680 C.ar   68  TRP68       0.0810
     30  CE3       16.0220   15.9970   62.6420 C.ar   68  TRP68       0.0012
     31  CZ2       17.2410   14.5400   64.7420 C.ar   68  TRP68       0.0191
     32  CZ3       16.0480   16.4930   63.9380 C.ar   68  TRP68       0.0001
     33  CH2       16.6390   15.7520   64.9780 C.ar   68  TRP68       0.0015
     34  N         13.6430   10.4380   54.9420 N.3    71  GLN71      -0.1245
     35  CA        14.1190   11.4860   54.0310 C.3    71  GLN71       0.1566
     36  C         14.0610   11.0380   52.5860 C.2    71  GLN71       0.2260
     37  O         14.2490    9.8600   52.3020 O.2    71  GLN71      -0.2867
     38  CB        15.5740   11.8210   54.3350 C.3    71  GLN71       0.0367
     39  CG        15.9020   12.2800   55.7260 C.3    71  GLN71       0.0905
     40  CD        17.4210   12.3700   55.9370 C.2    71  GLN71       0.2608
     41  OE1       18.1960   12.4620   54.9560 O.2    71  GLN71      -0.2717
     42  NE2       17.8650   12.2750   57.2150 N.am   71  GLN71      -0.0878
     43  N         16.1830   12.6130   49.1760 N.3    73  ARG73      -0.1245
     44  CA        17.2170   13.6030   48.9660 C.3    73  ARG73       0.1563
     45  C         18.0630   13.3320   47.7350 C.2    73  ARG73       0.2260
     46  O         18.0820   12.1850   47.1910 O.2    73  ARG73      -0.2867
     47  CB        18.1500   13.6700   50.1910 C.3    73  ARG73       0.0307
     48  CG        18.8850   12.3850   50.4370 C.3    73  ARG73       0.0489
     49  CD        19.4620   12.2930   51.8080 C.3    73  ARG73       0.2205
     50  NE        20.4590   11.2180   51.8910 N.pl3  73  ARG73      -0.0865
     51  CZ        21.0620   10.8360   53.0040 C.cat  73  ARG73       0.5346
     52  NH1       20.8340   11.4300   54.2010 N.pl3  73  ARG73       0.1354
     53  NH2       21.9260    9.8590   52.9240 N.pl3  73  ARG73       0.1354
     54  N         14.3580   21.4830   52.4080 N.3   102  LYS102     -0.1245
     55  CA        15.4970   22.3740   52.5880 C.3   102  LYS102      0.1561
     56  C         16.6280   22.0690   51.6310 C.2   102  LYS102      0.2260
     57  O         16.7010   20.9750   51.0660 O.2   102  LYS102     -0.2867
     58  CB        16.0120   22.3180   54.0610 C.3   102  LYS102      0.0271
     59  CG        16.8470   21.0590   54.4480 C.3   102  LYS102      0.0035
     60  CD        17.4250   21.1960   55.8710 C.3   102  LYS102      0.0206
     61  CE        17.9520   19.8740   56.4720 C.3   102  LYS102      0.1093
     62  NZ        18.8820   20.1190   57.6220 N.3   102  LYS102     -0.1314
     63  N         23.7090   21.7930   54.0120 N.3   105  GLN105     -0.1231
     64  CA        24.7990   20.8770   54.2850 C.3   105  GLN105      0.1698
     65  C         24.2680   19.5130   54.7210 C.2   105  GLN105      0.2592
     66  O         23.3400   19.4470   55.4930 O.2   105  GLN105     -0.2718
     67  CB        25.6600   21.4400   55.3930 C.3   105  GLN105      0.0381
     68  CG        26.3310   22.7790   55.0340 C.3   105  GLN105      0.0905
     69  CD        27.2530   23.1450   56.0710 C.2   105  GLN105      0.2608
     70  OE1       26.9120   23.0470   57.3000 O.2   105  GLN105     -0.2717
     71  NE2       28.4500   23.5820   55.6600 N.am  105  GLN105     -0.0878
     72  N         24.8670   18.4510   54.1850 N.am  106  MET106     -0.1979
     73  CA        24.4730   17.1040   54.5170 C.3   106  MET106      0.1605
     74  C         25.0400   16.6540   55.8580 C.2   106  MET106      0.2287
     75  O         24.4000   15.8480   56.5350 O.2   106  MET106     -0.2864
     76  CB        24.8480   16.1060   53.4160 C.3   106  MET106      0.0413
     77  CG        26.2470   16.1590   52.8460 C.3   106  MET106      0.0598
     78  SD        26.2450   15.3660   51.1990 S.3   106  MET106     -0.1393
     79  CE        25.3510   16.5440   50.2550 C.3   106  MET106      0.0692
     80  N         27.4450   17.9530   59.7130 N.3   108  GLU108     -0.1231
     81  CA        27.5910   19.0310   60.7270 C.3   108  GLU108      0.1684
     82  C         28.3390   20.1760   60.1310 C.2   108  GLU108      0.2434
     83  O         29.3140   19.9260   59.4210 O.2   108  GLU108     -0.2733
     84  CB        28.4260   18.5800   61.9640 C.3   108  GLU108      0.0402
     85  CG        27.7090   17.6710   62.9020 C.3   108  GLU108      0.1161
     86  CD        26.7040   18.3600   63.8800 C.2   108  GLU108      0.3649
     87  OE1       26.6120   19.6080   64.0720 O.co2 108  GLU108     -0.2457
     88  OE2       25.9520   17.5910   64.5010 O.co2 108  GLU108     -0.2457
     89  N         27.9440   21.4310   60.4610 N.am  109  PRO109     -0.2718
     90  CA        26.9020   21.8280   61.4140 C.3   109  PRO109      0.1535
     91  C         25.4870   21.9540   60.7960 C.2   109  PRO109      0.2598
     92  O         24.6150   22.6500   61.3480 O.2   109  PRO109     -0.2715
     93  CB        27.4290   23.1850   61.8980 C.3   109  PRO109      0.0310
     94  CG        28.0400   23.7330   60.5640 C.3   109  PRO109      0.0237
     95  CD        28.7020   22.5890   59.9750 C.3   109  PRO109      0.0939
     96  N         25.2620   21.2870   59.6660 N.am  110  TYR110     -0.1974
     97  CA        23.9400   21.2690   59.0200 C.3   110  TYR110      0.1639
     98  C         23.3630   22.6790   58.7410 C.2   110  TYR110      0.2290
     99  O         22.1630   22.8920   58.9400 O.2   110  TYR110     -0.2864
    100  CB        22.9190   20.4650   59.8320 C.3   110  TYR110      0.0560
    101  CG        23.3610   19.0520   60.1710 C.ar  110  TYR110     -0.0198
    102  CD1       23.4010   18.0910   59.2060 C.ar  110  TYR110     -0.0009
    103  CD2       23.7680   18.7190   61.4610 C.ar  110  TYR110     -0.0009
    104  CE1       23.8360   16.7780   59.5100 C.ar  110  TYR110      0.0417
    105  CE2       24.2330   17.4250   61.7710 C.ar  110  TYR110      0.0417
    106  CZ        24.2150   16.4530   60.8200 C.ar  110  TYR110      0.1957
    107  OH        24.6550   15.1620   61.1240 O.3   110  TYR110     -0.2866
    108  N         21.5470   25.5240   56.8100 N.3   112  GLU112     -0.1245
    109  CA        20.4500   25.4580   55.8770 C.3   112  GLU112      0.1567
    110  C         20.4230   26.7700   55.0700 C.2   112  GLU112      0.2260
    111  O         20.5110   27.8240   55.6420 O.2   112  GLU112     -0.2867
    112  CB        19.1480   25.2330   56.6320 C.3   112  GLU112      0.0388
    113  CG        19.2110   24.0980   57.6220 C.3   112  GLU112      0.1160
    114  CD        17.8460   23.6650   58.1160 C.2   112  GLU112      0.3649
    115  OE1       16.8160   24.3080   57.7420 O.co2 112  GLU112     -0.2457
    116  OE2       17.8150   22.6210   58.8290 O.co2 112  GLU112     -0.2457
    117  N         22.7520   19.2110   49.9850 N.3   146  GLU146     -0.1245
    118  CA        21.7260   18.2700   49.5430 C.3   146  GLU146      0.1567
    119  C         20.3870   19.0070   49.4810 C.2   146  GLU146      0.2260
    120  O         20.1570   19.9530   50.2680 O.2   146  GLU146     -0.2867
    121  CB        21.7340   17.0700   50.4800 C.3   146  GLU146      0.0388
    122  CG        21.3500   17.3490   51.9180 C.3   146  GLU146      0.1160
    123  CD        21.2930   16.0870   52.7970 C.2   146  GLU146      0.3649
    124  OE1       21.6790   15.0120   52.3130 O.co2 146  GLU146     -0.2457
    125  OE2       20.8510   16.1700   53.9620 O.co2 146  GLU146     -0.2457
    126  N         12.3490   16.1820   54.4760 N.3   150  HIS150     -0.1241
    127  CA        12.1890   15.4050   55.7270 C.3   150  HIS150      0.1621
    128  C         10.6660   15.1100   55.9660 C.2   150  HIS150      0.2264
    129  O          9.8250   15.9850   55.8890 O.2   150  HIS150     -0.2867
    130  CB        12.7760   16.1700   56.8960 C.3   150  HIS150      0.0745
    131  CG        14.2660   16.3430   56.8460 C.ar  150  HIS150      0.0817
    132  ND1       14.9540   17.0010   57.8410 N.ar  150  HIS150     -0.2268
    133  CD2       15.1870   15.9680   55.9350 C.ar  150  HIS150      0.1154
    134  CE1       16.2450   16.9750   57.5600 C.ar  150  HIS150      0.1986
    135  NE2       16.4100   16.3740   56.3960 N.ar  150  HIS150     -0.2212
@<TRIPOS>BOND
     1    46    45    2
     2    45    44    1
     3    44    43    1
     4    44    47    1
     5   119   118    1
     6   119   120    2
     7   118   117    1
     8   118   121    1
     9    47    48    1
    10    79    78    1
    11    48    49    1
    12   121   122    1
    13    57    56    2
    14    78    77    1
    15    56    55    1
    16    49    50    1
    17    50    51    2
    18   122   123    1
    19    37    36    2
    20   124   123   ar
    21    54    55    1
    22    36    35    1
    23    55    58    1
    24   123   125   ar
    25    77    76    1
    26    53    51    1
    27    51    52    1
    28    76    73    1
    29    63    64    1
    30    35    38    1
    31    35    34    1
    32    58    59    1
    33    72    73    1
    34    72    65   am
    35    64    65    1
    36    64    67    1
    37    38    39    1
    38    59    60    1
    39   126   127    1
    40    73    74    1
    41    65    66    2
    42    41    40    2
    43    68    67    1
    44    68    69    1
    45   110   111    2
    46   110   109    1
    47    71    69   am
    48    39    40    1
    49   127   128    1
    50   127   130    1
    51    74    75    2
    52    60    61    1
    53   109   112    1
    54   109   108    1
    55   129   128    2
    56   133   135   ar
    57   133   131   ar
    58    40    42   am
    59    69    70    2
    60   135   134   ar
    61    61    62    1
    62   112   113    1
    63   131   130    1
    64   131   132   ar
    65   134   132   ar
    66   113   114    1
    67   115   114   ar
    68   114   116   ar
    69    98    99    2
    70    98    97    1
    71    23    22    2
    72    97    96    1
    73    97   100    1
    74    12    11    2
    75   102   104   ar
    76   102   101   ar
    77     1     2    1
    78    83    82    2
    79   104   106   ar
    80    21    22    1
    81    21    24    1
    82    21    20    1
    83    96    91   am
    84    80    81    1
    85   100   101    1
    86    24    25    1
    87    95    89    1
    88    95    94    1
    89    82    89   am
    90    82    81    1
    91    11    20   am
    92    11    10    1
    93   101   103   ar
    94     5     2    1
    95     5     6    1
    96    89    90    1
    97     2     3    1
    98    94    93    1
    99    81    84    1
   100    14    13    1
   101    14    15    1
   102    91    92    2
   103    91    90    1
   104   106   107    1
   105   106   105   ar
   106    13    10    1
   107    19    17    1
   108    18    17    1
   109    10     9    1
   110    25    26   ar
   111    25    27   ar
   112    17    16    2
   113    90    93    1
   114   103   105   ar
   115    16    15    1
   116     6     7   ar
   117     6     8   ar
   118    26    28   ar
   119     4     3    2
   120    84    85    1
   121    27    30   ar
   122    27    29   ar
   123    30    32   ar
   124    85    86    1
   125    28    29   ar
   126    29    31   ar
   127    86    87   ar
   128    86    88   ar
   129    32    33   ar
   130    31    33   ar
