@<TRIPOS>MOLECULE
tmp/3k4zA00.pdb
 125 117 0 0 0
SMALL
GASTEIGER

@<TRIPOS>ATOM
      1  N         16.6430    8.0570   52.9130 N.3    33  CYS33      -0.1235
      2  CA        17.4470    7.7540   54.0670 C.3    33  CYS33       0.1677
      3  C         16.5170    7.5010   55.2300 C.2    33  CYS33       0.2270
      4  O         15.4620    8.1520   55.3630 O.2    33  CYS33      -0.2867
      5  CB        18.4520    8.8820   54.3580 C.3    33  CYS33       0.0956
      6  SG        19.3610    8.6550   55.8890 S.3    33  CYS33      -0.0801
      7  N         16.5260    6.9010   59.3630 N.3    35  ASP35      -0.1239
      8  CA        17.3420    7.1750   60.5450 C.3    35  ASP35       0.1674
      9  C         16.4510    7.1630   61.8210 C.2    35  ASP35       0.2266
     10  O         15.2010    7.3300   61.7450 O.2    35  ASP35      -0.2867
     11  CB        18.0910    8.5340   60.3600 C.3    35  ASP35       0.1410
     12  CG        18.9470    8.8880   61.5620 C.2    35  ASP35       0.3668
     13  OD1       20.0100    8.2490   61.7110 O.co2  35  ASP35      -0.2456
     14  OD2       18.5060    9.7120   62.4110 O.co2  35  ASP35      -0.2456
     15  N         13.8420   14.1250   60.4710 N.3    68  TRP68      -0.1241
     16  CA        14.8440   13.6200   59.5560 C.3    68  TRP68       0.1605
     17  C         14.9350   12.0740   59.5920 C.2    68  TRP68       0.2264
     18  O         15.8130   11.4920   58.9800 O.2    68  TRP68      -0.2867
     19  CB        16.2360   14.2200   59.8580 C.3    68  TRP68       0.0550
     20  CG        16.7450   13.9180   61.2220 C.ar   68  TRP68       0.0003
     21  CD1       17.3600   12.7820   61.6290 C.ar   68  TRP68       0.0946
     22  CD2       16.5960   14.7400   62.3980 C.ar   68  TRP68       0.0152
     23  NE1       17.6360   12.8540   62.9730 N.ar   68  TRP68      -0.2442
     24  CE2       17.1920   14.0430   63.4680 C.ar   68  TRP68       0.0810
     25  CE3       16.0220   15.9970   62.6420 C.ar   68  TRP68       0.0012
     26  CZ2       17.2410   14.5400   64.7420 C.ar   68  TRP68       0.0191
     27  CZ3       16.0480   16.4930   63.9380 C.ar   68  TRP68       0.0001
     28  CH2       16.6390   15.7520   64.9780 C.ar   68  TRP68       0.0015
     29  N         13.6430   10.4380   54.9420 N.3    71  GLN71      -0.1245
     30  CA        14.1190   11.4860   54.0310 C.3    71  GLN71       0.1566
     31  C         14.0610   11.0380   52.5860 C.2    71  GLN71       0.2260
     32  O         14.2490    9.8600   52.3020 O.2    71  GLN71      -0.2867
     33  CB        15.5740   11.8210   54.3350 C.3    71  GLN71       0.0367
     34  CG        15.9020   12.2800   55.7260 C.3    71  GLN71       0.0905
     35  CD        17.4210   12.3700   55.9370 C.2    71  GLN71       0.2608
     36  OE1       18.1960   12.4620   54.9560 O.2    71  GLN71      -0.2717
     37  NE2       17.8650   12.2750   57.2150 N.am   71  GLN71      -0.0878
     38  N         16.1830   12.6130   49.1760 N.3    73  ARG73      -0.1245
     39  CA        17.2170   13.6030   48.9660 C.3    73  ARG73       0.1563
     40  C         18.0630   13.3320   47.7350 C.2    73  ARG73       0.2260
     41  O         18.0820   12.1850   47.1910 O.2    73  ARG73      -0.2867
     42  CB        18.1500   13.6700   50.1910 C.3    73  ARG73       0.0307
     43  CG        18.8850   12.3850   50.4370 C.3    73  ARG73       0.0489
     44  CD        19.4620   12.2930   51.8080 C.3    73  ARG73       0.2205
     45  NE        20.4590   11.2180   51.8910 N.pl3  73  ARG73      -0.0865
     46  CZ        21.0620   10.8360   53.0040 C.cat  73  ARG73       0.5346
     47  NH1       20.8340   11.4300   54.2010 N.pl3  73  ARG73       0.1354
     48  NH2       21.9260    9.8590   52.9240 N.pl3  73  ARG73       0.1354
     49  N         22.0870   14.4410   46.8290 N.3    75  ARG75      -0.1245
     50  CA        23.3110   14.9320   47.4440 C.3    75  ARG75       0.1563
     51  C         24.2620   15.3860   46.3650 C.2    75  ARG75       0.2260
     52  O         23.9140   15.3990   45.1900 O.2    75  ARG75      -0.2867
     53  CB        23.9300   13.8150   48.2950 C.3    75  ARG75       0.0307
     54  CG        23.0900   13.4960   49.5650 C.3    75  ARG75       0.0489
     55  CD        23.8900   12.5190   50.4710 C.3    75  ARG75       0.2205
     56  NE        23.6680   12.8400   51.8430 N.pl3  75  ARG75      -0.0865
     57  CZ        24.2540   12.2320   52.8600 C.cat  75  ARG75       0.5346
     58  NH1       23.9550   12.5950   54.0940 N.pl3  75  ARG75       0.1354
     59  NH2       25.0970   11.2510   52.6620 N.pl3  75  ARG75       0.1354
     60  N         14.3580   21.4830   52.4080 N.3   102  LYS102     -0.1245
     61  CA        15.4970   22.3740   52.5880 C.3   102  LYS102      0.1561
     62  C         16.6280   22.0690   51.6310 C.2   102  LYS102      0.2260
     63  O         16.7010   20.9750   51.0660 O.2   102  LYS102     -0.2867
     64  CB        16.0120   22.3180   54.0610 C.3   102  LYS102      0.0271
     65  CG        16.8470   21.0590   54.4480 C.3   102  LYS102      0.0035
     66  CD        17.4250   21.1960   55.8710 C.3   102  LYS102      0.0206
     67  CE        17.9520   19.8740   56.4720 C.3   102  LYS102      0.1093
     68  NZ        18.8820   20.1190   57.6220 N.3   102  LYS102     -0.1314
     69  N         23.7090   21.7930   54.0120 N.3   105  GLN105     -0.1231
     70  CA        24.7990   20.8770   54.2850 C.3   105  GLN105      0.1698
     71  C         24.2680   19.5130   54.7210 C.2   105  GLN105      0.2592
     72  O         23.3400   19.4470   55.4930 O.2   105  GLN105     -0.2718
     73  CB        25.6600   21.4400   55.3930 C.3   105  GLN105      0.0381
     74  CG        26.3310   22.7790   55.0340 C.3   105  GLN105      0.0905
     75  CD        27.2530   23.1450   56.0710 C.2   105  GLN105      0.2608
     76  OE1       26.9120   23.0470   57.3000 O.2   105  GLN105     -0.2717
     77  NE2       28.4500   23.5820   55.6600 N.am  105  GLN105     -0.0878
     78  N         24.8670   18.4510   54.1850 N.am  106  MET106     -0.1979
     79  CA        24.4730   17.1040   54.5170 C.3   106  MET106      0.1605
     80  C         25.0400   16.6540   55.8580 C.2   106  MET106      0.2287
     81  O         24.4000   15.8480   56.5350 O.2   106  MET106     -0.2864
     82  CB        24.8480   16.1060   53.4160 C.3   106  MET106      0.0413
     83  CG        26.2470   16.1590   52.8460 C.3   106  MET106      0.0598
     84  SD        26.2450   15.3660   51.1990 S.3   106  MET106     -0.1393
     85  CE        25.3510   16.5440   50.2550 C.3   106  MET106      0.0692
     86  N         27.4450   17.9530   59.7130 N.3   108  GLU108     -0.1245
     87  CA        27.5910   19.0310   60.7270 C.3   108  GLU108      0.1567
     88  C         28.3390   20.1760   60.1310 C.2   108  GLU108      0.2260
     89  O         29.3140   19.9260   59.4210 O.2   108  GLU108     -0.2867
     90  CB        28.4260   18.5800   61.9640 C.3   108  GLU108      0.0388
     91  CG        27.7090   17.6710   62.9020 C.3   108  GLU108      0.1160
     92  CD        26.7040   18.3600   63.8800 C.2   108  GLU108      0.3649
     93  OE1       26.6120   19.6080   64.0720 O.co2 108  GLU108     -0.2457
     94  OE2       25.9520   17.5910   64.5010 O.co2 108  GLU108     -0.2457
     95  N         25.2620   21.2870   59.6660 N.3   110  TYR110     -0.1241
     96  CA        23.9400   21.2690   59.0200 C.3   110  TYR110      0.1605
     97  C         23.3630   22.6790   58.7410 C.2   110  TYR110      0.2264
     98  O         22.1630   22.8920   58.9400 O.2   110  TYR110     -0.2867
     99  CB        22.9190   20.4650   59.8320 C.3   110  TYR110      0.0534
    100  CG        23.3610   19.0520   60.1710 C.ar  110  TYR110     -0.0201
    101  CD1       23.4010   18.0910   59.2060 C.ar  110  TYR110     -0.0009
    102  CD2       23.7680   18.7190   61.4610 C.ar  110  TYR110     -0.0009
    103  CE1       23.8360   16.7780   59.5100 C.ar  110  TYR110      0.0417
    104  CE2       24.2330   17.4250   61.7710 C.ar  110  TYR110      0.0417
    105  CZ        24.2150   16.4530   60.8200 C.ar  110  TYR110      0.1957
    106  OH        24.6550   15.1620   61.1240 O.3   110  TYR110     -0.2866
    107  N         22.7520   19.2110   49.9850 N.3   146  GLU146     -0.1245
    108  CA        21.7260   18.2700   49.5430 C.3   146  GLU146      0.1567
    109  C         20.3870   19.0070   49.4810 C.2   146  GLU146      0.2260
    110  O         20.1570   19.9530   50.2680 O.2   146  GLU146     -0.2867
    111  CB        21.7340   17.0700   50.4800 C.3   146  GLU146      0.0388
    112  CG        21.3500   17.3490   51.9180 C.3   146  GLU146      0.1160
    113  CD        21.2930   16.0870   52.7970 C.2   146  GLU146      0.3649
    114  OE1       21.6790   15.0120   52.3130 O.co2 146  GLU146     -0.2457
    115  OE2       20.8510   16.1700   53.9620 O.co2 146  GLU146     -0.2457
    116  N         12.3490   16.1820   54.4760 N.3   150  HIS150     -0.1241
    117  CA        12.1890   15.4050   55.7270 C.3   150  HIS150      0.1621
    118  C         10.6660   15.1100   55.9660 C.2   150  HIS150      0.2264
    119  O          9.8250   15.9850   55.8890 O.2   150  HIS150     -0.2867
    120  CB        12.7760   16.1700   56.8960 C.3   150  HIS150      0.0745
    121  CG        14.2660   16.3430   56.8460 C.ar  150  HIS150      0.0817
    122  ND1       14.9540   17.0010   57.8410 N.ar  150  HIS150     -0.2268
    123  CD2       15.1870   15.9680   55.9350 C.ar  150  HIS150      0.1154
    124  CE1       16.2450   16.9750   57.5600 C.ar  150  HIS150      0.1986
    125  NE2       16.4100   16.3740   56.3960 N.ar  150  HIS150     -0.2212
@<TRIPOS>BOND
     1    52    51    2
     2    51    50    1
     3    49    50    1
     4    41    40    2
     5    50    53    1
     6    40    39    1
     7    53    54    1
     8    39    38    1
     9    39    42    1
    10   109   108    1
    11   109   110    2
    12   108   107    1
    13   108   111    1
    14    54    55    1
    15    42    43    1
    16    85    84    1
    17    43    44    1
    18    55    56    1
    19   111   112    1
    20    63    62    2
    21    84    83    1
    22    62    61    1
    23    44    45    1
    24    56    57    2
    25    45    46    2
    26   112   113    1
    27    32    31    2
    28   114   113   ar
    29    60    61    1
    30    31    30    1
    31    61    64    1
    32    59    57    1
    33   113   115   ar
    34    83    82    1
    35    57    58    1
    36     1     2    1
    37    48    46    1
    38    46    47    1
    39    82    79    1
    40    69    70    1
    41    30    33    1
    42    30    29    1
    43    64    65    1
    44     2     5    1
    45     2     3    1
    46    78    79    1
    47    78    71   am
    48    70    71    1
    49    70    73    1
    50    33    34    1
    51     5     6    1
    52    65    66    1
    53   116   117    1
    54    79    80    1
    55    71    72    2
    56    36    35    2
    57    74    73    1
    58    74    75    1
    59     3     4    2
    60    77    75   am
    61    34    35    1
    62   117   118    1
    63   117   120    1
    64    80    81    2
    65    66    67    1
    66   119   118    2
    67   123   125   ar
    68   123   121   ar
    69    35    37   am
    70    75    76    2
    71   125   124   ar
    72    67    68    1
    73   121   120    1
    74   121   122   ar
    75   124   122   ar
    76    97    98    2
    77    97    96    1
    78    18    17    2
    79    96    95    1
    80    96    99    1
    81   101   103   ar
    82   101   100   ar
    83     7     8    1
    84    89    88    2
    85   103   105   ar
    86    16    17    1
    87    16    19    1
    88    16    15    1
    89    86    87    1
    90    99   100    1
    91    19    20    1
    92    88    87    1
    93   100   102   ar
    94    11     8    1
    95    11    12    1
    96     8     9    1
    97    87    90    1
    98   105   106    1
    99   105   104   ar
   100    20    21   ar
   101    20    22   ar
   102   102   104   ar
   103    12    13   ar
   104    12    14   ar
   105    21    23   ar
   106    10     9    2
   107    90    91    1
   108    22    25   ar
   109    22    24   ar
   110    25    27   ar
   111    91    92    1
   112    23    24   ar
   113    24    26   ar
   114    92    93   ar
   115    92    94   ar
   116    27    28   ar
   117    26    28   ar
