@<TRIPOS>MOLECULE
tmp/3k52B00.pdb
 119 113 0 0 0
SMALL
GASTEIGER

@<TRIPOS>ATOM
      1  N         22.7770   28.2900   24.2200 N.3     6  LYS6       -0.1245
      2  CA        23.1530   27.1330   25.0160 C.3     6  LYS6        0.1561
      3  C         22.0350   26.1050   25.0560 C.2     6  LYS6        0.2260
      4  O         20.8950   26.4250   25.3790 O.2     6  LYS6       -0.2867
      5  CB        23.5150   27.5270   26.4450 C.3     6  LYS6        0.0271
      6  CG        24.0250   26.3440   27.2480 C.3     6  LYS6        0.0035
      7  CD        23.7890   26.4930   28.7370 C.3     6  LYS6        0.0206
      8  CE        24.1920   25.2160   29.4570 C.3     6  LYS6        0.1093
      9  NZ        23.8260   25.2380   30.8960 N.3     6  LYS6       -0.1314
     10  N         21.3480   20.8780   29.7090 N.3     9  GLY9       -0.1225
     11  CA        21.0160   19.5300   30.0730 C.3     9  GLY9        0.1811
     12  C         19.5600   19.1580   30.1620 C.2     9  GLY9        0.2280
     13  O         18.7340   19.7730   30.8160 O.2     9  GLY9       -0.2866
     14  N         26.5060   22.9540   24.5130 N.3    53  HIS53      -0.1226
     15  CA        25.7150   21.9180   25.1690 C.3    53  HIS53       0.1752
     16  C         26.4360   21.4030   26.4090 C.2    53  HIS53       0.2597
     17  O         27.6330   21.6350   26.5760 O.2    53  HIS53      -0.2718
     18  CB        25.3810   20.7740   24.2060 C.3    53  HIS53       0.0759
     19  CG        26.5730   20.0030   23.7270 C.ar   53  HIS53       0.0818
     20  ND1       27.0270   18.8660   24.3600 N.ar   53  HIS53      -0.2268
     21  CD2       27.3840   20.1870   22.6580 C.ar   53  HIS53       0.1154
     22  CE1       28.0760   18.3910   23.7110 C.ar   53  HIS53       0.1986
     23  NE2       28.3120   19.1730   22.6730 N.ar   53  HIS53      -0.2212
     24  N         25.7000   20.7210   27.2820 N.am   54  GLY54      -0.1942
     25  CA        26.2660   20.2110   28.5260 C.3    54  GLY54       0.2014
     26  C         26.8280   18.8090   28.3970 C.2    54  GLY54       0.2639
     27  O         27.1390   18.3500   27.2970 O.2    54  GLY54      -0.2714
     28  N         26.9590   18.1280   29.5300 N.am   55  GLY55      -0.1939
     29  CA        27.4680   16.7610   29.5540 C.3    55  GLY55       0.2014
     30  C         26.3380   15.7510   29.5960 C.2    55  GLY55       0.2639
     31  O         26.5570   14.5490   29.4430 O.2    55  GLY55      -0.2714
     32  N         25.1230   16.2480   29.8030 N.am   56  GLY56      -0.1954
     33  CA        23.9430   15.3980   29.8410 C.3    56  GLY56       0.1869
     34  C         24.2170   13.9950   30.3470 C.2    56  GLY56       0.2309
     35  O         24.9370   13.8040   31.3280 O.2    56  GLY56      -0.2863
     36  N         28.6360   13.1250   29.9370 N.3    59  GLY59      -0.1210
     37  CA        29.6560   13.7060   30.7950 C.3    59  GLY59       0.1956
     38  C         29.5460   13.2040   32.2200 C.2    59  GLY59       0.2611
     39  O         30.4470   12.5320   32.7270 O.2    59  GLY59      -0.2717
     40  N         28.4260   13.5210   32.8610 N.am   60  HIS60      -0.1975
     41  CA        28.2240   13.2000   34.2690 C.3    60  HIS60       0.1656
     42  C         28.4210   11.7170   34.5800 C.2    60  HIS60       0.2291
     43  O         29.3510   11.3510   35.2990 O.2    60  HIS60      -0.2864
     44  CB        26.8440   13.6750   34.7300 C.3    60  HIS60       0.0771
     45  CG        26.5420   15.0940   34.3560 C.ar   60  HIS60       0.0820
     46  ND1       26.8790   16.1650   35.1570 N.ar   60  HIS60      -0.2267
     47  CD2       25.9400   15.6190   33.2620 C.ar   60  HIS60       0.1154
     48  CE1       26.4940   17.2870   34.5750 C.ar   60  HIS60       0.1986
     49  NE2       25.9200   16.9840   33.4250 N.ar   60  HIS60      -0.2212
     50  N         36.5180   10.3110   30.1950 N.3    86  ILE86      -0.1245
     51  CA        35.5650   11.4200   30.2210 C.3    86  ILE86       0.1561
     52  C         35.5890   12.1770   28.8930 C.2    86  ILE86       0.2260
     53  O         34.5420   12.5440   28.3570 O.2    86  ILE86      -0.2867
     54  CB        35.8400   12.4030   31.3810 C.3    86  ILE86       0.0252
     55  CG1       36.1340   11.6400   32.6740 C.3    86  ILE86       0.0019
     56  CG2       34.6590   13.3400   31.5760 C.3    86  ILE86       0.0019
     57  CD1       36.1840   12.5190   33.9000 C.3    86  ILE86       0.0001
     58  N         32.3450   12.6680   26.1870 N.3    90  MET90      -0.1245
     59  CA        31.9470   13.9700   25.6750 C.3    90  MET90       0.1570
     60  C         32.1420   14.0580   24.1650 C.2    90  MET90       0.2261
     61  O         31.4480   14.8200   23.4870 O.2    90  MET90      -0.2867
     62  CB        32.7160   15.0890   26.3810 C.3    90  MET90       0.0387
     63  CG        32.3700   15.2330   27.8500 C.3    90  MET90       0.0595
     64  SD        30.5910   15.3790   28.1220 S.3    90  MET90      -0.1393
     65  CE        30.1530   16.6530   26.9360 C.3    90  MET90       0.0692
     66  N         30.6020   21.0020   27.5520 N.3   144  GLY144     -0.1210
     67  CA        31.1800   20.8220   28.8720 C.3   144  GLY144      0.1956
     68  C         32.1770   19.6920   28.7610 C.2   144  GLY144      0.2612
     69  O         31.9800   18.7670   27.9790 O.2   144  GLY144     -0.2717
     70  N         33.2490   19.7550   29.5360 N.am  145  ASP145     -0.1959
     71  CA        34.3280   18.7980   29.3700 C.3   145  ASP145      0.1840
     72  C         35.1510   18.6790   30.6490 C.2   145  ASP145      0.2621
     73  O         35.0090   19.4890   31.5670 O.2   145  ASP145     -0.2715
     74  CB        35.2200   19.2500   28.2090 C.3   145  ASP145      0.1450
     75  CG        36.0570   18.1250   27.6400 C.2   145  ASP145      0.3671
     76  OD1       35.9860   16.9990   28.1810 O.co2 145  ASP145     -0.2456
     77  OD2       36.7830   18.3670   26.6500 O.co2 145  ASP145     -0.2456
     78  N         36.0020   17.6630   30.7150 N.am  146  ILE146     -0.1977
     79  CA        37.0140   17.6230   31.7550 C.3   146  ILE146      0.1596
     80  C         38.1440   18.5480   31.3250 C.2   146  ILE146      0.2287
     81  O         38.4400   18.6620   30.1370 O.2   146  ILE146     -0.2864
     82  CB        37.5580   16.2070   31.9860 C.3   146  ILE146      0.0276
     83  CG1       38.4820   16.1900   33.2020 C.3   146  ILE146      0.0022
     84  CG2       38.3020   15.7100   30.7640 C.3   146  ILE146      0.0022
     85  CD1       37.8160   16.6730   34.4800 C.3   146  ILE146      0.0001
     86  N         35.6600   20.1740   36.2200 N.3   156  ILE156     -0.1231
     87  CA        34.7490   20.0600   35.0950 C.3   156  ILE156      0.1692
     88  C         34.1960   21.4150   34.6910 C.2   156  ILE156      0.2592
     89  O         33.3110   21.9560   35.3490 O.2   156  ILE156     -0.2718
     90  CB        33.5890   19.1000   35.4060 C.3   156  ILE156      0.0266
     91  CG1       34.0440   17.6540   35.2210 C.3   156  ILE156      0.0019
     92  CG2       32.4040   19.3890   34.5110 C.3   156  ILE156      0.0020
     93  CD1       32.9880   16.6400   35.5740 C.3   156  ILE156      0.0001
     94  N         34.7310   21.9680   33.6110 N.am  157  ILE157     -0.1966
     95  CA        34.1910   23.1940   33.0590 C.3   157  ILE157      0.1727
     96  C         32.8200   22.8680   32.4800 C.2   157  ILE157      0.2617
     97  O         32.6390   21.8230   31.8560 O.2   157  ILE157     -0.2715
     98  CB        35.1050   23.7710   31.9580 C.3   157  ILE157      0.0290
     99  CG1       34.7850   25.2450   31.7120 C.3   157  ILE157      0.0022
    100  CG2       34.9820   22.9660   30.6730 C.3   157  ILE157      0.0023
    101  CD1       35.5500   25.8470   30.5610 C.3   157  ILE157      0.0001
    102  N         31.8520   23.7490   32.7030 N.am  158  SER158     -0.1936
    103  CA        30.5050   23.5220   32.2050 C.3   158  SER158      0.2055
    104  C         30.0800   24.6480   31.2760 C.2   158  SER158      0.2644
    105  O         30.8300   25.5970   31.0530 O.2   158  SER158     -0.2714
    106  CB        29.5150   23.3940   33.3630 C.3   158  SER158      0.2130
    107  OG        29.2030   24.6660   33.8980 O.3   158  SER158     -0.2179
    108  N         28.8750   24.5340   30.7290 N.am  159  GLY159     -0.1939
    109  CA        28.3500   25.5510   29.8300 C.3   159  GLY159      0.2014
    110  C         28.2090   26.8840   30.5330 C.2   159  GLY159      0.2638
    111  O         28.4730   27.9360   29.9520 O.2   159  GLY159     -0.2714
    112  N         27.7900   26.8370   31.7930 N.am  160  ASP160     -0.1971
    113  CA        27.6380   28.0460   32.5900 C.3   160  ASP160      0.1709
    114  C         28.9660   28.7980   32.7240 C.2   160  ASP160      0.2293
    115  O         28.9890   30.0250   32.8290 O.2   160  ASP160     -0.2864
    116  CB        27.0610   27.7080   33.9680 C.3   160  ASP160      0.1436
    117  CG        25.5920   27.3300   33.9100 C.2   160  ASP160      0.3671
    118  OD1       24.9040   27.7340   32.9470 O.co2 160  ASP160     -0.2456
    119  OD2       25.1200   26.6340   34.8320 O.co2 160  ASP160     -0.2456
@<TRIPOS>BOND
     1    21    23   ar
     2    21    19   ar
     3    23    22   ar
     4    61    60    2
     5    22    20   ar
     6    19    18    1
     7    19    20   ar
     8    60    59    1
     9    18    15    1
    10     1     2    1
    11    14    15    1
    12     2     3    1
    13     2     5    1
    14     3     4    2
    15    15    16    1
    16    59    58    1
    17    59    62    1
    18    62    63    1
    19    16    17    2
    20    16    24   am
    21     5     6    1
    22    77    75   ar
    23    65    64    1
    24     6     7    1
    25    24    25    1
    26    27    26    2
    27    66    67    1
    28    75    76   ar
    29    75    74    1
    30    63    64    1
    31    69    68    2
    32    74    71    1
    33    53    52    2
    34    26    25    1
    35    26    28   am
    36     7     8    1
    37    68    67    1
    38    68    70   am
    39    52    51    1
    40    71    70    1
    41    71    72    1
    42    31    30    2
    43     8     9    1
    44    28    29    1
    45    29    30    1
    46    30    32   am
    47    10    11    1
    48    32    33    1
    49   109   110    1
    50   109   108    1
    51    33    34    1
    52    36    37    1
    53   111   110    2
    54    11    12    1
    55    81    80    2
    56    12    13    2
    57    50    51    1
    58    51    54    1
    59    34    35    2
    60   110   112   am
    61   101    99    1
    62    72    78   am
    63    72    73    2
    64   100    98    1
    65    78    79    1
    66   108   104   am
    67    84    82    1
    68    37    38    1
    69   105   104    2
    70   104   103    1
    71    80    79    1
    72    54    56    1
    73    54    55    1
    74    99    98    1
    75    79    82    1
    76   112   113    1
    77    97    96    2
    78    98    95    1
    79    82    83    1
    80   103   102    1
    81   103   106    1
    82    38    39    2
    83    38    40   am
    84    96   102   am
    85    96    95    1
    86   113   114    1
    87   113   116    1
    88    55    57    1
    89   114   115    2
    90    40    41    1
    91   118   117   ar
    92    95    94    1
    93    83    85    1
    94    47    49   ar
    95    47    45   ar
    96   106   107    1
    97    49    48   ar
    98    94    88   am
    99   117   116    1
   100   117   119   ar
   101    41    42    1
   102    41    44    1
   103    45    44    1
   104    45    46   ar
   105    92    90    1
   106    48    46   ar
   107    42    43    2
   108    88    87    1
   109    88    89    2
   110    87    90    1
   111    87    86    1
   112    91    90    1
   113    91    93    1
