@<TRIPOS>MOLECULE
tmp/3k54A00.pdb
 184 173 0 0 0
SMALL
GASTEIGER

@<TRIPOS>ATOM
      1  N        -22.8020    0.6700   -1.4810 N.3    17  LEU17      -0.1231
      2  CA       -22.4940   -0.7550   -1.6360 C.3    17  LEU17       0.1693
      3  C        -23.4840   -1.7450   -0.9790 C.2    17  LEU17       0.2592
      4  O        -23.8410   -2.7480   -1.5870 O.2    17  LEU17      -0.2718
      5  CB       -21.0530   -1.0270   -1.1850 C.3    17  LEU17       0.0284
      6  CG       -19.9470   -1.4610   -2.1560 C.3    17  LEU17       0.0019
      7  CD1      -20.1510   -1.0420   -3.6130 C.3    17  LEU17       0.0001
      8  CD2      -18.6000   -0.9670   -1.6290 C.3    17  LEU17       0.0001
      9  N        -23.9110   -1.4820    0.2520 N.am   18  GLY18      -0.1957
     10  CA       -24.8390   -2.3820    0.9440 C.3    18  GLY18       0.1869
     11  C        -25.4360   -1.7800    2.2050 C.2    18  GLY18       0.2309
     12  O        -25.0630   -0.6740    2.6100 O.2    18  GLY18      -0.2863
     13  N        -24.4040   -5.1720    7.4740 N.3    22  PHE22      -0.1241
     14  CA       -23.3280   -4.2630    7.8950 C.3    22  PHE22       0.1605
     15  C        -23.7980   -3.0130    8.6690 C.2    22  PHE22       0.2264
     16  O        -23.6490   -2.9080    9.8990 O.2    22  PHE22      -0.2867
     17  CB       -22.4710   -3.8290    6.6710 C.3    22  PHE22       0.0534
     18  CG       -22.7510   -4.6070    5.3830 C.ar   22  PHE22      -0.0203
     19  CD1      -23.9300   -4.3950    4.6490 C.ar   22  PHE22      -0.0042
     20  CD2      -21.8210   -5.5260    4.8830 C.ar   22  PHE22      -0.0042
     21  CE1      -24.1880   -5.1090    3.4560 C.ar   22  PHE22      -0.0003
     22  CE2      -22.0720   -6.2410    3.6860 C.ar   22  PHE22      -0.0003
     23  CZ       -23.2540   -6.0270    2.9760 C.ar   22  PHE22      -0.0000
     24  N        -21.9990    0.3020    3.8120 N.3    25  VAL25      -0.1245
     25  CA       -20.6720    0.1650    3.2170 C.3    25  VAL25       0.1561
     26  C        -20.6890    0.9580    1.9170 C.2    25  VAL25       0.2260
     27  O        -21.6400    0.8740    1.1170 O.2    25  VAL25      -0.2867
     28  CB       -20.2490   -1.3150    2.9640 C.3    25  VAL25       0.0252
     29  CG1      -18.7750   -1.4050    2.6010 C.3    25  VAL25       0.0019
     30  CG2      -20.5040   -2.1610    4.1850 C.3    25  VAL25       0.0019
     31  N        -13.1050    0.5500    0.9030 N.3    37  ALA37      -0.1231
     32  CA       -14.4330    0.3420    1.3310 C.3    37  ALA37       0.1694
     33  C        -14.5100    1.0100    2.6910 C.2    37  ALA37       0.2592
     34  O        -13.5660    0.9340    3.5000 O.2    37  ALA37      -0.2718
     35  CB       -14.7120   -1.1140    1.4620 C.3    37  ALA37       0.0304
     36  N        -15.6590    1.6320    2.9460 N.am   38  ILE38      -0.1966
     37  CA       -15.8470    2.4590    4.1380 C.3    38  ILE38       0.1727
     38  C        -17.0790    1.9680    4.8740 C.2    38  ILE38       0.2616
     39  O        -18.1900    2.0120    4.3310 O.2    38  ILE38      -0.2715
     40  CB       -15.9510    3.9620    3.7430 C.3    38  ILE38       0.0290
     41  CG1      -14.7280    4.3520    2.8960 C.3    38  ILE38       0.0022
     42  CG2      -16.1290    4.8690    4.9830 C.3    38  ILE38       0.0023
     43  CD1      -14.8770    5.6390    2.1150 C.3    38  ILE38       0.0001
     44  N        -16.8660    1.4710    6.0890 N.am   39  LYS39      -0.1977
     45  CA       -17.9440    0.9210    6.9060 C.3    39  LYS39       0.1596
     46  C        -18.3570    1.9030    7.9870 C.2    39  LYS39       0.2287
     47  O        -17.5810    2.2050    8.8960 O.2    39  LYS39      -0.2864
     48  CB       -17.5690   -0.4480    7.5220 C.3    39  LYS39       0.0298
     49  CG       -18.6360   -1.0140    8.4770 C.3    39  LYS39       0.0038
     50  CD       -18.9040   -2.5020    8.2210 C.3    39  LYS39       0.0206
     51  CE       -18.1420   -3.4290    9.1520 C.3    39  LYS39       0.1093
     52  NZ       -18.3230   -4.8380    8.6860 N.3    39  LYS39      -0.1314
     53  N        -13.7240   -5.1590   16.6710 N.3    47  GLU47      -0.1245
     54  CA       -13.4290   -5.5250   15.2470 C.3    47  GLU47       0.1567
     55  C        -12.1180   -4.9750   14.6620 C.2    47  GLU47       0.2260
     56  O        -11.2710   -5.7340   14.1600 O.2    47  GLU47      -0.2867
     57  CB       -14.5930   -5.2030   14.2850 C.3    47  GLU47       0.0388
     58  CG       -14.3290   -5.6970   12.8360 C.3    47  GLU47       0.1160
     59  CD       -15.4840   -5.4680   11.8470 C.2    47  GLU47       0.3649
     60  OE1      -16.3420   -4.5770   12.0720 O.co2  47  GLU47      -0.2457
     61  OE2      -15.5320   -6.1920   10.8300 O.co2  47  GLU47      -0.2457
     62  N         -8.4040   -6.5110   13.7600 N.3    51  MET51      -0.1245
     63  CA        -7.8140   -6.1850   12.4500 C.3    51  MET51       0.1570
     64  C         -6.5060   -5.3800   12.5190 C.2    51  MET51       0.2261
     65  O         -5.7200   -5.3960   11.5800 O.2    51  MET51      -0.2867
     66  CB        -8.8540   -5.4820   11.5790 C.3    51  MET51       0.0387
     67  CG        -9.9750   -6.4070   11.1120 C.3    51  MET51       0.0595
     68  SD       -11.1580   -5.5350   10.0870 S.3    51  MET51      -0.1393
     69  CE       -10.4530   -5.6970    8.4360 C.3    51  MET51       0.0692
     70  N         -8.3710   -9.4470    4.4640 N.3    60  VAL60      -0.1245
     71  CA        -8.8070   -8.0830    4.0700 C.3    60  VAL60       0.1561
     72  C         -8.0820   -7.0880    5.0300 C.2    60  VAL60       0.2260
     73  O         -8.1160   -7.2640    6.2600 O.2    60  VAL60      -0.2867
     74  CB       -10.3760   -7.9080    4.0720 C.3    60  VAL60       0.0252
     75  CG1      -10.8590   -6.4320    3.7750 C.3    60  VAL60       0.0019
     76  CG2      -11.0600   -8.8440    3.0240 C.3    60  VAL60       0.0019
     77  N        -14.8670    2.5000    9.6710 N.3    74  ILE74      -0.1245
     78  CA       -13.7470    1.5860    9.4580 C.3    74  ILE74       0.1561
     79  C        -13.4430    1.5630    7.9650 C.2    74  ILE74       0.2260
     80  O        -14.3570    1.4500    7.1340 O.2    74  ILE74      -0.2867
     81  CB       -14.0420    0.1370    9.9210 C.3    74  ILE74       0.0252
     82  CG1      -14.6980    0.1170   11.3110 C.3    74  ILE74       0.0019
     83  CG2      -12.7730   -0.6960    9.9100 C.3    74  ILE74       0.0019
     84  CD1      -16.1390   -0.3870   11.2510 C.3    74  ILE74       0.0001
     85  N        -11.1400   -0.1610    4.8240 N.3    76  THR76      -0.1203
     86  CA       -10.2920   -1.2730    4.4410 C.3    76  THR76       0.1994
     87  C         -9.9410   -1.1840    2.9930 C.2    76  THR76       0.2618
     88  O        -10.4310   -0.3230    2.2890 O.2    76  THR76      -0.2717
     89  CB       -10.9330   -2.6830    4.6870 C.3    76  THR76       0.1784
     90  OG1      -12.0080   -2.8610    3.7860 O.3    76  THR76      -0.2211
     91  CG2      -11.4990   -2.7830    6.0750 C.3    76  THR76       0.0376
     92  N         -9.1180   -2.1110    2.5330 N.am   77  GLU77      -0.1965
     93  CA        -8.8590   -2.2050    1.1420 C.3    77  GLU77       0.1733
     94  C        -10.1880   -2.5680    0.4850 C.2    77  GLU77       0.2616
     95  O        -11.0990   -3.1880    1.1140 O.2    77  GLU77      -0.2715
     96  CB        -7.7630   -3.2460    0.8900 C.3    77  GLU77       0.0429
     97  CG        -8.2510   -4.6650    1.0130 C.3    77  GLU77       0.1163
     98  CD        -7.1340   -5.6930    0.7860 C.2    77  GLU77       0.3649
     99  OE1       -6.7640   -6.3000    1.7760 O.co2  77  GLU77      -0.2457
    100  OE2       -6.6370   -5.8910   -0.3470 O.co2  77  GLU77      -0.2457
    101  N        -10.3310   -2.1170   -0.7450 N.am   78  TYR78      -0.1960
    102  CA       -11.5730   -2.3660   -1.4950 C.3    78  TYR78       0.1771
    103  C        -11.4460   -3.6700   -2.3040 C.2    78  TYR78       0.2619
    104  O        -10.3880   -3.9250   -2.9500 O.2    78  TYR78      -0.2715
    105  CB       -11.9190   -1.1690   -2.4180 C.3    78  TYR78       0.0574
    106  CG       -13.1450   -1.4130   -3.2580 C.ar   78  TYR78      -0.0198
    107  CD1      -14.4110   -1.6050   -2.6660 C.ar   78  TYR78      -0.0009
    108  CD2      -13.0400   -1.5030   -4.6390 C.ar   78  TYR78      -0.0009
    109  CE1      -15.5440   -1.8230   -3.4600 C.ar   78  TYR78       0.0417
    110  CE2      -14.1480   -1.7060   -5.4320 C.ar   78  TYR78       0.0417
    111  CZ       -15.3830   -1.8790   -4.8380 C.ar   78  TYR78       0.1957
    112  OH       -16.4550   -2.1370   -5.6760 O.3    78  TYR78      -0.2866
    113  N        -12.4830   -4.5040   -2.2090 N.am   79  MET79      -0.1963
    114  CA       -12.5030   -5.7820   -2.9120 C.3    79  MET79       0.1736
    115  C        -13.5360   -5.6980   -4.0560 C.2    79  MET79       0.2616
    116  O        -14.7200   -5.8860   -3.8290 O.2    79  MET79      -0.2715
    117  CB       -12.8270   -6.9290   -1.9190 C.3    79  MET79       0.0427
    118  CG       -11.7780   -7.0090   -0.6910 C.3    79  MET79       0.0599
    119  SD       -10.1030   -7.4590   -1.1920 S.3    79  MET79      -0.1393
    120  CE       -10.4540   -9.2100   -1.5510 C.3    79  MET79       0.0692
    121  N        -13.0540   -5.4450   -5.2690 N.am   80  ALA80      -0.1963
    122  CA       -13.9000   -5.0580   -6.3930 C.3    80  ALA80       0.1728
    123  C        -14.9510   -6.1040   -6.7890 C.2    80  ALA80       0.2616
    124  O        -15.9960   -5.7500   -7.2930 O.2    80  ALA80      -0.2715
    125  CB       -13.0450   -4.6990   -7.6000 C.3    80  ALA80       0.0334
    126  N        -14.6780   -7.3870   -6.5390 N.am   81  ASN81      -0.1958
    127  CA       -15.5810   -8.4540   -6.9690 C.3    81  ASN81       0.1819
    128  C        -16.5690   -8.9060   -5.8570 C.2    81  ASN81       0.2622
    129  O        -17.3700   -9.8200   -6.0550 O.2    81  ASN81      -0.2715
    130  CB       -14.7600   -9.5880   -7.5930 C.3    81  ASN81       0.1195
    131  CG       -14.5020   -9.3730   -9.0980 C.2    81  ASN81       0.2630
    132  OD1      -13.3570   -9.3320   -9.5720 O.2    81  ASN81      -0.2716
    133  ND2      -15.5570   -9.2830   -9.8340 N.am   81  ASN81      -0.0877
    134  N        -16.5510   -8.2510   -4.6920 N.am   82  GLY82      -0.1940
    135  CA       -17.6430   -8.4780   -3.7490 C.3    82  GLY82       0.2014
    136  C        -17.4850   -9.7870   -3.0090 C.2    82  GLY82       0.2639
    137  O        -16.3110  -10.2930   -2.9400 O.2    82  GLY82      -0.2714
    138  N        -18.5580  -10.3140   -2.4160 N.am   83  CYS83      -0.1967
    139  CA       -18.4100  -11.5530   -1.6480 C.3    83  CYS83       0.1712
    140  C        -18.1850  -12.7450   -2.5340 C.2    83  CYS83       0.2296
    141  O        -18.7410  -12.8580   -3.6190 O.2    83  CYS83      -0.2864
    142  CB       -19.5360  -11.8480   -0.6580 C.3    83  CYS83       0.0983
    143  SG       -21.1130  -12.1580   -1.4710 S.3    83  CYS83      -0.0798
    144  N        -21.3030  -14.7830   -3.8880 N.3    86  ASN86      -0.1240
    145  CA       -21.9620  -14.1920   -5.0870 C.3    86  ASN86       0.1653
    146  C        -21.1560  -14.3300   -6.3940 C.2    86  ASN86       0.2266
    147  O        -21.6940  -14.5210   -7.5280 O.2    86  ASN86      -0.2867
    148  CB       -22.2660  -12.7150   -4.7980 C.3    86  ASN86       0.1155
    149  CG       -23.5130  -12.5390   -3.9210 C.2    86  ASN86       0.2627
    150  OD1      -23.8370  -11.4300   -3.5360 O.2    86  ASN86      -0.2716
    151  ND2      -24.2320  -13.6110   -3.6690 N.am   86  ASN86      -0.0877
    152  N        -21.3840  -16.1880  -15.6350 N.3    92  ARG92      -0.1245
    153  CA       -20.5760  -15.5170  -16.6870 C.3    92  ARG92       0.1563
    154  C        -19.0490  -15.7840  -16.5160 C.2    92  ARG92       0.2260
    155  O        -18.2840  -15.6820  -17.4790 O.2    92  ARG92      -0.2867
    156  CB       -20.7690  -13.9850  -16.6690 C.3    92  ARG92       0.0307
    157  CG       -19.7470  -13.2440  -15.7310 C.3    92  ARG92       0.0489
    158  CD       -19.6860  -11.7000  -15.9090 C.3    92  ARG92       0.2205
    159  NE       -20.8790  -11.0600  -15.3500 N.pl3  92  ARG92      -0.0865
    160  CZ       -20.9380  -10.4490  -14.1670 C.cat  92  ARG92       0.5346
    161  NH1      -22.0980   -9.9220  -13.7660 N.pl3  92  ARG92       0.1354
    162  NH2      -19.8500  -10.3430  -13.3970 N.pl3  92  ARG92       0.1354
    163  N        -13.9920  -12.2850    0.4970 N.3   130  LEU130     -0.1245
    164  CA       -14.2310  -11.2820   -0.5670 C.3   130  LEU130      0.1561
    165  C        -13.2080  -11.4630   -1.6470 C.2   130  LEU130      0.2260
    166  O        -12.1760  -12.1340   -1.4440 O.2   130  LEU130     -0.2867
    167  CB       -14.1280   -9.8340    0.0020 C.3   130  LEU130      0.0270
    168  CG       -15.1790   -9.3990    1.0290 C.3   130  LEU130      0.0019
    169  CD1      -14.8270   -8.0100    1.6480 C.3   130  LEU130      0.0001
    170  CD2      -16.5960   -9.3510    0.4260 C.3   130  LEU130      0.0001
    171  N        -12.2860  -12.5450    5.3610 N.3   140  SER140     -0.1202
    172  CA       -12.9150  -11.3460    5.8120 C.3   140  SER140      0.2020
    173  C        -13.7280  -11.6740    7.0930 C.2   140  SER140      0.2618
    174  O        -13.7620  -12.8330    7.5400 O.2   140  SER140     -0.2717
    175  CB       -13.8770  -10.9280    4.6940 C.3   140  SER140      0.2103
    176  OG       -14.4770   -9.6720    4.9420 O.3   140  SER140     -0.2182
    177  N        -14.3980  -10.6540    7.6380 N.am  141  ASP141     -0.1973
    178  CA       -15.3440  -10.8180    8.7760 C.3   141  ASP141      0.1709
    179  C        -14.7690  -11.6120    9.9690 C.2   141  ASP141      0.2293
    180  O        -15.5190  -12.3090   10.7040 O.2   141  ASP141     -0.2864
    181  CB       -16.6880  -11.4340    8.3180 C.3   141  ASP141      0.1436
    182  CG       -17.6080  -10.4260    7.5920 C.2   141  ASP141      0.3671
    183  OD1      -17.1940   -9.8310    6.5770 O.co2 141  ASP141     -0.2456
    184  OD2      -18.7730  -10.2570    8.0220 O.co2 141  ASP141     -0.2456
@<TRIPOS>BOND
     1   155   154    2
     2   153   156    1
     3   153   154    1
     4   153   152    1
     5   156   157    1
     6   158   157    1
     7   158   159    1
     8   159   160    2
     9   160   161    1
    10   160   162    1
    11   133   131   am
    12   132   131    2
    13   131   130    1
    14   125   122    1
    15   130   127    1
    16   147   146    2
    17   124   123    2
    18   127   126    1
    19   127   128    1
    20   123   126   am
    21   123   122    1
    22   146   145    1
    23   122   121    1
    24   129   128    2
    25   128   134   am
    26   112   111    1
    27   110   111   ar
    28   110   108   ar
    29   121   115   am
    30   145   148    1
    31   145   144    1
    32   111   109   ar
    33   148   149    1
    34   134   135    1
    35   108   106   ar
    36   115   116    2
    37   115   114    1
    38   149   151   am
    39   149   150    2
    40   135   136    1
    41   141   140    2
    42     7     6    1
    43   109   107   ar
    44   106   107   ar
    45   106   105    1
    46   136   137    2
    47   136   138   am
    48   104   103    2
    49   114   113    1
    50   114   117    1
    51   140   139    1
    52   105   102    1
    53   138   139    1
    54   103   113   am
    55   103   102    1
    56     6     8    1
    57     6     5    1
    58   117   118    1
    59   139   142    1
    60   165   166    2
    61   165   164    1
    62     2     1    1
    63     2     5    1
    64     2     3    1
    65     4     3    2
    66   120   119    1
    67   102   101    1
    68   143   142    1
    69   119   118    1
    70     3     9   am
    71   101    94   am
    72   164   167    1
    73   164   163    1
    74   100    98   ar
    75   167   168    1
    76     9    10    1
    77   170   168    1
    78    94    95    2
    79    94    93    1
    80    98    97    1
    81    98    99   ar
    82    96    97    1
    83    96    93    1
    84    31    32    1
    85    10    11    1
    86   168   169    1
    87    27    26    2
    88    93    92    1
    89    32    35    1
    90    32    33    1
    91    26    25    1
    92    43    41    1
    93    11    12    2
    94    88    87    2
    95    92    87   am
    96    29    28    1
    97    33    36   am
    98    33    34    2
    99    41    40    1
   100    36    37    1
   101    28    25    1
   102    28    30    1
   103    23    21   ar
   104    23    22   ar
   105    87    86    1
   106    76    74    1
   107    25    24    1
   108    21    19   ar
   109    22    20   ar
   110    40    37    1
   111    40    42    1
   112    75    74    1
   113    90    89    1
   114    71    74    1
   115    71    70    1
   116    71    72    1
   117    37    38    1
   118    39    38    2
   119    86    89    1
   120    86    85    1
   121    19    18   ar
   122    89    91    1
   123   175   176    1
   124   175   172    1
   125    38    44   am
   126    20    18   ar
   127    72    73    2
   128   171   172    1
   129    18    17    1
   130   172   173    1
   131    44    45    1
   132   183   182   ar
   133    17    14    1
   134    45    48    1
   135    45    46    1
   136   173   174    2
   137   173   177   am
   138    80    79    2
   139    13    14    1
   140    48    49    1
   141   182   184   ar
   142   182   181    1
   143   177   178    1
   144    14    15    1
   145    79    78    1
   146    46    47    2
   147    50    49    1
   148    50    51    1
   149   181   178    1
   150    69    68    1
   151    15    16    2
   152    52    51    1
   153   178   179    1
   154    78    77    1
   155    78    81    1
   156    83    81    1
   157    81    82    1
   158   179   180    2
   159    68    67    1
   160    61    59   ar
   161    67    66    1
   162    84    82    1
   163    66    63    1
   164    65    64    2
   165    59    60   ar
   166    59    58    1
   167    63    64    1
   168    63    62    1
   169    58    57    1
   170    56    55    2
   171    57    54    1
   172    55    54    1
   173    54    53    1
