@<TRIPOS>MOLECULE
tmp/3k56A00.pdb
 133 124 0 0 0
SMALL
GASTEIGER

@<TRIPOS>ATOM
      1  N         57.1710   10.7020   17.3840 N.3     6  LYS6       -0.1245
      2  CA        56.2950   10.8600   16.2860 C.3     6  LYS6        0.1561
      3  C         56.0420    9.5360   15.6410 C.2     6  LYS6        0.2260
      4  O         56.9440    8.9360   15.0850 O.2     6  LYS6       -0.2867
      5  CB        56.8390   11.8260   15.2350 C.3     6  LYS6        0.0271
      6  CG        55.8840   11.8960   13.9810 C.3     6  LYS6        0.0035
      7  CD        56.5520   12.6860   12.8070 C.3     6  LYS6        0.0206
      8  CE        55.8170   12.5630   11.4180 C.3     6  LYS6        0.1093
      9  NZ        54.3530   12.7730   11.7000 N.3     6  LYS6       -0.1314
     10  N         53.1380    8.5080   13.1270 N.3     8  GLY8       -0.1210
     11  CA        52.8180    8.6970   11.7280 C.3     8  GLY8        0.1956
     12  C         51.8370    7.7310   11.0980 C.2     8  GLY8        0.2612
     13  O         51.9680    6.4950   11.1840 O.2     8  GLY8       -0.2717
     14  N         50.8440    8.3070   10.4550 N.am    9  GLY9       -0.1942
     15  CA        49.9000    7.5260    9.7080 C.3     9  GLY9        0.2014
     16  C         50.4930    6.2390    9.2300 C.2     9  GLY9        0.2639
     17  O         50.0450    5.2130    9.6450 O.2     9  GLY9       -0.2714
     18  N         51.5160    6.2840    8.3750 N.am   10  SER10      -0.1949
     19  CA        52.0920    5.0800    7.7320 C.3    10  SER10       0.1924
     20  C         52.1040    3.7700    8.5180 C.2    10  SER10       0.2314
     21  O         51.3410    2.8610    8.2390 O.2    10  SER10      -0.2863
     22  CB        53.5160    5.3580    7.2550 C.3    10  SER10       0.2116
     23  OG        53.5790    6.6440    6.6800 O.3    10  SER10      -0.2180
     24  N         47.8560    4.0460    3.8770 N.3    15  LYS15      -0.1245
     25  CA        47.1480    5.1700    3.2490 C.3    15  LYS15       0.1561
     26  C         46.4370    4.8660    1.9060 C.2    15  LYS15       0.2260
     27  O         45.8320    5.7400    1.3180 O.2    15  LYS15      -0.2867
     28  CB        47.9830    6.4510    3.1850 C.3    15  LYS15       0.0271
     29  CG        49.4680    6.2950    3.4460 C.3    15  LYS15       0.0035
     30  CD        50.1940    7.4480    2.7330 C.3    15  LYS15       0.0206
     31  CE        49.7300    7.5290    1.2520 C.3    15  LYS15       0.1093
     32  NZ        50.3510    8.6200    0.4320 N.3    15  LYS15      -0.1314
     33  N         50.1170   11.2830   12.4850 N.3    54  GLY54      -0.1210
     34  CA        49.5620   11.9240   11.2800 C.3    54  GLY54       0.1956
     35  C         48.1200   11.5430   11.0110 C.2    54  GLY54       0.2612
     36  O         47.4460   10.9470   11.8930 O.2    54  GLY54      -0.2717
     37  N         47.6290   11.8950    9.8090 N.am   55  GLY55      -0.1942
     38  CA        46.2510   11.6320    9.4210 C.3    55  GLY55       0.2014
     39  C         46.1080   10.2460    8.9070 C.2    55  GLY55       0.2639
     40  O         45.0560    9.6180    9.0190 O.2    55  GLY55      -0.2714
     41  N         47.1550    9.7390    8.2770 N.am   56  GLY56      -0.1954
     42  CA        47.0830    8.3610    7.8200 C.3    56  GLY56       0.1869
     43  C         45.9920    8.2260    6.7850 C.2    56  GLY56       0.2309
     44  O         45.7220    9.1620    5.9620 O.2    56  GLY56      -0.2863
     45  N         42.6750   11.2690    7.7070 N.3    59  GLY59      -0.1210
     46  CA        42.6430   12.6600    7.2150 C.3    59  GLY59       0.1956
     47  C         42.9230   12.9810    5.7300 C.2    59  GLY59       0.2611
     48  O         42.2790   13.8750    5.1460 O.2    59  GLY59      -0.2717
     49  N         43.8820   12.3010    5.1030 N.am   60  HIS60      -0.1975
     50  CA        44.2190   12.6740    3.7300 C.3    60  HIS60       0.1656
     51  C         43.0390   12.4470    2.8010 C.2    60  HIS60       0.2291
     52  O         42.7090   13.3080    2.0110 O.2    60  HIS60      -0.2864
     53  CB        45.4730   11.9430    3.2340 C.3    60  HIS60       0.0771
     54  CG        46.7460   12.3690    3.9380 C.ar   60  HIS60       0.0820
     55  ND1       47.3560   13.5990    3.7160 N.ar   60  HIS60      -0.2267
     56  CD2       47.5320   11.7140    4.8440 C.ar   60  HIS60       0.1154
     57  CE1       48.4480   13.6850    4.4660 C.ar   60  HIS60       0.1986
     58  NE2       48.5850   12.5520    5.1510 N.ar   60  HIS60      -0.2212
     59  N         40.2350   14.8720    3.3720 N.3    63  ALA63      -0.1245
     60  CA        40.6410   16.2450    2.9940 C.3    63  ALA63       0.1562
     61  C         40.7270   16.4580    1.4570 C.2    63  ALA63       0.2260
     62  O         40.3420   17.5280    0.9690 O.2    63  ALA63      -0.2867
     63  CB        41.9690   16.6750    3.6500 C.3    63  ALA63       0.0290
     64  N         36.6520   16.4260    8.1340 N.3    86  ILE86      -0.1245
     65  CA        38.0220   16.1480    8.4490 C.3    86  ILE86       0.1561
     66  C         38.2580   15.9930    9.9390 C.2    86  ILE86       0.2260
     67  O         38.8860   15.0290   10.3830 O.2    86  ILE86      -0.2867
     68  CB        38.8950   17.2990    7.9530 C.3    86  ILE86       0.0252
     69  CG1       38.7940   17.3640    6.4090 C.3    86  ILE86       0.0019
     70  CG2       40.3300   17.0690    8.3640 C.3    86  ILE86       0.0019
     71  CD1       39.3540   18.6070    5.8400 C.3    86  ILE86       0.0001
     72  N         39.6240   12.4860   11.7870 N.3    90  MET90      -0.1245
     73  CA        40.7860   12.5300   12.7030 C.3    90  MET90       0.1570
     74  C         40.4340   12.1400   14.1500 C.2    90  MET90       0.2261
     75  O         41.1840   11.4040   14.7800 O.2    90  MET90      -0.2867
     76  CB        41.4440   13.9360   12.6480 C.3    90  MET90       0.0387
     77  CG        42.2200   14.2270   11.3200 C.3    90  MET90       0.0595
     78  SD        43.3080   12.8620   10.8040 S.3    90  MET90      -0.1393
     79  CE        44.4880   12.6700   12.1660 C.3    90  MET90       0.0692
     80  N         47.8050   15.3560   13.5540 N.3   144  GLY144     -0.1210
     81  CA        47.5420   16.1840   12.3880 C.3   144  GLY144      0.1956
     82  C         46.0470   16.5330   12.3470 C.2   144  GLY144      0.2612
     83  O         45.1850   15.6910   12.6980 O.2   144  GLY144     -0.2717
     84  N         45.7220   17.7590   11.9100 N.am  145  ASP145     -0.1959
     85  CA        44.3280   18.1430   11.8580 C.3   145  ASP145      0.1840
     86  C         44.1280   19.2590   10.8230 C.2   145  ASP145      0.2621
     87  O         45.0810   19.8960   10.3020 O.2   145  ASP145     -0.2715
     88  CB        43.9270   18.6910   13.2510 C.3   145  ASP145      0.1450
     89  CG        42.4680   18.3890   13.6690 C.2   145  ASP145      0.3671
     90  OD1       41.6500   17.9040   12.8340 O.co2 145  ASP145     -0.2456
     91  OD2       42.1340   18.7140   14.8580 O.co2 145  ASP145     -0.2456
     92  N         42.8670   19.5480   10.5760 N.am  146  ILE146     -0.1977
     93  CA        42.4940   20.7760    9.9080 C.3   146  ILE146      0.1596
     94  C         42.4600   21.9530   10.9120 C.2   146  ILE146      0.2287
     95  O         41.9710   21.8120   12.0710 O.2   146  ILE146     -0.2864
     96  CB        41.1300   20.5950    9.1810 C.3   146  ILE146      0.0276
     97  CG1       40.8440   21.7960    8.2540 C.3   146  ILE146      0.0022
     98  CG2       40.0020   20.3300   10.1570 C.3   146  ILE146      0.0022
     99  CD1       41.7890   21.7780    7.0330 C.3   146  ILE146      0.0001
    100  N         46.0250   22.2550    6.6010 N.3   156  ILE156     -0.1231
    101  CA        46.3370   21.0480    7.3010 C.3   156  ILE156      0.1692
    102  C         47.5730   21.3080    8.1320 C.2   156  ILE156      0.2592
    103  O         48.6260   21.5490    7.5660 O.2   156  ILE156     -0.2718
    104  CB        46.6590   19.9360    6.3670 C.3   156  ILE156      0.0266
    105  CG1       45.3930   19.5640    5.6030 C.3   156  ILE156      0.0019
    106  CG2       47.1310   18.7820    7.1760 C.3   156  ILE156      0.0020
    107  CD1       44.3190   18.9700    6.4930 C.3   156  ILE156      0.0001
    108  N         47.4590   21.3140    9.4540 N.am  157  ILE157     -0.1966
    109  CA        48.6600   21.1900   10.3030 C.3   157  ILE157      0.1727
    110  C         49.1220   19.7010   10.4090 C.2   157  ILE157      0.2617
    111  O         48.3310   18.7750   10.6480 O.2   157  ILE157     -0.2715
    112  CB        48.3990   21.7580   11.6740 C.3   157  ILE157      0.0290
    113  CG1       49.7260   21.9890   12.3730 C.3   157  ILE157      0.0022
    114  CG2       47.5350   20.8030   12.4690 C.3   157  ILE157      0.0023
    115  CD1       49.6320   22.5810   13.7060 C.3   157  ILE157      0.0001
    116  N         50.3680   19.4170   10.1410 N.am  158  SER158     -0.1936
    117  CA        50.7870   18.0160   10.1890 C.3   158  SER158      0.2055
    118  C         51.6540   17.8300   11.3740 C.2   158  SER158      0.2644
    119  O         51.9820   18.7940   12.0990 O.2   158  SER158     -0.2714
    120  CB        51.6290   17.6160    8.9460 C.3   158  SER158      0.2130
    121  OG        52.9460   18.1240    9.0660 O.3   158  SER158     -0.2179
    122  N         52.0570   16.5790   11.5150 N.am  159  GLY159     -0.1939
    123  CA        52.9850   16.1610   12.5350 C.3   159  GLY159      0.2014
    124  C         54.2770   16.9170   12.3330 C.2   159  GLY159      0.2638
    125  O         54.8870   17.3910   13.3130 O.2   159  GLY159     -0.2714
    126  N         54.6640   17.0790   11.0580 N.am  160  ASP160     -0.1971
    127  CA        55.8560   17.8770   10.7110 C.3   160  ASP160      0.1709
    128  C         55.8570   19.3290   11.1660 C.2   160  ASP160      0.2293
    129  O         56.8810   19.8230   11.6260 O.2   160  ASP160     -0.2864
    130  CB        56.2660   17.7160    9.2630 C.3   160  ASP160      0.1436
    131  CG        57.0120   16.4080    9.0480 C.2   160  ASP160      0.3671
    132  OD1       56.8530   15.8150    7.9720 O.co2 160  ASP160     -0.2456
    133  OD2       57.7310   15.9290    9.9690 O.co2 160  ASP160     -0.2456
@<TRIPOS>BOND
     1    32    31    1
     2    62    61    2
     3    31    30    1
     4    27    26    2
     5    61    60    1
     6    26    25    1
     7    52    51    2
     8    30    29    1
     9    51    50    1
    10    60    59    1
    11    60    63    1
    12    28    25    1
    13    28    29    1
    14    53    50    1
    15    53    54    1
    16    25    24    1
    17    55    54   ar
    18    55    57   ar
    19    50    49    1
    20    54    56   ar
    21    57    58   ar
    22    56    58   ar
    23    49    47   am
    24    48    47    2
    25   105   104    1
    26   105   107    1
    27    47    46    1
    28    71    69    1
    29    44    43    2
    30   104   106    1
    31   104   101    1
    32    69    68    1
    33   100   101    1
    34    23    22    1
    35    43    42    1
    36    99    97    1
    37    46    45    1
    38    22    19    1
    39   101   102    1
    40   103   102    2
    41    19    18    1
    42    19    20    1
    43    42    41    1
    44    68    70    1
    45    68    65    1
    46   132   131   ar
    47   102   108   am
    48    64    65    1
    49    21    20    2
    50    97    96    1
    51    41    39   am
    52    18    16   am
    53    65    66    1
    54    39    40    2
    55    39    38    1
    56   120   121    1
    57   120   117    1
    58   131   130    1
    59   131   133   ar
    60    96    93    1
    61    96    98    1
    62    16    17    2
    63    16    15    1
    64   130   127    1
    65    38    37    1
    66   108   109    1
    67    15    14    1
    68    37    35   am
    69    93    92    1
    70    93    94    1
    71    66    67    2
    72   116   117    1
    73   116   110   am
    74   117   118    1
    75    87    86    2
    76   109   110    1
    77   109   112    1
    78   110   111    2
    79    14    12   am
    80    92    86   am
    81   127   126    1
    82   127   128    1
    83    78    77    1
    84    78    79    1
    85    86    85    1
    86    94    95    2
    87    35    34    1
    88    35    36    2
    89   126   124   am
    90    12    13    2
    91    12    11    1
    92   128   129    2
    93    34    33    1
    94    77    76    1
    95   118   122   am
    96   118   119    2
    97     8     9    1
    98     8     7    1
    99   122   123    1
   100   112   113    1
   101   112   114    1
   102    11    10    1
   103    72    73    1
   104    85    84    1
   105    85    88    1
   106    84    82   am
   107   124   123    1
   108   124   125    2
   109    82    81    1
   110    82    83    2
   111   113   115    1
   112    81    80    1
   113    76    73    1
   114    73    74    1
   115     7     6    1
   116    90    89   ar
   117    88    89    1
   118    89    91   ar
   119     6     5    1
   120    74    75    2
   121     4     3    2
   122     5     2    1
   123     3     2    1
   124     2     1    1
