@<TRIPOS>MOLECULE
tmp/3k5hA00.pdb
 218 206 0 0 0
SMALL
GASTEIGER

@<TRIPOS>ATOM
      1  N          8.5530   30.9490   40.8040 N.3    75  GLU75      -0.1245
      2  CA         9.8500   31.3140   41.3710 C.3    75  GLU75       0.1567
      3  C          9.8850   32.7650   41.9120 C.2    75  GLU75       0.2260
      4  O         10.6240   33.1060   42.8300 O.2    75  GLU75      -0.2867
      5  CB        10.8960   31.2480   40.2380 C.3    75  GLU75       0.0388
      6  CG        10.8580   29.9980   39.3300 C.3    75  GLU75       0.1160
      7  CD        11.5480   30.1650   37.9690 C.2    75  GLU75       0.3649
      8  OE1       12.5250   29.4150   37.7010 O.co2  75  GLU75      -0.2457
      9  OE2       11.0790   31.0330   37.1910 O.co2  75  GLU75      -0.2457
     10  N         18.5570   34.3040   37.8730 N.3   104  LYS104     -0.1245
     11  CA        19.2320   33.3930   36.9640 C.3   104  LYS104      0.1565
     12  C         20.7520   33.4840   36.8190 C.2   104  LYS104      0.2260
     13  O         21.4160   32.4680   36.5820 O.2   104  LYS104     -0.2867
     14  CB        18.5010   33.2640   35.5970 C.3   104  LYS104      0.0317
     15  CG        17.0090   33.5870   35.5000 C.3   104  LYS104      0.0294
     16  CD        16.2390   32.6600   34.5560 C.2   104  LYS104     -0.0067
     17  CE        16.8310   32.4590   33.1630 C.2   104  LYS104      0.1012
     18  NZ        16.0160   31.7980   32.0790 N.pl3 104  LYS104     -0.1270
     19  N         26.2310   27.4370   29.8450 N.3   119  ALA119     -0.1245
     20  CA        26.7750   28.3690   28.8600 C.3   119  ALA119      0.1562
     21  C         27.5910   29.4270   29.5510 C.2   119  ALA119      0.2260
     22  O         27.3770   29.7140   30.7150 O.2   119  ALA119     -0.2867
     23  CB        25.6500   29.0280   27.9710 C.3   119  ALA119      0.0290
     24  N         22.3640   35.2300   23.6630 N.3   144  MET144     -0.1245
     25  CA        21.0640   35.4180   24.2840 C.3   144  MET144      0.1570
     26  C         21.1410   36.4350   25.4250 C.2   144  MET144      0.2261
     27  O         21.7740   36.2140   26.4720 O.2   144  MET144     -0.2867
     28  CB        20.4740   34.0780   24.7310 C.3   144  MET144      0.0387
     29  CG        19.0250   34.1360   25.1210 C.3   144  MET144      0.0595
     30  SD        18.1170   34.5660   23.5440 S.3   144  MET144     -0.1393
     31  CE        17.7860   32.9700   23.0620 C.3   144  MET144      0.0692
     32  N         19.4880   38.0300   28.3590 N.3   146  LYS146     -0.1245
     33  CA        18.4760   37.5420   29.3000 C.3   146  LYS146      0.1561
     34  C         18.3850   38.3450   30.6000 C.2   146  LYS146      0.2260
     35  O         19.4000   38.7560   31.1410 O.2   146  LYS146     -0.2867
     36  CB        18.7790   36.0670   29.6490 C.3   146  LYS146      0.0271
     37  CG        19.5130   35.3210   28.4840 C.3   146  LYS146      0.0035
     38  CD        19.8530   33.8430   28.7130 C.3   146  LYS146      0.0206
     39  CE        18.6620   32.8410   28.5590 C.3   146  LYS146      0.1093
     40  NZ        18.6250   31.4520   29.2130 N.3   146  LYS146     -0.1314
     41  N         11.8860   36.2800   34.8960 N.3   151  ALA151     -0.1231
     42  CA        11.8290   35.6110   33.6080 C.3   151  ALA151      0.1694
     43  C         10.7530   34.5500   33.4900 C.2   151  ALA151      0.2592
     44  O         10.3720   33.8970   34.4560 O.2   151  ALA151     -0.2718
     45  CB        13.1590   34.9350   33.3420 C.3   151  ALA151      0.0304
     46  N         10.2960   34.3710   32.2660 N.am  152  TYR152     -0.1962
     47  CA         9.3370   33.3300   31.8880 C.3   152  TYR152      0.1771
     48  C          9.1310   33.4300   30.4060 C.2   152  TYR152      0.2620
     49  O          9.3120   34.4710   29.7550 O.2   152  TYR152     -0.2715
     50  CB         8.0210   33.2970   32.6700 C.3   152  TYR152      0.0574
     51  CG         7.1720   34.4830   32.2630 C.ar  152  TYR152     -0.0198
     52  CD1        7.4690   35.7630   32.7200 C.ar  152  TYR152     -0.0009
     53  CD2        6.1410   34.3420   31.3580 C.ar  152  TYR152     -0.0009
     54  CE1        6.7240   36.8530   32.3190 C.ar  152  TYR152      0.0417
     55  CE2        5.3920   35.4250   30.9600 C.ar  152  TYR152      0.0417
     56  CZ         5.6820   36.6870   31.4380 C.ar  152  TYR152      0.1957
     57  OH         4.9370   37.7810   31.0420 O.3   152  TYR152     -0.2866
     58  N          8.7630   32.2670   29.9060 N.am  153  ASP153     -0.1957
     59  CA         8.4500   32.1110   28.5090 C.3   153  ASP153      0.1840
     60  C          9.3350   32.9720   27.6520 C.2   153  ASP153      0.2622
     61  O          8.8160   33.5040   26.6890 O.2   153  ASP153     -0.2715
     62  CB         7.0140   32.5930   28.2680 C.3   153  ASP153      0.1450
     63  CG         5.9780   31.7150   28.9920 C.2   153  ASP153      0.3671
     64  OD1        6.3450   30.6050   29.4360 O.co2 153  ASP153     -0.2456
     65  OD2        4.8140   32.1370   29.1620 O.co2 153  ASP153     -0.2456
     66  N         10.6160   33.1240   27.9720 N.am  154  GLY154     -0.1954
     67  CA        11.5010   33.9500   27.1420 C.3   154  GLY154      0.1869
     68  C         11.0280   35.4150   27.0220 C.2   154  GLY154      0.2309
     69  O         11.5510   36.1720   26.2050 O.2   154  GLY154     -0.2863
     70  N         11.6980   37.6020   28.6490 N.3   156  GLY156     -0.1210
     71  CA        12.7770   38.4490   29.1120 C.3   156  GLY156      0.1956
     72  C         14.1010   38.1650   28.4230 C.2   156  GLY156      0.2611
     73  O         15.1370   38.6200   28.9160 O.2   156  GLY156     -0.2717
     74  N         14.0730   37.4420   27.3030 N.am  157  ASN157     -0.1974
     75  CA        15.3100   37.1550   26.5600 C.3   157  ASN157      0.1688
     76  C         15.2060   37.7010   25.1560 C.2   157  ASN157      0.2292
     77  O         14.1150   37.7870   24.5810 O.2   157  ASN157     -0.2864
     78  CB        15.6490   35.6680   26.3660 C.3   157  ASN157      0.1181
     79  CG        15.4320   34.8640   27.5990 C.2   157  ASN157      0.2629
     80  OD1       15.4820   35.3610   28.7280 O.2   157  ASN157     -0.2716
     81  ND2       15.1650   33.5910   27.3790 N.am  157  ASN157     -0.0877
     82  N         24.3880   35.2880   27.6950 N.3   181  GLU181     -0.1231
     83  CA        24.9780   33.9610   27.5620 C.3   181  GLU181      0.1699
     84  C         25.4240   33.6610   26.1480 C.2   181  GLU181      0.2592
     85  O         24.7860   34.0690   25.1600 O.2   181  GLU181     -0.2718
     86  CB        23.8750   32.9040   27.7230 C.3   181  GLU181      0.0402
     87  CG        23.4360   32.7810   29.1200 C.3   181  GLU181      0.1161
     88  CD        22.5810   31.5630   29.2910 C.2   181  GLU181      0.3649
     89  OE1       21.9560   31.1600   28.2820 O.co2 181  GLU181     -0.2457
     90  OE2       22.5150   31.0510   30.4310 O.co2 181  GLU181     -0.2457
     91  N         26.4880   32.8970   26.0460 N.am  182  LYS182     -0.1966
     92  CA        26.9480   32.5020   24.7230 C.3   182  LYS182      0.1728
     93  C         25.8380   31.6180   24.1500 C.2   182  LYS182      0.2616
     94  O         25.0660   30.9870   24.8690 O.2   182  LYS182     -0.2715
     95  CB        28.2310   31.7040   24.9390 C.3   182  LYS182      0.0311
     96  CG        28.9540   31.3380   23.6590 C.3   182  LYS182      0.0038
     97  CD        30.2480   30.6600   24.0270 C.3   182  LYS182      0.0206
     98  CE        31.3550   31.1110   23.1160 C.3   182  LYS182      0.1093
     99  NZ        31.4930   30.4270   21.8370 N.3   182  LYS182     -0.1314
    100  N         25.7610   31.5980   22.8310 N.am  183  TRP183     -0.1960
    101  CA        24.7290   30.8050   22.1870 C.3   183  TRP183      0.1771
    102  C         24.9650   29.3200   22.4240 C.2   183  TRP183      0.2619
    103  O         26.1230   28.9040   22.3870 O.2   183  TRP183     -0.2715
    104  CB        24.7150   31.1400   20.6910 C.3   183  TRP183      0.0590
    105  CG        23.4470   30.6910   20.1550 C.ar  183  TRP183      0.0006
    106  CD1       23.2290   29.6000   19.3960 C.ar  183  TRP183      0.0946
    107  CD2       22.1880   31.3170   20.3630 C.ar  183  TRP183      0.0152
    108  NE1       21.8910   29.5110   19.0810 N.ar  183  TRP183     -0.2442
    109  CE2       21.2280   30.5420   19.6910 C.ar  183  TRP183      0.0810
    110  CE3       21.7810   32.5020   20.9990 C.ar  183  TRP183      0.0012
    111  CZ2       19.8660   30.8950   19.6540 C.ar  183  TRP183      0.0191
    112  CZ3       20.4280   32.8680   20.9400 C.ar  183  TRP183      0.0001
    113  CH2       19.4890   32.0580   20.2830 C.ar  183  TRP183      0.0015
    114  N         23.9030   28.5430   22.6560 N.am  184  ALA184     -0.1977
    115  CA        23.9860   27.0840   22.8310 C.3   184  ALA184      0.1597
    116  C         23.3060   26.5050   21.6020 C.2   184  ALA184      0.2287
    117  O         22.0780   26.6220   21.4750 O.2   184  ALA184     -0.2864
    118  CB        23.1580   26.5390   24.0200 C.3   184  ALA184      0.0319
    119  N         22.0360   23.5390   20.5760 N.3   186  PHE186     -0.1241
    120  CA        21.7000   22.1650   20.9950 C.3   186  PHE186      0.1605
    121  C         21.1330   21.3810   19.8360 C.2   186  PHE186      0.2264
    122  O         20.6450   22.0200   18.9100 O.2   186  PHE186     -0.2867
    123  CB        20.6100   22.2040   22.0930 C.3   186  PHE186      0.0534
    124  CG        19.5580   23.2580   21.8610 C.ar  186  PHE186     -0.0203
    125  CD1       19.8310   24.5960   22.1710 C.ar  186  PHE186     -0.0042
    126  CD2       18.3130   22.9420   21.3150 C.ar  186  PHE186     -0.0042
    127  CE1       18.9310   25.6040   21.9800 C.ar  186  PHE186     -0.0003
    128  CE2       17.3940   23.9820   21.0980 C.ar  186  PHE186     -0.0003
    129  CZ        17.6970   25.3100   21.4460 C.ar  186  PHE186     -0.0000
    130  N         16.5520   19.8170   23.1450 N.3   189  GLU189     -0.1245
    131  CA        16.3970   20.1610   24.5430 C.3   189  GLU189      0.1567
    132  C         15.7700   19.0210   25.3040 C.2   189  GLU189      0.2260
    133  O         14.9140   18.3620   24.7640 O.2   189  GLU189     -0.2867
    134  CB        15.5780   21.4350   24.7180 C.3   189  GLU189      0.0388
    135  CG        16.1440   22.6310   24.0580 C.3   189  GLU189      0.1160
    136  CD        15.5830   23.9460   24.4930 C.2   189  GLU189      0.3649
    137  OE1       14.6520   24.3930   23.9090 O.co2 189  GLU189     -0.2457
    138  OE2       16.1540   24.5390   25.3800 O.co2 189  GLU189     -0.2457
    139  N         10.6060   23.9720   22.2310 N.3   211  GLN211     -0.1245
    140  CA        10.1350   25.3560   22.3960 C.3   211  GLN211      0.1566
    141  C          9.8250   25.9830   21.0420 C.2   211  GLN211      0.2260
    142  O         10.3550   25.5340   20.0280 O.2   211  GLN211     -0.2867
    143  CB        11.0610   26.2310   23.2520 C.3   211  GLN211      0.0367
    144  CG        11.0320   25.8650   24.7600 C.3   211  GLN211      0.0905
    145  CD        11.2380   24.3790   25.0510 C.2   211  GLN211      0.2608
    146  OE1       10.3340   23.7250   25.5580 O.2   211  GLN211     -0.2717
    147  NE2       12.4300   23.8430   24.7680 N.am  211  GLN211     -0.0878
    148  N         10.3150   30.5460   21.8490 N.3   214  SER214     -0.1217
    149  CA        10.8810   30.4690   23.1830 C.3   214  SER214      0.1889
    150  C          9.9370   29.9680   24.2510 C.2   214  SER214      0.2288
    151  O         10.3140   29.9620   25.4230 O.2   214  SER214     -0.2866
    152  CB        11.3660   31.8680   23.5680 C.3   214  SER214      0.2089
    153  OG        12.6450   32.1350   22.9980 O.3   214  SER214     -0.2183
    154  N         16.1910   21.8500   33.0570 N.3   254  GLU254     -0.1245
    155  CA        16.2350   22.0600   31.5990 C.3   254  GLU254      0.1567
    156  C         17.6840   22.0290   31.1570 C.2   254  GLU254      0.2260
    157  O         18.5080   22.8350   31.6530 O.2   254  GLU254     -0.2867
    158  CB        15.7370   23.4480   31.3130 C.3   254  GLU254      0.0388
    159  CG        14.2670   23.6240   31.7970 C.3   254  GLU254      0.1160
    160  CD        13.8320   24.9820   31.3380 C.2   254  GLU254      0.3649
    161  OE1       12.6640   25.4200   31.4820 O.co2 254  GLU254     -0.2457
    162  OE2       14.7500   25.6550   30.8270 O.co2 254  GLU254     -0.2457
    163  N         20.4720   21.1640   27.6010 N.3   256  PHE256     -0.1241
    164  CA        20.5980   21.3150   26.1540 C.3   256  PHE256      0.1605
    165  C         21.3830   20.0990   25.6960 C.2   256  PHE256      0.2264
    166  O         22.3140   19.6740   26.3670 O.2   256  PHE256     -0.2867
    167  CB        21.4620   22.5230   25.8040 C.3   256  PHE256      0.0534
    168  CG        20.8500   23.8900   26.0720 C.ar  256  PHE256     -0.0203
    169  CD1       21.5730   24.8710   26.7650 C.ar  256  PHE256     -0.0042
    170  CD2       19.6290   24.2750   25.5330 C.ar  256  PHE256     -0.0042
    171  CE1       21.0630   26.1840   26.9730 C.ar  256  PHE256     -0.0003
    172  CE2       19.1110   25.5630   25.7380 C.ar  256  PHE256     -0.0003
    173  CZ        19.8240   26.5200   26.4680 C.ar  256  PHE256     -0.0000
    174  N         20.3790   24.3240   31.1370 N.3   266  CYS266     -0.1221
    175  CA        19.7460   25.5240   30.5530 C.3   266  CYS266      0.1808
    176  C         19.2860   26.3500   31.7810 C.2   266  CYS266      0.2601
    177  O         19.7200   27.4750   31.9800 O.2   266  CYS266     -0.2717
    178  CB        18.5710   25.2220   29.6000 C.3   266  CYS266      0.0970
    179  SG        17.6670   26.7650   29.1520 S.3   266  CYS266     -0.0800
    180  N         18.4260   25.8160   32.6510 N.am  267  GLU267     -0.1979
    181  CA        18.0080   26.5750   33.8560 C.3   267  GLU267      0.1602
    182  C         17.3810   25.5120   34.7310 C.2   267  GLU267      0.2287
    183  O         17.0550   24.4510   34.2060 O.2   267  GLU267     -0.2864
    184  CB        17.0040   27.6930   33.4730 C.3   267  GLU267      0.0415
    185  CG        15.5320   27.2460   33.3980 C.3   267  GLU267      0.1163
    186  CD        14.5620   28.3690   33.0620 C.2   267  GLU267      0.3649
    187  OE1       14.7680   29.4840   33.5760 O.co2 267  GLU267     -0.2457
    188  OE2       13.6160   28.1710   32.2640 O.co2 267  GLU267     -0.2457
    189  N         10.4850   24.1930   41.3630 N.3   271  ARG271     -0.1245
    190  CA         9.1320   23.7640   41.7140 C.3   271  ARG271      0.1563
    191  C          8.6410   22.9310   40.5330 C.2   271  ARG271      0.2260
    192  O          9.4100   22.6250   39.6370 O.2   271  ARG271     -0.2867
    193  CB         8.3460   25.0730   41.7570 C.3   271  ARG271      0.0307
    194  CG         8.8500   25.9230   40.6100 C.3   271  ARG271      0.0489
    195  CD         7.7900   26.3390   39.6670 C.3   271  ARG271      0.2205
    196  NE         8.2530   27.3030   38.6650 N.pl3 271  ARG271     -0.0865
    197  CZ         8.2490   27.0550   37.3530 C.cat 271  ARG271      0.5346
    198  NH1        7.8530   25.8890   36.8540 N.pl3 271  ARG271      0.1354
    199  NH2        8.6540   27.9680   36.4900 N.pl3 271  ARG271      0.1354
    200  N          7.0880   21.7840   37.0730 N.3   273  HIS273     -0.1241
    201  CA         7.4630   22.3740   35.7850 C.3   273  HIS273      0.1621
    202  C          6.6510   21.8100   34.6290 C.2   273  HIS273      0.2264
    203  O          6.1070   20.6890   34.7340 O.2   273  HIS273     -0.2867
    204  CB         8.8870   21.8080   35.6370 C.3   273  HIS273      0.0745
    205  CG         9.7020   22.4740   34.5890 C.ar  273  HIS273      0.0817
    206  ND1        9.8350   21.9370   33.3270 N.ar  273  HIS273     -0.2268
    207  CD2       10.4720   23.5940   34.6250 C.ar  273  HIS273      0.1154
    208  CE1       10.6160   22.7350   32.6140 C.ar  273  HIS273      0.1986
    209  NE2       11.0320   23.7410   33.3760 N.ar  273  HIS273     -0.2212
    210  N         -0.1480   30.6000   28.3820 N.3   353  LYS353     -0.1245
    211  CA        -0.3660   29.1780   28.4860 C.3   353  LYS353      0.1561
    212  C         -1.7760   29.1380   29.0620 C.2   353  LYS353      0.2260
    213  O         -1.9980   29.4090   30.2500 O.2   353  LYS353     -0.2867
    214  CB         0.6370   28.5470   29.4670 C.3   353  LYS353      0.0271
    215  CG         2.0620   28.5380   28.8730 C.3   353  LYS353      0.0035
    216  CD         2.9970   27.7620   29.7430 C.3   353  LYS353      0.0206
    217  CE         4.3700   27.9950   29.1620 C.3   353  LYS353      0.1093
    218  NZ         5.3580   27.5020   30.1620 N.3   353  LYS353     -0.1314
@<TRIPOS>BOND
     1   122   121    2
     2   108   106   ar
     3   108   109   ar
     4   106   105   ar
     5   111   109   ar
     6   111   113   ar
     7   109   107   ar
     8   121   120    1
     9   142   141    2
    10   105   107   ar
    11   105   104    1
    12   113   112   ar
    13   107   110   ar
    14   119   120    1
    15   104   101    1
    16   112   110   ar
    17   120   123    1
    18   141   140    1
    19   128   126   ar
    20   128   129   ar
    21   126   124   ar
    22   129   127   ar
    23   117   116    2
    24   116   115    1
    25    99    98    1
    26   148   149    1
    27   124   123    1
    28   124   125   ar
    29   127   125   ar
    30   101   102    1
    31   101   100    1
    32   139   140    1
    33   103   102    2
    34   140   143    1
    35   102   114   am
    36   114   115    1
    37   100    93   am
    38   115   118    1
    39   153   152    1
    40    31    30    1
    41    98    97    1
    42   130   131    1
    43   149   152    1
    44   149   150    1
    45   143   144    1
    46    30    29    1
    47    96    97    1
    48    96    95    1
    49    24    25    1
    50   137   136   ar
    51   135   136    1
    52   135   134    1
    53    93    92    1
    54    93    94    2
    55   150   151    2
    56    25    28    1
    57    25    26    1
    58   136   138   ar
    59   131   134    1
    60   131   132    1
    61    77    76    2
    62    92    95    1
    63    92    91    1
    64    28    29    1
    65   144   145    1
    66   133   132    2
    67   147   145   am
    68   145   146    2
    69    76    75    1
    70    85    84    2
    71    26    27    2
    72   170   172   ar
    73   170   168   ar
    74   165   164    1
    75   165   166    2
    76   172   173   ar
    77   167   168    1
    78   167   164    1
    79    91    84   am
    80   168   169   ar
    81    84    83    1
    82   164   163    1
    83    69    68    2
    84    78    75    1
    85    78    79    1
    86   173   171   ar
    87    75    74    1
    88    61    60    2
    89   169   171   ar
    90    68    67    1
    91    67    66    1
    92    74    72   am
    93    81    79   am
    94    83    82    1
    95    83    86    1
    96    79    80    2
    97    60    66   am
    98    60    59    1
    99    86    87    1
   100    23    20    1
   101    62    59    1
   102    62    63    1
   103    89    88   ar
   104    32    33    1
   105   210   211    1
   106    72    73    2
   107    72    71    1
   108    37    38    1
   109    37    36    1
   110   211   212    1
   111   211   214    1
   112    59    58    1
   113    39    38    1
   114    39    40    1
   115    70    71    1
   116    20    21    1
   117    20    19    1
   118   215   214    1
   119   215   216    1
   120    63    65   ar
   121    63    64   ar
   122   212   213    2
   123    87    88    1
   124   179   178    1
   125   217   216    1
   126   217   218    1
   127    88    90   ar
   128    33    36    1
   129    33    34    1
   130    21    22    2
   131   178   175    1
   132    49    48    2
   133    58    48   am
   134    48    47    1
   135   175   174    1
   136   175   176    1
   137    34    35    2
   138   162   160   ar
   139    55    53   ar
   140    55    56   ar
   141    57    56    1
   142   156   155    1
   143   156   157    2
   144   158   155    1
   145   158   159    1
   146   160   161   ar
   147   160   159    1
   148    53    51   ar
   149    56    54   ar
   150   155   154    1
   151   176   177    2
   152   176   180   am
   153    47    46    1
   154    47    50    1
   155    18    17    1
   156    51    50    1
   157    51    52   ar
   158   188   186   ar
   159    46    43   am
   160    54    52   ar
   161   208   206   ar
   162   208   209   ar
   163   180   181    1
   164   186   185    1
   165   186   187   ar
   166    17    16    2
   167   206   205   ar
   168    45    42    1
   169   209   207   ar
   170   185   184    1
   171   184   181    1
   172    43    42    1
   173    43    44    2
   174    42    41    1
   175   181   182    1
   176   183   182    2
   177    16    15    1
   178   205   207   ar
   179   205   204    1
   180   202   203    2
   181   202   201    1
   182    15    14    1
   183    14    11    1
   184   204   201    1
   185   201   200    1
   186   199   197    1
   187    13    12    2
   188    12    11    1
   189   198   197    1
   190    11    10    1
   191     9     7   ar
   192   197   196    2
   193     8     7   ar
   194     7     6    1
   195   196   195    1
   196     6     5    1
   197   192   191    2
   198   195   194    1
   199     5     2    1
   200   191   190    1
   201   194   193    1
   202     1     2    1
   203   189   190    1
   204     2     3    1
   205   190   193    1
   206     3     4    2
