@<TRIPOS>MOLECULE
tmp/3k5iD00.pdb
 150 141 0 0 0
SMALL
GASTEIGER

@<TRIPOS>ATOM
      1  N        -23.1490  -12.4840   -5.3260 N.3   102  LYS102     -0.1245
      2  CA       -22.7860  -11.2510   -4.6620 C.3   102  LYS102      0.1561
      3  C        -23.9300  -10.2750   -4.6100 C.2   102  LYS102      0.2260
      4  O        -24.1530   -9.5920   -3.6210 O.2   102  LYS102     -0.2867
      5  CB       -21.5730  -10.6470   -5.3580 C.3   102  LYS102      0.0271
      6  CG       -20.4580  -10.2620   -4.3850 C.3   102  LYS102      0.0035
      7  CD       -19.0850  -10.6160   -4.9330 C.3   102  LYS102      0.0206
      8  CE       -18.0680   -9.4920   -4.7350 C.3   102  LYS102      0.1093
      9  NZ       -16.7600  -10.1230   -5.1120 N.3   102  LYS102     -0.1314
     10  N        -22.4240   -0.9080    0.5260 N.3   117  ALA117     -0.1245
     11  CA       -22.5700    0.0910   -0.5120 C.3   117  ALA117      0.1562
     12  C        -23.9270    0.0160   -1.1890 C.2   117  ALA117      0.2260
     13  O        -24.5320   -1.0470   -1.2560 O.2   117  ALA117     -0.2867
     14  CB       -21.5060   -0.1170   -1.5380 C.3   117  ALA117      0.0290
     15  N        -18.1380    0.9220   -9.0440 N.3   142  MET142     -0.1245
     16  CA       -17.6840   -0.4410   -9.2800 C.3   142  MET142      0.1570
     17  C        -18.6480   -1.3090  -10.1100 C.2   142  MET142      0.2261
     18  O        -19.8210   -1.5340   -9.7400 O.2   142  MET142     -0.2867
     19  CB       -17.3730   -1.1110   -7.9360 C.3   142  MET142      0.0387
     20  CG       -15.9310   -1.5610   -7.7640 C.3   142  MET142      0.0595
     21  SD       -14.7610   -1.6120   -9.1400 S.3   142  MET142     -0.1393
     22  CE       -13.2870   -1.7290   -8.1500 C.3   142  MET142      0.0692
     23  N        -19.5810   -4.7350  -11.0550 N.3   144  LYS144     -0.1245
     24  CA       -19.2170   -6.0390  -10.5460 C.3   144  LYS144      0.1561
     25  C        -20.0130   -7.2150  -11.0770 C.2   144  LYS144      0.2260
     26  O        -21.2300   -7.1760  -11.2480 O.2   144  LYS144     -0.2867
     27  CB       -19.3250   -6.0680   -9.0220 C.3   144  LYS144      0.0271
     28  CG       -19.4360   -4.7530   -8.2910 C.3   144  LYS144      0.0035
     29  CD       -18.0940   -4.5660   -7.5650 C.3   144  LYS144      0.0206
     30  CE       -18.1720   -4.7620   -6.0470 C.3   144  LYS144      0.1093
     31  NZ       -17.1280   -5.5410   -5.2810 N.3   144  LYS144     -0.1314
     32  N        -13.5610  -10.2160  -12.6950 N.3   149  GLY149     -0.1210
     33  CA       -15.0060   -9.8660  -12.4360 C.3   149  GLY149      0.1956
     34  C        -15.4490   -8.4290  -12.0700 C.2   149  GLY149      0.2611
     35  O        -16.6590   -8.1770  -11.9620 O.2   149  GLY149     -0.2717
     36  N        -14.5340   -7.4830  -11.8600 N.am  150  ASN150     -0.1974
     37  CA       -14.8850   -6.1050  -11.4970 C.3   150  ASN150      0.1688
     38  C        -14.2600   -5.0410  -12.4270 C.2   150  ASN150      0.2292
     39  O        -13.1320   -5.1610  -12.8680 O.2   150  ASN150     -0.2864
     40  CB       -14.2570   -5.7570  -10.1310 C.3   150  ASN150      0.1181
     41  CG       -14.7260   -6.6370   -8.9790 C.2   150  ASN150      0.2629
     42  OD1      -15.8150   -7.2040   -9.0590 O.2   150  ASN150     -0.2716
     43  ND2      -13.9290   -6.7340   -7.8970 N.am  150  ASN150     -0.0877
     44  N        -21.7180   -1.0420   -8.4360 N.3   174  GLU174     -0.1231
     45  CA       -21.7630   -0.5340   -7.0730 C.3   174  GLU174      0.1699
     46  C        -21.1910    0.8730   -6.8870 C.2   174  GLU174      0.2592
     47  O        -20.1570    1.2650   -7.4930 O.2   174  GLU174     -0.2718
     48  CB       -20.8460   -1.4010   -6.2700 C.3   174  GLU174      0.0402
     49  CG       -21.0760   -1.1730   -4.8310 C.3   174  GLU174      0.1161
     50  CD       -20.9380   -2.5220   -4.2680 C.2   174  GLU174      0.3649
     51  OE1      -19.7810   -2.7890   -3.8860 O.co2 174  GLU174     -0.2457
     52  OE2      -21.9260   -3.2810   -4.3990 O.co2 174  GLU174     -0.2457
     53  N        -21.8760    1.5950   -6.0010 N.am  175  LYS175     -0.1966
     54  CA       -21.4860    2.9710   -5.6410 C.3   175  LYS175      0.1728
     55  C        -20.1060    2.8900   -4.9770 C.2   175  LYS175      0.2616
     56  O        -19.8000    1.9570   -4.2410 O.2   175  LYS175     -0.2715
     57  CB       -22.5240    3.6280   -4.7300 C.3   175  LYS175      0.0311
     58  CG       -22.1120    4.9640   -4.1870 C.3   175  LYS175      0.0038
     59  CD       -23.3750    5.7060   -3.9290 C.3   175  LYS175      0.0206
     60  CE       -23.0880    7.0170   -3.1770 C.3   175  LYS175      0.1093
     61  NZ       -22.9400    8.1690   -4.1060 N.3   175  LYS175     -0.1314
     62  N        -19.2510    3.8630   -5.2570 N.am  176  TRP176     -0.1960
     63  CA       -17.9090    3.8360   -4.6850 C.3   176  TRP176      0.1771
     64  C        -17.6860    3.7640   -3.1710 C.2   176  TRP176      0.2616
     65  O        -18.3720    4.4280   -2.4060 O.2   176  TRP176     -0.2715
     66  CB       -17.1890    5.1150   -5.0730 C.3   176  TRP176      0.0590
     67  CG       -15.7720    4.7970   -5.1600 C.ar  176  TRP176      0.0006
     68  CD1      -14.8160    5.2680   -4.3360 C.ar  176  TRP176      0.0946
     69  CD2      -15.1460    3.8520   -6.0550 C.ar  176  TRP176      0.0152
     70  NE1      -13.6210    4.7200   -4.6970 N.ar  176  TRP176     -0.2442
     71  CE2      -13.7800    3.8610   -5.7510 C.ar  176  TRP176      0.0810
     72  CE3      -15.6090    2.9810   -7.0560 C.ar  176  TRP176      0.0012
     73  CZ2      -12.8430    3.0760   -6.4380 C.ar  176  TRP176      0.0191
     74  CZ3      -14.6850    2.2110   -7.7570 C.ar  176  TRP176      0.0001
     75  CH2      -13.3080    2.2890   -7.4580 C.ar  176  TRP176      0.0015
     76  N        -16.6730    3.0350   -2.7350 N.am  177  ALA177     -0.2030
     77  CA       -16.3850    3.0320   -1.3140 C.3   177  ALA177      0.1283
     78  C        -15.1100    3.8110   -1.1590 C.3   177  ALA177      0.2036
     79  O        -14.1010    3.2560   -1.6180 O.3   177  ALA177     -0.2185
     80  CB       -15.9980    1.6540   -0.8770 C.3   177  ALA177      0.0262
     81  N        -12.6630    4.0900    0.9290 N.3   179  PHE179     -0.1241
     82  CA       -12.1090    3.4180    2.0700 C.3   179  PHE179      0.1605
     83  C        -10.6460    3.8210    2.3070 C.2   179  PHE179      0.2264
     84  O         -9.8420    3.9370    1.3850 O.2   179  PHE179     -0.2867
     85  CB       -12.3720    1.8960    1.9020 C.3   179  PHE179      0.0534
     86  CG       -11.5430    1.2240    0.8220 C.ar  179  PHE179     -0.0203
     87  CD1      -12.0990    0.8110   -0.3590 C.ar  179  PHE179     -0.0042
     88  CD2      -10.1940    1.0250    0.9800 C.ar  179  PHE179     -0.0042
     89  CE1      -11.3400    0.2540   -1.3500 C.ar  179  PHE179     -0.0003
     90  CE2       -9.4060    0.4180   -0.0130 C.ar  179  PHE179     -0.0003
     91  CZ        -9.9790    0.0010   -1.1800 C.ar  179  PHE179     -0.0000
     92  N         -8.6230   -1.5980    4.1650 N.3   182  GLU182     -0.1245
     93  CA        -9.3700   -2.8270    3.9210 C.3   182  GLU182      0.1567
     94  C         -9.1380   -3.7820    5.0620 C.2   182  GLU182      0.2260
     95  O         -7.9980   -4.0950    5.4160 O.2   182  GLU182     -0.2867
     96  CB        -9.1240   -3.4840    2.5650 C.3   182  GLU182      0.0388
     97  CG        -9.4330   -2.5360    1.4080 C.3   182  GLU182      0.1160
     98  CD        -9.3940   -3.2340    0.0840 C.2   182  GLU182      0.3649
     99  OE1       -8.4120   -3.0170   -0.6640 O.co2 182  GLU182     -0.2457
    100  OE2      -10.3510   -3.9920   -0.1710 O.co2 182  GLU182     -0.2457
    101  N         -3.9040   -5.3420   -0.7020 N.3   204  GLN204     -0.1245
    102  CA        -3.8940   -6.0170   -1.9820 C.3   204  GLN204      0.1566
    103  C         -2.9030   -5.4550   -2.9850 C.2   204  GLN204      0.2260
    104  O         -2.2790   -4.4120   -2.8350 O.2   204  GLN204     -0.2867
    105  CB        -5.2690   -5.9450   -2.6220 C.3   204  GLN204      0.0367
    106  CG        -6.1560   -7.1080   -2.3160 C.3   204  GLN204      0.0905
    107  CD        -7.4290   -6.8990   -3.0830 C.2   204  GLN204      0.2608
    108  OE1       -8.4040   -7.6460   -2.9490 O.2   204  GLN204     -0.2717
    109  NE2       -7.4200   -5.8420   -3.9000 N.am  204  GLN204     -0.0878
    110  N         -5.0750   -6.5520   -7.5840 N.3   207  SER207     -0.1217
    111  CA        -6.3410   -7.1940   -7.2170 C.3   207  SER207      0.1889
    112  C         -6.3370   -8.5490   -6.4560 C.2   207  SER207      0.2288
    113  O         -7.3410   -9.2560   -6.3280 O.2   207  SER207     -0.2866
    114  CB        -7.3420   -7.1360   -8.3740 C.3   207  SER207      0.2089
    115  OG        -7.2710   -5.8580   -8.9910 O.3   207  SER207     -0.2183
    116  N        -15.0700   -9.6410    4.5580 N.3   247  GLU247     -0.1245
    117  CA       -14.1610   -8.5510    4.1600 C.3   247  GLU247      0.1567
    118  C        -14.9390   -7.2500    4.3450 C.2   247  GLU247      0.2260
    119  O        -16.1300   -7.1960    4.0310 O.2   247  GLU247     -0.2867
    120  CB       -13.7630   -8.6860    2.6930 C.3   247  GLU247      0.0388
    121  CG       -12.8190   -9.8520    2.3580 C.3   247  GLU247      0.1160
    122  CD       -12.7260  -10.1320    0.8390 C.2   247  GLU247      0.3649
    123  OE1      -11.9720  -11.0630    0.4990 O.co2 247  GLU247     -0.2457
    124  OE2      -13.3550   -9.4510   -0.0230 O.co2 247  GLU247     -0.2457
    125  N        -14.5930   -2.5670    4.6660 N.3   249  PHE249     -0.1241
    126  CA       -14.0380   -1.2820    4.2680 C.3   249  PHE249      0.1605
    127  C        -14.2120   -0.3990    5.4860 C.2   249  PHE249      0.2264
    128  O        -15.3060   -0.2930    6.0710 O.2   249  PHE249     -0.2867
    129  CB       -14.9120   -0.5790    3.2130 C.3   249  PHE249      0.0534
    130  CG       -14.8420   -1.1950    1.8470 C.ar  249  PHE249     -0.0203
    131  CD1      -15.9690   -1.3730    1.0020 C.ar  249  PHE249     -0.0042
    132  CD2      -13.5920   -1.5780    1.4060 C.ar  249  PHE249     -0.0042
    133  CE1      -15.7910   -1.9760   -0.2630 C.ar  249  PHE249     -0.0003
    134  CE2      -13.3730   -2.1600    0.1520 C.ar  249  PHE249     -0.0003
    135  CZ       -14.4530   -2.3610   -0.6930 C.ar  249  PHE249     -0.0000
    136  N        -17.8080   -5.4890    2.7060 N.3   259  CYS259     -0.1221
    137  CA       -17.4750   -5.5380    1.2840 C.3   259  CYS259      0.1808
    138  C        -18.0290   -6.9180    0.7630 C.2   259  CYS259      0.2601
    139  O        -18.8560   -6.9550   -0.1300 O.2   259  CYS259     -0.2717
    140  CB       -15.9480   -5.3150    1.0730 C.3   259  CYS259      0.0970
    141  SG       -15.5020   -5.8610   -0.6140 S.3   259  CYS259     -0.0800
    142  N        -17.6120   -8.0640    1.3070 N.am  260  GLU260     -0.1979
    143  CA       -18.1340   -9.3640    0.9080 C.3   260  GLU260      0.1602
    144  C        -17.8380  -10.4720    1.9470 C.2   260  GLU260      0.2287
    145  O        -16.9390  -10.4010    2.7920 O.2   260  GLU260     -0.2864
    146  CB       -17.7390   -9.7590   -0.5340 C.3   260  GLU260      0.0415
    147  CG       -16.2680   -9.6470   -0.7980 C.3   260  GLU260      0.1163
    148  CD       -15.7270  -10.7100   -1.7540 C.2   260  GLU260      0.3649
    149  OE1      -16.5330  -11.2820   -2.5250 O.co2 260  GLU260     -0.2457
    150  OE2      -14.4870  -10.9370   -1.7470 O.co2 260  GLU260     -0.2457
@<TRIPOS>BOND
     1    39    38    2
     2    32    33    1
     3    33    34    1
     4    38    37    1
     5    34    35    2
     6    34    36   am
     7    36    37    1
     8    37    40    1
     9    26    25    2
    10    25    24    1
    11    23    24    1
    12    24    27    1
    13    40    41    1
    14    17    18    2
    15    17    16    1
    16    16    15    1
    17    16    19    1
    18    21    22    1
    19    21    20    1
    20    42    41    2
    21    27    28    1
    22   115   114    1
    23    41    43   am
    24    44    45    1
    25   114   111    1
    26    28    29    1
    27    19    20    1
    28    74    75   ar
    29    74    72   ar
    30   110   111    1
    31    29    30    1
    32    47    46    2
    33    75    73   ar
    34   111   112    1
    35    45    46    1
    36    45    48    1
    37    72    69   ar
    38    46    53   am
    39   112   113    2
    40    73    71   ar
    41    48    49    1
    42    69    71   ar
    43    69    67   ar
    44    30    31    1
    45    53    54    1
    46    71    70   ar
    47    54    55    1
    48    54    57    1
    49     5     2    1
    50     5     6    1
    51     1     2    1
    52    62    55   am
    53    62    63    1
    54    67    66    1
    55    67    68   ar
    56     9     8    1
    57    66    63    1
    58    55    56    2
    59     7     8    1
    60     7     6    1
    61    49    50    1
    62    57    58    1
    63    70    68   ar
    64    63    64    1
    65     2     3    1
    66     3     4    2
    67    52    50   ar
    68    50    51   ar
    69    58    59    1
    70    61    60    1
    71    59    60    1
    72   109   107   am
    73    64    76   am
    74    64    65    2
    75   107   108    2
    76   107   106    1
    77   103   104    2
    78   103   102    1
    79    76    77    1
    80   105   106    1
    81   105   102    1
    82   149   148   ar
    83   102   101    1
    84   148   150   ar
    85   148   147    1
    86    79    78    1
    87    14    11    1
    88    89    91   ar
    89    89    87   ar
    90    77    78    1
    91    77    80    1
    92    13    12    2
    93    12    11    1
    94    91    90   ar
    95   147   146    1
    96   135   133   ar
    97   135   134   ar
    98    99    98   ar
    99   141   140    1
   100   146   143    1
   101    11    10    1
   102    87    86   ar
   103   133   131   ar
   104   100    98   ar
   105   139   138    2
   106   124   122   ar
   107    90    88   ar
   108    98    97    1
   109   134   132   ar
   110   123   122   ar
   111   138   137    1
   112   138   142   am
   113    86    88   ar
   114    86    85    1
   115   122   121    1
   116   143   142    1
   117   143   144    1
   118    81    82    1
   119   131   130   ar
   120   140   137    1
   121   137   136    1
   122    84    83    2
   123   132   130   ar
   124    97    96    1
   125   130   129    1
   126    85    82    1
   127   144   145    2
   128    82    83    1
   129   121   120    1
   130    96    93    1
   131   120   117    1
   132   129   126    1
   133    93    92    1
   134    93    94    1
   135   119   118    2
   136   117   118    1
   137   117   116    1
   138   126   125    1
   139   126   127    1
   140    94    95    2
   141   127   128    2
