@<TRIPOS>MOLECULE
tmp/3k5iA00.pdb
 91 86 0 0 0
SMALL
GASTEIGER

@<TRIPOS>ATOM
      1  N         23.2760   36.1380   23.0890 N.3   144  MET144     -0.1245
      2  CA        21.9580   36.2360   23.7210 C.3   144  MET144      0.1570
      3  C         21.9630   37.3760   24.7070 C.2   144  MET144      0.2261
      4  O         22.7350   37.3260   25.6530 O.2   144  MET144     -0.2867
      5  CB        21.5830   34.9200   24.4210 C.3   144  MET144      0.0387
      6  CG        20.1340   34.8690   24.9320 C.3   144  MET144      0.0595
      7  SD        19.0660   35.3360   23.5830 S.3   144  MET144     -0.1393
      8  CE        18.9320   33.8750   22.8580 C.3   144  MET144      0.0692
      9  N         11.3970   33.5100   28.2740 N.3   154  GLY154     -0.1210
     10  CA        12.0310   34.3190   27.2370 C.3   154  GLY154      0.1956
     11  C         11.8410   35.8410   27.3770 C.2   154  GLY154      0.2611
     12  O         12.3170   36.6600   26.5670 O.2   154  GLY154     -0.2717
     13  N         11.1120   36.1860   28.4320 N.am  155  ARG155     -0.1979
     14  CA        10.7980   37.5680   28.7280 C.3   155  ARG155      0.1597
     15  C         11.9280   38.5570   28.9730 C.2   155  ARG155      0.2287
     16  O         11.6640   39.7550   28.9000 O.2   155  ARG155     -0.2864
     17  CB         9.6280   37.7170   29.6960 C.3   155  ARG155      0.0334
     18  CG         8.2750   37.3060   29.1110 C.3   155  ARG155      0.0492
     19  CD         7.3220   37.1440   30.3070 C.3   155  ARG155      0.2205
     20  NE         6.1540   36.2740   30.1000 N.pl3 155  ARG155     -0.0865
     21  CZ         5.0570   36.3430   30.8640 C.cat 155  ARG155      0.5346
     22  NH1        4.0000   35.5190   30.7820 N.pl3 155  ARG155      0.1354
     23  NH2        5.0360   37.2170   31.8470 N.pl3 155  ARG155      0.1354
     24  N         15.1580   37.9380   27.4300 N.3   157  ASN157     -0.1225
     25  CA        16.1810   37.4710   26.4870 C.3   157  ASN157      0.1785
     26  C         16.0600   38.2850   25.1940 C.2   157  ASN157      0.2597
     27  O         14.9770   38.7070   24.8070 O.2   157  ASN157     -0.2718
     28  CB        15.8560   35.9900   26.1430 C.3   157  ASN157      0.1169
     29  CG        16.5560   34.9660   27.0700 C.2   157  ASN157      0.2627
     30  OD1       16.7410   35.1780   28.2750 O.2   157  ASN157     -0.2716
     31  ND2       16.9640   33.8420   26.5020 N.am  157  ASN157     -0.0877
     32  N         17.1790   38.5010   24.5190 N.am  158  PHE158     -0.1962
     33  CA        17.1390   39.2160   23.2690 C.3   158  PHE158      0.1771
     34  C         18.3640   38.8510   22.4800 C.2   158  PHE158      0.2619
     35  O         19.4870   39.2040   22.8350 O.2   158  PHE158     -0.2715
     36  CB        17.0660   40.7100   23.4040 C.3   158  PHE158      0.0574
     37  CG        16.6860   41.4170   22.1320 C.ar  158  PHE158     -0.0200
     38  CD1       15.3770   41.8570   21.9330 C.ar  158  PHE158     -0.0042
     39  CD2       17.6250   41.6690   21.1510 C.ar  158  PHE158     -0.0042
     40  CE1       14.9840   42.5360   20.7850 C.ar  158  PHE158     -0.0003
     41  CE2       17.2730   42.3640   19.9850 C.ar  158  PHE158     -0.0003
     42  CZ        15.9190   42.7810   19.7840 C.ar  158  PHE158     -0.0000
     43  N         18.0810   38.1270   21.4060 N.am  159  ARG159     -0.1977
     44  CA        19.0930   37.6950   20.4600 C.3   159  ARG159      0.1597
     45  C         19.7000   38.8890   19.7480 C.2   159  ARG159      0.2287
     46  O         18.9900   39.7010   19.1430 O.2   159  ARG159     -0.2864
     47  CB        18.4660   36.8970   19.3250 C.3   159  ARG159      0.0334
     48  CG        19.6510   36.2210   18.5810 C.3   159  ARG159      0.0492
     49  CD        19.2690   34.9400   17.8020 C.3   159  ARG159      0.2205
     50  NE        20.0180   34.8880   16.5470 N.pl3 159  ARG159     -0.0865
     51  CZ        20.2680   33.8070   15.8140 C.cat 159  ARG159      0.5346
     52  NH1       21.0040   33.9380   14.7110 N.pl3 159  ARG159      0.1354
     53  NH2       19.7900   32.6230   16.1720 N.pl3 159  ARG159      0.1354
     54  N         14.7820   47.0650   23.8800 N.3   172  ALA172     -0.1231
     55  CA        14.0040   45.8740   24.2610 C.3   172  ALA172      0.1694
     56  C         13.9810   45.4430   25.7180 C.2   172  ALA172      0.2591
     57  O         12.9180   45.1180   26.2770 O.2   172  ALA172     -0.2718
     58  CB        14.2230   44.7040   23.3270 C.3   172  ALA172      0.0304
     59  N         15.1720   45.4470   26.3040 N.am  173  LEU173     -0.1980
     60  CA        15.4120   45.0590   27.6840 C.3   173  LEU173      0.1596
     61  C         15.7420   46.3020   28.4670 C.2   173  LEU173      0.2287
     62  O         16.5670   46.3050   29.3790 O.2   173  LEU173     -0.2864
     63  CB        16.6790   44.2290   27.6520 C.3   173  LEU173      0.0297
     64  CG        16.4560   42.8300   27.0610 C.3   173  LEU173      0.0022
     65  CD1       17.6940   41.9430   27.3120 C.3   173  LEU173      0.0001
     66  CD2       15.2340   42.1540   27.6540 C.3   173  LEU173      0.0001
     67  N         16.9260   47.4390   32.6990 N.3   176  ARG176     -0.1245
     68  CA        17.0680   46.2300   33.4900 C.3   176  ARG176      0.1563
     69  C         18.6050   46.0040   33.6520 C.2   176  ARG176      0.2260
     70  O         19.4240   46.5390   32.9140 O.2   176  ARG176     -0.2867
     71  CB        16.2890   45.0500   32.8040 C.3   176  ARG176      0.0307
     72  CG        14.7930   45.3840   32.4960 C.3   176  ARG176      0.0489
     73  CD        14.0350   44.2960   31.6790 C.3   176  ARG176      0.2205
     74  NE        13.9850   43.0220   32.4240 N.pl3 176  ARG176     -0.0865
     75  CZ        13.4040   41.8920   32.0180 C.cat 176  ARG176      0.5346
     76  NH1       12.8180   41.8410   30.8290 N.pl3 176  ARG176      0.1354
     77  NH2       13.4320   40.8040   32.7730 N.pl3 176  ARG176      0.1354
     78  N         11.9230   31.3400   20.0180 N.3   213  ASP213     -0.1225
     79  CA        11.9300   32.7300   20.4240 C.3   213  ASP213      0.1805
     80  C         12.2000   32.6860   21.8800 C.2   213  ASP213      0.2598
     81  O         11.6650   33.4870   22.6150 O.2   213  ASP213     -0.2718
     82  CB        10.6060   33.4460   20.2150 C.3   213  ASP213      0.1424
     83  CG        10.2650   33.5310   18.7640 C.2   213  ASP213      0.3668
     84  OD1        9.0670   33.4770   18.3940 O.co2 213  ASP213     -0.2456
     85  OD2       11.2610   33.6330   18.0250 O.co2 213  ASP213     -0.2456
     86  N         13.0590   31.7770   22.3080 N.am  214  SER214     -0.1952
     87  CA        13.3820   31.7480   23.7450 C.3   214  SER214      0.1924
     88  C         12.2590   31.1700   24.6480 C.2   214  SER214      0.2314
     89  O         12.3410   31.1750   25.8620 O.2   214  SER214     -0.2863
     90  CB        13.8190   33.1460   24.1980 C.3   214  SER214      0.2116
     91  OG        15.2020   33.2150   24.4640 O.3   214  SER214     -0.2180
@<TRIPOS>BOND
     1    52    51    1
     2    51    53    1
     3    51    50    2
     4    50    49    1
     5    49    48    1
     6    85    83   ar
     7    84    83   ar
     8    48    47    1
     9    83    82    1
    10    46    45    2
    11    47    44    1
    12    45    44    1
    13    42    41   ar
    14    42    40   ar
    15    41    39   ar
    16    78    79    1
    17    82    79    1
    18    79    80    1
    19    44    43    1
    20    40    38   ar
    21    39    37   ar
    22    43    34   am
    23    80    86   am
    24    80    81    2
    25    38    37   ar
    26    37    36    1
    27    86    87    1
    28    34    35    2
    29    34    33    1
    30     8     7    1
    31     1     2    1
    32    33    36    1
    33    33    32    1
    34    58    55    1
    35     7     6    1
    36     2     5    1
    37     2     3    1
    38    87    90    1
    39    87    88    1
    40    54    55    1
    41    90    91    1
    42    55    56    1
    43     5     6    1
    44    32    26   am
    45    88    89    2
    46     3     4    2
    47    27    26    2
    48    26    25    1
    49    56    57    2
    50    56    59   am
    51    28    25    1
    52    28    29    1
    53    59    60    1
    54    25    24    1
    55    31    29   am
    56    12    11    2
    57    64    65    1
    58    64    63    1
    59    64    66    1
    60    29    30    2
    61    10    11    1
    62    10     9    1
    63    11    13   am
    64    63    60    1
    65    60    61    1
    66    13    14    1
    67    61    62    2
    68    14    15    1
    69    14    17    1
    70    16    15    2
    71    18    17    1
    72    18    19    1
    73    20    19    1
    74    20    21    2
    75    22    21    1
    76    76    75    1
    77    21    23    1
    78    73    74    1
    79    73    72    1
    80    75    74    2
    81    75    77    1
    82    72    71    1
    83    67    68    1
    84    71    68    1
    85    70    69    2
    86    68    69    1
