@<TRIPOS>MOLECULE
tmp/3k5iD01.pdb
 113 106 0 0 0
SMALL
GASTEIGER

@<TRIPOS>ATOM
      1  N        -12.6980  -29.9220   -3.1470 N.3    11  GLY11      -0.1210
      2  CA       -11.5890  -29.1000   -3.5790 C.3    11  GLY11       0.1956
      3  C        -10.3640  -29.5460   -2.8190 C.2    11  GLY11       0.2612
      4  O        -10.4830  -29.6180   -1.6310 O.2    11  GLY11      -0.2717
      5  N         -9.2130  -29.7870   -3.4500 N.am   12  GLY12      -0.1942
      6  CA        -7.9940  -30.2320   -2.7610 C.3    12  GLY12       0.2014
      7  C         -6.7630  -29.3150   -2.8940 C.2    12  GLY12       0.2639
      8  O         -5.6080  -29.7870   -2.9890 O.2    12  GLY12      -0.2714
      9  N         -7.0440  -28.0130   -2.8820 N.am   13  GLY13      -0.1939
     10  CA        -6.0170  -26.9250   -2.9600 C.3    13  GLY13       0.2014
     11  C         -5.2800  -26.4660   -1.6730 C.2    13  GLY13       0.2639
     12  O         -5.3140  -27.1410   -0.6410 O.2    13  GLY13      -0.2714
     13  N         -4.5860  -25.3280   -1.6820 N.am   14  GLN14      -0.1963
     14  CA        -3.9070  -24.9230   -0.4460 C.3    14  GLN14       0.1733
     15  C         -4.8980  -24.8240    0.7590 C.2    14  GLN14       0.2616
     16  O         -4.5680  -25.1280    1.9040 O.2    14  GLN14      -0.2715
     17  CB        -3.0580  -23.6600   -0.6820 C.3    14  GLN14       0.0408
     18  CG        -3.8820  -22.3410   -0.7020 C.3    14  GLN14       0.0908
     19  CD        -4.4520  -21.9270   -2.0930 C.2    14  GLN14       0.2608
     20  OE1       -4.4080  -22.6620   -3.0620 O.2    14  GLN14      -0.2717
     21  NE2       -4.9850  -20.7260   -2.1800 N.am   14  GLN14      -0.0878
     22  N         -6.1460  -24.4210    0.5270 N.am   15  LEU15      -0.1977
     23  CA        -7.1380  -24.3360    1.6090 C.3    15  LEU15       0.1596
     24  C         -7.4330  -25.7370    2.2010 C.2    15  LEU15       0.2287
     25  O         -7.2730  -25.9450    3.3990 O.2    15  LEU15      -0.2864
     26  CB        -8.3500  -23.4970    1.1330 C.3    15  LEU15       0.0297
     27  CG        -8.2720  -22.0380    0.5810 C.3    15  LEU15       0.0022
     28  CD1       -9.6730  -21.4670    0.2620 C.3    15  LEU15       0.0001
     29  CD2       -7.7340  -21.0230    1.5780 C.3    15  LEU15       0.0001
     30  N        -11.1980  -34.0080   -5.6850 N.3    34  ASP34      -0.1239
     31  CA       -10.5490  -33.0730   -6.6000 C.3    34  ASP34       0.1674
     32  C         -9.8030  -34.0110   -7.5510 C.2    34  ASP34       0.2266
     33  O         -9.8840  -35.2230   -7.4170 O.2    34  ASP34      -0.2867
     34  CB        -9.6340  -32.1230   -5.8010 C.3    34  ASP34       0.1410
     35  CG        -9.4020  -30.7720   -6.4600 C.2    34  ASP34       0.3668
     36  OD1       -9.6490  -30.7050   -7.6840 O.co2  34  ASP34      -0.2456
     37  OD2       -8.9470  -29.8190   -5.7580 O.co2  34  ASP34      -0.2456
     38  N        -15.7520  -31.1050   -8.1130 N.3    54  PHE54      -0.1241
     39  CA       -16.6620  -30.5940   -7.0780 C.3    54  PHE54       0.1605
     40  C        -17.6970  -29.7210   -7.7810 C.2    54  PHE54       0.2264
     41  O        -18.4730  -28.9790   -7.1330 O.2    54  PHE54      -0.2867
     42  CB       -15.8550  -29.6480   -6.1610 C.3    54  PHE54       0.0534
     43  CG       -14.7430  -28.9190   -6.8650 C.ar   54  PHE54      -0.0203
     44  CD1      -13.4320  -29.2940   -6.6560 C.ar   54  PHE54      -0.0042
     45  CD2      -14.9980  -27.8670   -7.7580 C.ar   54  PHE54      -0.0042
     46  CE1      -12.3980  -28.6380   -7.2970 C.ar   54  PHE54      -0.0003
     47  CE2      -13.9550  -27.2190   -8.3850 C.ar   54  PHE54      -0.0003
     48  CZ       -12.6520  -27.6020   -8.1530 C.ar   54  PHE54      -0.0000
     49  N        -14.0890  -26.3580    0.1180 N.3    73  GLU73      -0.1231
     50  CA       -12.7840  -25.7060    0.0070 C.3    73  GLU73       0.1699
     51  C        -12.7740  -24.5230   -0.9960 C.2    73  GLU73       0.2592
     52  O        -11.7660  -23.8540   -1.2640 O.2    73  GLU73      -0.2718
     53  CB       -11.7560  -26.7820   -0.3280 C.3    73  GLU73       0.0402
     54  CG       -10.3410  -26.3630   -0.0850 C.3    73  GLU73       0.1161
     55  CD        -9.5790  -26.2480   -1.3710 C.2    73  GLU73       0.3649
     56  OE1      -10.1940  -26.2180   -2.4600 O.co2  73  GLU73      -0.2457
     57  OE2       -8.3400  -26.2180   -1.2890 O.co2  73  GLU73      -0.2457
     58  N        -13.9350  -24.2180   -1.5540 N.am   74  ILE74      -0.1980
     59  CA       -14.0580  -23.0990   -2.4720 C.3    74  ILE74       0.1595
     60  C        -15.3810  -22.3760   -2.2730 C.2    74  ILE74       0.2287
     61  O        -16.1110  -22.1630   -3.2460 O.2    74  ILE74      -0.2864
     62  CB       -14.0120  -23.5950   -3.8930 C.3    74  ILE74       0.0276
     63  CG1      -13.4490  -25.0100   -3.8670 C.3    74  ILE74       0.0022
     64  CG2      -13.3190  -22.6000   -4.8030 C.3    74  ILE74       0.0022
     65  CD1      -14.5050  -25.9630   -4.3800 C.3    74  ILE74       0.0001
     66  N        -16.3540  -19.6830    3.7700 N.3   264  ARG264     -0.1245
     67  CA       -15.2930  -20.6980    3.8460 C.3   264  ARG264      0.1563
     68  C        -14.0430  -20.1100    4.4680 C.2   264  ARG264      0.2260
     69  O        -13.9810  -18.8980    4.6420 O.2   264  ARG264     -0.2867
     70  CB       -14.9000  -21.1570    2.4310 C.3   264  ARG264      0.0307
     71  CG       -14.5080  -19.9760    1.5180 C.3   264  ARG264      0.0489
     72  CD       -13.3020  -20.2500    0.5950 C.3   264  ARG264      0.2205
     73  NE       -13.1830  -19.2530   -0.4870 N.pl3 264  ARG264     -0.0865
     74  CZ       -12.2110  -18.3520   -0.6180 C.cat 264  ARG264      0.5346
     75  NH1      -11.1930  -18.2230    0.2250 N.pl3 264  ARG264      0.1354
     76  NH2      -12.2580  -17.5100   -1.6220 N.pl3 264  ARG264      0.1354
     77  N         -8.2060  -16.5700    2.7470 N.3   267  ASN267     -0.1240
     78  CA        -6.8150  -16.1490    2.6760 C.3   267  ASN267      0.1653
     79  C         -6.5000  -15.2050    3.8200 C.2   267  ASN267      0.2266
     80  O         -5.4050  -15.1860    4.3730 O.2   267  ASN267     -0.2867
     81  CB        -6.5490  -15.4260    1.3550 C.3   267  ASN267      0.1155
     82  CG        -5.0750  -15.3780    1.0020 C.2   267  ASN267      0.2627
     83  OD1       -4.7530  -15.2460   -0.1300 O.2   267  ASN267     -0.2716
     84  ND2       -4.1860  -15.4580    1.9410 N.am  267  ASN267     -0.0877
     85  N          1.7600  -26.9210   -5.0840 N.3   338  LYS338     -0.1245
     86  CA         0.8820  -26.8620   -6.2440 C.3   338  LYS338      0.1561
     87  C          1.7400  -27.0570   -7.4750 C.2   338  LYS338      0.2260
     88  O          1.2760  -26.9130   -8.6020 O.2   338  LYS338     -0.2867
     89  CB         0.3460  -25.4500   -6.3600 C.3   338  LYS338      0.0271
     90  CG        -0.9360  -25.2090   -5.6720 C.3   338  LYS338      0.0035
     91  CD        -1.3300  -23.8080   -6.0570 C.3   338  LYS338      0.0206
     92  CE        -2.5800  -23.4920   -5.2820 C.3   338  LYS338      0.1093
     93  NZ        -2.8740  -22.0670   -5.0990 N.3   338  LYS338     -0.1314
     94  N         -0.6190  -16.8160   -9.3830 N.3   345  ARG345     -0.1231
     95  CA        -1.1520  -17.9400   -8.6100 C.3   345  ARG345      0.1694
     96  C         -0.5690  -17.9670   -7.2370 C.2   345  ARG345      0.2591
     97  O          0.6120  -17.6340   -7.0940 O.2   345  ARG345     -0.2718
     98  CB        -0.7750  -19.2260   -9.3250 C.3   345  ARG345      0.0321
     99  CG        -0.8090  -20.4840   -8.5350 C.3   345  ARG345      0.0489
    100  CD        -0.8110  -21.5620   -9.5900 C.3   345  ARG345      0.2205
    101  NE        -1.9110  -22.4970   -9.4010 N.pl3 345  ARG345     -0.0865
    102  CZ        -1.8370  -23.7820   -9.7270 C.cat 345  ARG345      0.5346
    103  NH1       -0.7140  -24.2660  -10.2650 N.pl3 345  ARG345      0.1354
    104  NH2       -2.8890  -24.5650   -9.5170 N.pl3 345  ARG345      0.1354
    105  N         -1.3900  -18.3290   -6.2540 N.am  346  LYS346     -0.1980
    106  CA        -0.8700  -18.3860   -4.8880 C.3   346  LYS346      0.1596
    107  C         -0.1700  -19.7240   -4.7160 C.2   346  LYS346      0.2287
    108  O         -0.7230  -20.8330   -4.8190 O.2   346  LYS346     -0.2864
    109  CB        -1.8810  -18.0700   -3.7980 C.3   346  LYS346      0.0298
    110  CG        -3.1470  -17.4750   -4.3330 C.3   346  LYS346      0.0038
    111  CD        -3.6950  -16.5550   -3.2760 C.3   346  LYS346      0.0206
    112  CE        -4.5320  -15.4260   -3.8700 C.3   346  LYS346      0.1093
    113  NZ        -5.8340  -15.4480   -3.1230 N.3   346  LYS346     -0.1314
@<TRIPOS>BOND
     1   103   102    1
     2   102   104    1
     3   102   101    2
     4   100   101    1
     5   100    99    1
     6    94    95    1
     7    98    95    1
     8    98    99    1
     9    95    96    1
    10    88    87    2
    11    47    48   ar
    12    47    45   ar
    13    48    46   ar
    14    38    39    1
    15    40    41    2
    16    40    39    1
    17    45    43   ar
    18    36    35   ar
    19    32    33    2
    20    32    31    1
    21    87    86    1
    22    46    44   ar
    23    96    97    2
    24    96   105   am
    25    39    42    1
    26    43    44   ar
    27    43    42    1
    28    31    34    1
    29    31    30    1
    30    35    34    1
    31    35    37   ar
    32    89    86    1
    33    89    90    1
    34   105   106    1
    35    86    85    1
    36    91    90    1
    37    91    92    1
    38    92    93    1
    39   106   107    1
    40   106   109    1
    41   108   107    2
    42    64    62    1
    43    65    63    1
    44   110   109    1
    45   110   111    1
    46    62    63    1
    47    62    59    1
    48   112   111    1
    49   112   113    1
    50     2     1    1
    51     2     3    1
    52     5     3   am
    53     5     6    1
    54    61    60    2
    55    20    19    2
    56     8     7    2
    57    10     9    1
    58    10    11    1
    59     7     9   am
    60     7     6    1
    61     3     4    2
    62    59    60    1
    63    59    58    1
    64    56    55   ar
    65    21    19   am
    66    19    18    1
    67    13    11   am
    68    13    14    1
    69    11    12    2
    70    76    74    1
    71    58    51   am
    72    55    57   ar
    73    55    54    1
    74    52    51    2
    75    51    50    1
    76    18    17    1
    77    17    14    1
    78    74    73    2
    79    74    75    1
    80    73    72    1
    81    14    15    1
    82    53    54    1
    83    53    50    1
    84    83    82    2
    85    50    49    1
    86    28    27    1
    87    22    15   am
    88    22    23    1
    89    27    26    1
    90    27    29    1
    91    72    71    1
    92    15    16    2
    93    82    81    1
    94    82    84   am
    95    26    23    1
    96    81    78    1
    97    71    70    1
    98    23    24    1
    99    24    25    2
   100    70    67    1
   101    78    77    1
   102    78    79    1
   103    66    67    1
   104    79    80    2
   105    67    68    1
   106    68    69    2
