@<TRIPOS>MOLECULE
tmp/3k5kB01.pdb
 188 184 0 0 0
SMALL
GASTEIGER

@<TRIPOS>ATOM
      1  N        -15.0500    0.5010   15.4300 N.3   149  TYR149     -0.1241
      2  CA       -13.9290    1.4490   15.3800 C.3   149  TYR149      0.1605
      3  C        -14.0730    2.4140   16.5560 C.2   149  TYR149      0.2264
      4  O        -14.9030    3.3180   16.5490 O.2   149  TYR149     -0.2867
      5  CB       -13.8660    2.2130   14.0590 C.3   149  TYR149      0.0534
      6  CG       -12.5400    2.9220   13.8810 C.ar  149  TYR149     -0.0201
      7  CD1      -11.5020    2.3370   13.1470 C.ar  149  TYR149     -0.0009
      8  CD2      -12.3120    4.1690   14.4810 C.ar  149  TYR149     -0.0009
      9  CE1      -10.2560    2.9820   12.9940 C.ar  149  TYR149      0.0417
     10  CE2      -11.0780    4.8190   14.3540 C.ar  149  TYR149      0.0417
     11  CZ       -10.0690    4.2330   13.6040 C.ar  149  TYR149      0.1957
     12  OH        -8.8720    4.8790   13.4770 O.3   149  TYR149     -0.2866
     13  N        -14.0870   18.3990   14.3700 N.3   156  ASP156     -0.1239
     14  CA       -13.3820   18.6560   13.1160 C.3   156  ASP156      0.1674
     15  C        -12.2140   19.6180   13.3580 C.2   156  ASP156      0.2266
     16  O        -11.1040   19.3700   12.8970 O.2   156  ASP156     -0.2867
     17  CB       -14.3560   19.2410   12.0880 C.3   156  ASP156      0.1410
     18  CG       -13.7660   19.3170   10.6800 C.2   156  ASP156      0.3668
     19  OD1      -12.6470   18.8230   10.4650 O.co2 156  ASP156     -0.2456
     20  OD2      -14.4290   19.8750    9.7810 O.co2 156  ASP156     -0.2456
     21  N         -9.4780   17.7770   15.1950 N.3   159  ALA159     -0.1231
     22  CA        -8.8770   16.8930   14.2060 C.3   159  ALA159      0.1694
     23  C         -7.9280   17.6910   13.2950 C.2   159  ALA159      0.2592
     24  O         -6.8510   17.2090   12.9400 O.2   159  ALA159     -0.2718
     25  CB        -9.9530   16.1760   13.3930 C.3   159  ALA159      0.0304
     26  N         -8.3140   18.9210   12.9590 N.am  160  ASP160     -0.1960
     27  CA        -7.5200   19.7540   12.0470 C.3   160  ASP160      0.1840
     28  C         -6.1640   20.2200   12.6040 C.2   160  ASP160      0.2622
     29  O         -5.3400   20.7260   11.8470 O.2   160  ASP160     -0.2715
     30  CB        -8.3400   20.9410   11.5290 C.3   160  ASP160      0.1450
     31  CG        -8.1870   21.1460   10.0240 C.2   160  ASP160      0.3671
     32  OD1       -7.4760   20.3460    9.3710 O.co2 160  ASP160     -0.2456
     33  OD2       -8.7920   22.1020    9.4890 O.co2 160  ASP160     -0.2456
     34  N         -5.9250   20.0520   13.9070 N.am  161  VAL161     -0.1963
     35  CA        -4.6110   20.3840   14.4940 C.3   161  VAL161      0.1727
     36  C         -3.8850   19.1950   15.1300 C.2   161  VAL161      0.2616
     37  O         -2.8500   19.3720   15.7710 O.2   161  VAL161     -0.2715
     38  CB        -4.6690   21.5570   15.5230 C.3   161  VAL161      0.0290
     39  CG1       -5.2310   22.8180   14.8850 C.3   161  VAL161      0.0023
     40  CG2       -5.4570   21.1690   16.7790 C.3   161  VAL161      0.0023
     41  N         -4.4270   17.9930   14.9600 N.am  162  ARG162     -0.1963
     42  CA        -3.7770   16.7710   15.4340 C.3   162  ARG162      0.1729
     43  C         -2.5340   16.4890   14.5760 C.2   162  ARG162      0.2616
     44  O         -2.6170   16.4970   13.3460 O.2   162  ARG162     -0.2715
     45  CB        -4.7600   15.5910   15.3870 C.3   162  ARG162      0.0348
     46  CG        -5.9290   15.6820   16.3950 C.3   162  ARG162      0.0492
     47  CD        -5.6230   14.8980   17.6580 C.3   162  ARG162      0.2205
     48  NE        -6.2930   15.3790   18.8690 N.pl3 162  ARG162     -0.0865
     49  CZ        -6.7740   14.5740   19.8170 C.cat 162  ARG162      0.5346
     50  NH1       -6.7030   13.2490   19.6710 N.pl3 162  ARG162      0.1354
     51  NH2       -7.3460   15.0810   20.9040 N.pl3 162  ARG162      0.1354
     52  N         -1.3890   16.2670   15.2190 N.am  163  GLU163     -0.1977
     53  CA        -0.1410   16.0070   14.4860 C.3   163  GLU163      0.1602
     54  C         -0.1720   14.6360   13.7890 C.2   163  GLU163      0.2287
     55  O          0.1050   14.5270   12.5830 O.2   163  GLU163     -0.2864
     56  CB         1.0760   16.1180   15.4130 C.3   163  GLU163      0.0415
     57  CG         1.1350   17.3910   16.2660 C.3   163  GLU163      0.1163
     58  CD         1.2760   18.6730   15.4560 C.2   163  GLU163      0.3649
     59  OE1        1.8690   18.6470   14.3600 O.co2 163  GLU163     -0.2457
     60  OE2        0.8050   19.7230   15.9240 O.co2 163  GLU163     -0.2457
     61  N         -2.2400   11.9850   12.1890 N.3   165  ASP165     -0.1225
     62  CA        -3.5400   11.7420   11.6050 C.3   165  ASP165      0.1805
     63  C         -3.6310   10.3430   10.9700 C.2   165  ASP165      0.2598
     64  O         -4.3640   10.1560    9.9970 O.2   165  ASP165     -0.2718
     65  CB        -3.8860   12.8480   10.5920 C.3   165  ASP165      0.1424
     66  CG        -2.9000   12.9180    9.4220 C.2   165  ASP165      0.3668
     67  OD1       -1.8160   12.2980    9.4880 O.co2 165  ASP165     -0.2456
     68  OD2       -3.2150   13.6100    8.4330 O.co2 165  ASP165     -0.2456
     69  N         -2.9060    9.3690   11.5250 N.am  166  SER166     -0.1938
     70  CA        -2.8960    7.9980   10.9810 C.3   166  SER166      0.2055
     71  C         -4.0290    7.1100   11.5080 C.2   166  SER166      0.2643
     72  O         -4.2150    5.9860   11.0170 O.2   166  SER166     -0.2714
     73  CB        -1.5580    7.2900   11.2670 C.3   166  SER166      0.2130
     74  OG        -0.4320    8.0400   10.8400 O.3   166  SER166     -0.2179
     75  N         -4.7450    7.5910   12.5280 N.am  167  TYR167     -0.1959
     76  CA        -5.7550    6.7760   13.2200 C.3   167  TYR167      0.1771
     77  C         -7.0990    7.4900   13.3320 C.2   167  TYR167      0.2619
     78  O         -7.8560    7.2610   14.2750 O.2   167  TYR167     -0.2715
     79  CB        -5.2670    6.4120   14.6310 C.3   167  TYR167      0.0574
     80  CG        -4.0210    5.5640   14.6690 C.ar  167  TYR167     -0.0198
     81  CD1       -4.1020    4.1720   14.6940 C.ar  167  TYR167     -0.0009
     82  CD2       -2.7510    6.1510   14.6850 C.ar  167  TYR167     -0.0009
     83  CE1       -2.9540    3.3820   14.7380 C.ar  167  TYR167      0.0417
     84  CE2       -1.6070    5.3700   14.7310 C.ar  167  TYR167      0.0417
     85  CZ        -1.7130    3.9880   14.7470 C.ar  167  TYR167      0.1957
     86  OH        -0.5880    3.2010   14.7740 O.3   167  TYR167     -0.2866
     87  N         -7.3980    8.3350   12.3550 N.am  168  LEU168     -0.1963
     88  CA        -8.6220    9.1040   12.3650 C.3   168  LEU168      0.1728
     89  C         -9.6990    8.3870   11.5840 C.2   168  LEU168      0.2616
     90  O         -9.4160    7.7680   10.5480 O.2   168  LEU168     -0.2715
     91  CB        -8.3850   10.4750   11.7510 C.3   168  LEU168      0.0311
     92  CG        -7.5240   11.4810   12.5020 C.3   168  LEU168      0.0022
     93  CD1       -7.4070   12.7180   11.6310 C.3   168  LEU168      0.0001
     94  CD2       -8.1500   11.8450   13.8270 C.3   168  LEU168      0.0001
     95  N        -10.9310    8.4520   12.0780 N.am  169  PHE169     -0.1960
     96  CA       -12.0730    8.0180   11.2960 C.3   169  PHE169      0.1771
     97  C        -13.0790    9.1570   11.2290 C.2   169  PHE169      0.2619
     98  O        -13.5680    9.6140   12.2550 O.2   169  PHE169     -0.2715
     99  CB       -12.7160    6.7460   11.8740 C.3   169  PHE169      0.0574
    100  CG       -13.5640    5.9970   10.8780 C.ar  169  PHE169     -0.0200
    101  CD1      -13.1470    4.7700   10.3690 C.ar  169  PHE169     -0.0042
    102  CD2      -14.7740    6.5280   10.4400 C.ar  169  PHE169     -0.0042
    103  CE1      -13.9340    4.0840    9.4330 C.ar  169  PHE169     -0.0003
    104  CE2      -15.5640    5.8550    9.5040 C.ar  169  PHE169     -0.0003
    105  CZ       -15.1400    4.6350    8.9980 C.ar  169  PHE169     -0.0000
    106  N        -13.3710    9.6200   10.0140 N.am  170  ASP170     -0.1971
    107  CA       -14.2850   10.7490    9.8320 C.3   170  ASP170      0.1709
    108  C        -15.7390   10.3250    9.9580 C.2   170  ASP170      0.2293
    109  O        -16.1630    9.3480    9.3350 O.2   170  ASP170     -0.2864
    110  CB       -14.1150   11.4030    8.4530 C.3   170  ASP170      0.1436
    111  CG       -12.7200   11.9620    8.2180 C.2   170  ASP170      0.3671
    112  OD1      -11.9190   12.0870    9.1670 O.co2 170  ASP170     -0.2456
    113  OD2      -12.4250   12.2600    7.0380 O.co2 170  ASP170     -0.2456
    114  N        -18.7970   18.1030   10.9410 N.3   175  VAL175     -0.1245
    115  CA       -18.0280   16.8540   10.8720 C.3   175  VAL175      0.1561
    116  C        -17.4470   16.5910   12.2630 C.2   175  VAL175      0.2260
    117  O        -17.0820   17.5310   12.9710 O.2   175  VAL175     -0.2867
    118  CB       -16.8810   16.8950    9.8040 C.3   175  VAL175      0.0252
    119  CG1      -16.1930   15.5260    9.6640 C.3   175  VAL175      0.0019
    120  CG2      -17.3880   17.3600    8.4380 C.3   175  VAL175      0.0019
    121  N        -14.8470   13.3930   14.3640 N.3   177  CYS177     -0.1235
    122  CA       -13.9010   12.3090   14.1100 C.3   177  CYS177      0.1677
    123  C        -13.7380   11.4000   15.3050 C.2   177  CYS177      0.2270
    124  O        -13.8670   11.8330   16.4510 O.2   177  CYS177     -0.2867
    125  CB       -12.5130   12.8550   13.7780 C.3   177  CYS177      0.0956
    126  SG       -12.4450   13.6570   12.2180 S.3   177  CYS177     -0.0801
    127  N         -9.9470   -2.7410    5.4580 N.3   231  PHE231     -0.1241
    128  CA       -10.9520   -1.9330    4.8070 C.3   231  PHE231      0.1605
    129  C        -10.2900   -0.8890    3.9470 C.2   231  PHE231      0.2264
    130  O         -9.0770   -0.6830    4.0240 O.2   231  PHE231     -0.2867
    131  CB       -11.9450   -1.3150    5.8010 C.3   231  PHE231      0.0534
    132  CG       -11.3450   -0.3140    6.7700 C.ar  231  PHE231     -0.0203
    133  CD1      -11.5780    1.0410    6.6150 C.ar  231  PHE231     -0.0042
    134  CD2      -10.6200   -0.7420    7.8770 C.ar  231  PHE231     -0.0042
    135  CE1      -11.0590    1.9660    7.5050 C.ar  231  PHE231     -0.0003
    136  CE2      -10.0970    0.1770    8.7970 C.ar  231  PHE231     -0.0003
    137  CZ       -10.3110    1.5300    8.6050 C.ar  231  PHE231     -0.0000
    138  N         -9.3600    2.5860    3.3220 N.3   233  TYR233     -0.1241
    139  CA        -9.1660    3.8080    4.1010 C.3   233  TYR233      0.1605
    140  C         -9.7390    5.0070    3.3660 C.2   233  TYR233      0.2264
    141  O        -10.1660    5.9820    3.9900 O.2   233  TYR233     -0.2867
    142  CB        -7.6750    4.0510    4.3740 C.3   233  TYR233      0.0534
    143  CG        -7.0320    3.2830    5.5100 C.ar  233  TYR233     -0.0201
    144  CD1       -7.6610    2.1990    6.1340 C.ar  233  TYR233     -0.0009
    145  CD2       -5.7510    3.6290    5.9340 C.ar  233  TYR233     -0.0009
    146  CE1       -7.0250    1.5010    7.1780 C.ar  233  TYR233      0.0417
    147  CE2       -5.1170    2.9330    6.9590 C.ar  233  TYR233      0.0417
    148  CZ        -5.7460    1.8840    7.5700 C.ar  233  TYR233      0.1957
    149  OH        -5.0700    1.2410    8.5810 O.3   233  TYR233     -0.2866
    150  N         -8.7350   10.1000    0.3750 N.3   236  ARG236     -0.1231
    151  CA        -8.2610   11.2020    1.2250 C.3   236  ARG236      0.1694
    152  C         -7.0690   10.8570    2.1230 C.2   236  ARG236      0.2592
    153  O         -6.1680   11.6910    2.3060 O.2   236  ARG236     -0.2718
    154  CB        -9.4130   11.7580    2.0740 C.3   236  ARG236      0.0321
    155  CG        -9.0580   12.9600    2.9420 C.3   236  ARG236      0.0489
    156  CD       -10.2930   13.3070    3.7250 C.3   236  ARG236      0.2205
    157  NE       -10.0910   14.4500    4.6080 N.pl3 236  ARG236     -0.0865
    158  CZ        -9.7620   14.3550    5.9100 C.cat 236  ARG236      0.5346
    159  NH1       -9.5540   13.1990    6.5410 N.pl3 236  ARG236      0.1354
    160  NH2       -9.7000   15.4630    6.6430 N.pl3 236  ARG236      0.1354
    161  N         -7.0770    9.6570    2.7080 N.am  237  PHE237     -0.1976
    162  CA        -5.9410    9.1630    3.4960 C.3   237  PHE237      0.1639
    163  C         -4.6910    9.0490    2.6110 C.2   237  PHE237      0.2290
    164  O         -3.6130    9.5170    2.9740 O.2   237  PHE237     -0.2864
    165  CB        -6.2670    7.8030    4.1340 C.3   237  PHE237      0.0560
    166  CG        -5.0830    7.1240    4.7780 C.ar  237  PHE237     -0.0200
    167  CD1       -4.8310    7.2630    6.1430 C.ar  237  PHE237     -0.0042
    168  CD2       -4.2240    6.3350    4.0240 C.ar  237  PHE237     -0.0042
    169  CE1       -3.7540    6.6340    6.7370 C.ar  237  PHE237     -0.0003
    170  CE2       -3.1360    5.7060    4.6100 C.ar  237  PHE237     -0.0003
    171  CZ        -2.8990    5.8560    5.9690 C.ar  237  PHE237     -0.0000
    172  N         -3.0570   12.2280    1.3080 N.3   240  ILE240     -0.1231
    173  CA        -2.2180   12.8280    2.3380 C.3   240  ILE240      0.1692
    174  C         -0.9300   12.0360    2.5810 C.2   240  ILE240      0.2591
    175  O          0.1590   12.6150    2.6970 O.2   240  ILE240     -0.2718
    176  CB        -3.0080   13.0370    3.6620 C.3   240  ILE240      0.0266
    177  CG1       -4.1410   14.0570    3.4430 C.3   240  ILE240      0.0019
    178  CG2       -2.0730   13.4580    4.8030 C.3   240  ILE240      0.0020
    179  CD1       -5.0570   14.2780    4.6420 C.3   240  ILE240      0.0001
    180  N         -1.0470   10.7150    2.6600 N.am  241  LYS241     -0.1980
    181  CA         0.0590    9.8980    3.1390 C.3   241  LYS241      0.1596
    182  C          1.0300    9.4040    2.0580 C.2   241  LYS241      0.2287
    183  O          2.1590    9.0620    2.3820 O.2   241  LYS241     -0.2864
    184  CB        -0.4570    8.7330    3.9900 C.3   241  LYS241      0.0298
    185  CG        -1.0650    9.1660    5.3380 C.3   241  LYS241      0.0038
    186  CD         0.0150    9.4630    6.3720 C.3   241  LYS241      0.0206
    187  CE        -0.6030    9.8500    7.7140 C.3   241  LYS241      0.1093
    188  NZ         0.3850    9.7910    8.8270 N.3   241  LYS241     -0.1314
@<TRIPOS>BOND
     1   150   151    1
     2   151   154    1
     3   151   152    1
     4   172   173    1
     5   182   183    2
     6   182   181    1
     7   154   155    1
     8   152   153    2
     9   152   161   am
    10   173   174    1
    11   173   176    1
    12   174   180   am
    13   174   175    2
    14   163   164    2
    15   163   162    1
    16   180   181    1
    17   161   162    1
    18   155   156    1
    19   181   184    1
    20   138   139    1
    21   140   141    2
    22   140   139    1
    23   177   176    1
    24   177   179    1
    25   162   165    1
    26   176   178    1
    27   156   157    1
    28   129   130    2
    29   129   128    1
    30   184   185    1
    31   168   170   ar
    32   168   166   ar
    33   139   142    1
    34   165   166    1
    35   142   143    1
    36   157   158    2
    37   170   171   ar
    38   166   167   ar
    39   128   127    1
    40   128   131    1
    41   185   186    1
    42   143   145   ar
    43   143   144   ar
    44   131   132    1
    45   158   159    1
    46   158   160    1
    47   145   147   ar
    48   171   169   ar
    49   144   146   ar
    50   167   169   ar
    51   186   187    1
    52   133   132   ar
    53   133   135   ar
    54   132   134   ar
    55   147   148   ar
    56   113   111   ar
    57   146   148   ar
    58   135   137   ar
    59   148   149    1
    60   187   188    1
    61   134   136   ar
    62   111   110    1
    63   111   112   ar
    64    68    66   ar
    65   120   118    1
    66   110   107    1
    67   137   136   ar
    68   105   103   ar
    69   105   104   ar
    70   109   108    2
    71    32    31   ar
    72    66    67   ar
    73    66    65    1
    74   103   101   ar
    75    33    31   ar
    76   104   102   ar
    77   119   118    1
    78    20    18   ar
    79   118   115    1
    80   107   108    1
    81   107   106    1
    82    64    63    2
    83   106    97   am
    84    31    30    1
    85   101   100   ar
    86   102   100   ar
    87    19    18   ar
    88    90    89    2
    89    65    62    1
    90    18    17    1
    91    74    73    1
    92   115   114    1
    93   115   116    1
    94   100    99    1
    95    63    69   am
    96    63    62    1
    97    70    73    1
    98    70    71    1
    99    70    69    1
   100    72    71    2
   101    97    96    1
   102    97    98    2
   103    96    99    1
   104    96    95    1
   105    71    75   am
   106    30    27    1
   107    89    95   am
   108    89    88    1
   109    62    61    1
   110    93    92    1
   111    91    88    1
   112    91    92    1
   113    29    28    2
   114    27    28    1
   115    27    26    1
   116    17    14    1
   117   126   125    1
   118   116   117    2
   119    87    88    1
   120    87    77   am
   121    92    94    1
   122    75    76    1
   123    55    54    2
   124    28    34   am
   125    16    15    2
   126    24    23    2
   127    26    23   am
   128     9     7   ar
   129     9    11   ar
   130    14    15    1
   131    14    13    1
   132     7     6   ar
   133    76    77    1
   134    76    79    1
   135    23    22    1
   136    77    78    2
   137    44    43    2
   138    25    22    1
   139    12    11    1
   140    11    10   ar
   141   125   122    1
   142    54    53    1
   143     6     5    1
   144     6     8   ar
   145    34    35    1
   146     5     2    1
   147   122   121    1
   148   122   123    1
   149    22    21    1
   150    10     8   ar
   151    59    58   ar
   152    53    52    1
   153    53    56    1
   154    35    36    1
   155    35    38    1
   156    43    52   am
   157    43    42    1
   158    79    80    1
   159    80    82   ar
   160    80    81   ar
   161    82    84   ar
   162    81    83   ar
   163    84    85   ar
   164    83    85   ar
   165    85    86    1
   166    39    38    1
   167    41    36   am
   168    41    42    1
   169    36    37    2
   170   123   124    2
   171     2     1    1
   172     2     3    1
   173    45    42    1
   174    45    46    1
   175    56    57    1
   176    58    60   ar
   177    58    57    1
   178    38    40    1
   179    46    47    1
   180     4     3    2
   181    47    48    1
   182    48    49    2
   183    50    49    1
   184    49    51    1
