@<TRIPOS>MOLECULE
tmp/3k5uA00.pdb
 173 165 0 0 0
SMALL
GASTEIGER

@<TRIPOS>ATOM
      1  N          6.2870  -27.7760    4.7640 N.3    12  ARG12      -0.1245
      2  CA         5.6020  -27.6420    3.4820 C.3    12  ARG12       0.1563
      3  C          4.1360  -27.2600    3.6250 C.2    12  ARG12       0.2260
      4  O          3.4980  -27.5720    4.6330 O.2    12  ARG12      -0.2867
      5  CB         5.7110  -28.9600    2.6910 C.3    12  ARG12       0.0307
      6  CG         4.9410  -30.0850    3.3680 C.3    12  ARG12       0.0489
      7  CD         4.3100  -30.9860    2.3210 C.3    12  ARG12       0.2205
      8  NE         3.8200  -32.2360    2.9040 N.pl3  12  ARG12      -0.0865
      9  CZ         2.6710  -32.7810    2.5150 C.cat  12  ARG12       0.5346
     10  NH1        1.9400  -32.1910    1.5880 N.pl3  12  ARG12       0.1354
     11  NH2        2.2350  -33.9060    3.0620 N.pl3  12  ARG12       0.1354
     12  N          0.3550  -27.7980    3.3180 N.3    14  LEU14      -0.1231
     13  CA        -0.4500  -29.0160    3.2670 C.3    14  LEU14       0.1693
     14  C         -1.6300  -28.8230    2.3410 C.2    14  LEU14       0.2593
     15  O         -2.2090  -29.7930    1.8460 O.2    14  LEU14      -0.2718
     16  CB        -0.9140  -29.4130    4.6670 C.3    14  LEU14       0.0284
     17  CG         0.2440  -29.8420    5.5840 C.3    14  LEU14       0.0019
     18  CD1       -0.1690  -29.8020    7.0420 C.3    14  LEU14       0.0001
     19  CD2        0.7320  -31.2200    5.1660 C.3    14  LEU14       0.0001
     20  N         -1.9890  -27.5550    2.1320 N.am   15  GLY15      -0.1942
     21  CA        -3.0610  -27.2160    1.2070 C.3    15  GLY15       0.2014
     22  C         -3.6100  -25.8160    1.3770 C.2    15  GLY15       0.2638
     23  O         -3.3070  -25.1090    2.3360 O.2    15  GLY15      -0.2714
     24  N         -4.4260  -25.4280    0.4070 N.am   16  LYS16      -0.1977
     25  CA        -5.0890  -24.1380    0.3770 C.3    16  LYS16       0.1596
     26  C         -6.5040  -24.2020    0.9580 C.2    16  LYS16       0.2287
     27  O         -7.2280  -25.1910    0.7740 O.2    16  LYS16      -0.2864
     28  CB        -5.1840  -23.6310   -1.0820 C.3    16  LYS16       0.0298
     29  CG        -3.9730  -22.8530   -1.5870 C.3    16  LYS16       0.0038
     30  CD        -2.8110  -23.8740   -1.9480 C.3    16  LYS16       0.0206
     31  CE        -1.7260  -23.1500   -2.7610 C.3    16  LYS16       0.1093
     32  NZ        -0.4120  -23.1310   -2.0810 N.3    16  LYS16      -0.1314
     33  N         -2.6410  -23.7510    4.8060 N.3    22  VAL22      -0.1245
     34  CA        -2.3020  -24.6440    5.9120 C.3    22  VAL22       0.1561
     35  C         -0.8990  -25.2100    5.6670 C.2    22  VAL22       0.2260
     36  O         -0.5760  -25.6820    4.5790 O.2    22  VAL22      -0.2867
     37  CB        -3.3240  -25.7910    6.0860 C.3    22  VAL22       0.0252
     38  CG1       -3.0640  -26.5540    7.3970 C.3    22  VAL22       0.0019
     39  CG2       -4.7530  -25.2660    6.0380 C.3    22  VAL22       0.0019
     40  N         -0.1730  -28.7790   12.5260 N.3    35  ALA35      -0.1245
     41  CA        -0.5450  -28.0150   11.3340 C.3    35  ALA35       0.1562
     42  C         -0.8790  -26.5860   11.7110 C.2    35  ALA35       0.2260
     43  O         -1.4660  -26.3070   12.7490 O.2    35  ALA35      -0.2867
     44  CB        -1.7110  -28.6650   10.6110 C.3    35  ALA35       0.0290
     45  N         -2.8330  -23.2910   10.4030 N.3    37  LYS37      -0.1245
     46  CA        -3.7570  -22.6540    9.4690 C.3    37  LYS37       0.1561
     47  C         -3.6050  -21.1410    9.5910 C.2    37  LYS37       0.2260
     48  O         -3.7320  -20.5930   10.6780 O.2    37  LYS37      -0.2867
     49  CB        -5.1910  -23.0940    9.7070 C.3    37  LYS37       0.0271
     50  CG        -6.1300  -22.8100    8.5740 C.3    37  LYS37       0.0035
     51  CD        -7.5310  -23.2550    8.9260 C.3    37  LYS37       0.0206
     52  CE        -8.4860  -23.0270    7.7710 C.3    37  LYS37       0.1093
     53  NZ        -9.0140  -24.3130    7.2490 N.3    37  LYS37      -0.1314
     54  N        -10.9290  -33.5710   14.7150 N.3    69  LEU69      -0.1245
     55  CA        -9.6710  -32.8630   14.6110 C.3    69  LEU69       0.1561
     56  C         -9.5310  -31.8540   15.7410 C.2    69  LEU69       0.2260
     57  O        -10.3610  -30.9570   15.9140 O.2    69  LEU69      -0.2867
     58  CB        -9.5150  -32.1170   13.2770 C.3    69  LEU69       0.0270
     59  CG        -8.0420  -31.7960   12.9600 C.3    69  LEU69       0.0019
     60  CD1       -7.3700  -33.0370   12.3950 C.3    69  LEU69       0.0001
     61  CD2       -7.9010  -30.6000   12.0320 C.3    69  LEU69       0.0001
     62  N         -3.3720  -26.6890   14.7420 N.3    85  LEU85      -0.1231
     63  CA        -4.1830  -27.8820   14.6250 C.3    85  LEU85       0.1693
     64  C         -3.3830  -29.1700   14.7510 C.2    85  LEU85       0.2592
     65  O         -2.1980  -29.2290   14.4280 O.2    85  LEU85      -0.2718
     66  CB        -4.8900  -27.8650   13.2630 C.3    85  LEU85       0.0284
     67  CG        -5.7970  -26.6540   12.9980 C.3    85  LEU85       0.0019
     68  CD1       -6.0560  -26.5070   11.5140 C.3    85  LEU85       0.0001
     69  CD2       -7.1090  -26.7720   13.7760 C.3    85  LEU85       0.0001
     70  N         -4.0790  -30.1990   15.2190 N.am   86  GLU86      -0.1966
     71  CA        -3.6300  -31.5780   15.1190 C.3    86  GLU86       0.1733
     72  C         -3.2710  -31.8730   13.6630 C.2    86  GLU86       0.2616
     73  O         -4.0050  -31.5060   12.7390 O.2    86  GLU86      -0.2715
     74  CB        -4.7140  -32.5280   15.6200 C.3    86  GLU86       0.0429
     75  CG        -4.6120  -33.9650   15.1350 C.3    86  GLU86       0.1163
     76  CD        -5.7130  -34.8710   15.6540 C.2    86  GLU86       0.3649
     77  OE1       -6.7200  -34.3730   16.2010 O.co2  86  GLU86      -0.2457
     78  OE2       -5.5800  -36.1090   15.4990 O.co2  86  GLU86      -0.2457
     79  N         -2.1390  -32.5220   13.4460 N.am   87  TYR87      -0.1960
     80  CA        -1.7170  -32.8480   12.0860 C.3    87  TYR87       0.1771
     81  C         -2.2810  -34.2130   11.7200 C.2    87  TYR87       0.2619
     82  O         -2.0620  -35.1460   12.4970 O.2    87  TYR87      -0.2715
     83  CB        -0.2020  -32.8310   11.9930 C.3    87  TYR87       0.0574
     84  CG         0.4610  -33.5450   10.8560 C.ar   87  TYR87      -0.0198
     85  CD1        0.0860  -33.3620    9.5310 C.ar   87  TYR87      -0.0009
     86  CD2        1.5180  -34.4170   11.1120 C.ar   87  TYR87      -0.0009
     87  CE1        0.7240  -34.0300    8.4920 C.ar   87  TYR87       0.0417
     88  CE2        2.1640  -35.0880   10.0820 C.ar   87  TYR87       0.0417
     89  CZ         1.7610  -34.8890    8.7800 C.ar   87  TYR87       0.1957
     90  OH         2.4170  -35.5570    7.7700 O.3    87  TYR87      -0.2866
     91  N         -2.9780  -34.2760   10.5970 N.am   88  ALA88      -0.1964
     92  CA        -3.5700  -35.5080   10.0850 C.3    88  ALA88       0.1713
     93  C         -2.7770  -35.9570    8.8600 C.2    88  ALA88       0.2458
     94  O         -2.9780  -35.4410    7.7590 O.2    88  ALA88      -0.2730
     95  CB        -5.0380  -35.3010    9.7540 C.3    88  ALA88       0.0333
     96  N         -1.8540  -36.8930    9.0720 N.am   89  PRO89      -0.2716
     97  CA        -0.8650  -37.2550    8.0560 C.3    89  PRO89       0.1536
     98  C         -1.4160  -37.8730    6.7800 C.2    89  PRO89       0.2598
     99  O         -0.7160  -37.8030    5.7620 O.2    89  PRO89      -0.2715
    100  CB         0.0190  -38.2930    8.7750 C.3    89  PRO89       0.0310
    101  CG        -0.2520  -38.1130   10.2190 C.3    89  PRO89       0.0237
    102  CD        -1.6730  -37.6520   10.3190 C.3    89  PRO89       0.0939
    103  N         -2.5990  -38.4870    6.7510 N.am   90  LEU90      -0.1964
    104  CA        -2.9920  -39.2200    5.5400 C.3    90  LEU90       0.1728
    105  C         -3.9190  -38.4490    4.6060 C.2    90  LEU90       0.2617
    106  O         -4.4930  -39.0540    3.6910 O.2    90  LEU90      -0.2715
    107  CB        -3.6340  -40.5770    5.8580 C.3    90  LEU90       0.0311
    108  CG        -2.8550  -41.6530    6.6000 C.3    90  LEU90       0.0022
    109  CD1       -3.3490  -43.0270    6.1820 C.3    90  LEU90       0.0001
    110  CD2       -1.3550  -41.5490    6.3870 C.3    90  LEU90       0.0001
    111  N         -4.0690  -37.1450    4.7970 N.am   91  GLY91      -0.1940
    112  CA        -4.8060  -36.2980    3.8850 C.3    91  GLY91       0.2014
    113  C         -6.3040  -36.2900    4.0520 C.2    91  GLY91       0.2639
    114  O         -6.8620  -36.6830    5.0770 O.2    91  GLY91      -0.2714
    115  N         -6.9990  -35.8160    3.0170 N.am   92  THR92      -0.1950
    116  CA        -8.4560  -35.7320    3.0590 C.3    92  THR92       0.1897
    117  C         -9.1270  -36.9670    2.4830 C.2    92  THR92       0.2313
    118  O         -8.5830  -37.6560    1.6190 O.2    92  THR92      -0.2863
    119  CB        -8.9450  -34.4740    2.3060 C.3    92  THR92       0.1794
    120  OG1       -8.7700  -34.6430    0.8940 O.3    92  THR92      -0.2208
    121  CG2       -8.1160  -33.2690    2.7270 C.3    92  THR92       0.0378
    122  N         -9.2490  -36.5140   -1.3560 N.3    95  ARG95      -0.1245
    123  CA        -8.1610  -36.9980   -2.2130 C.3    95  ARG95       0.1563
    124  C         -8.2450  -38.5080   -2.3650 C.2    95  ARG95       0.2260
    125  O         -8.0930  -39.0530   -3.4580 O.2    95  ARG95      -0.2867
    126  CB        -6.7920  -36.6490   -1.6280 C.3    95  ARG95       0.0307
    127  CG        -6.2680  -35.2770   -2.0020 C.3    95  ARG95       0.0489
    128  CD        -6.1520  -35.1430   -3.5150 C.3    95  ARG95       0.2205
    129  NE        -7.1940  -34.2500   -4.0320 N.pl3  95  ARG95      -0.0865
    130  CZ        -6.9840  -32.9720   -4.3360 C.cat  95  ARG95       0.5346
    131  NH1       -5.7750  -32.4440   -4.1840 N.pl3  95  ARG95       0.1354
    132  NH2       -7.9740  -32.2160   -4.7940 N.pl3  95  ARG95       0.1354
    133  N        -13.7850  -32.9790    1.6640 N.3   135  GLU135     -0.1245
    134  CA       -12.6660  -32.0420    1.7320 C.3   135  GLU135      0.1567
    135  C        -12.3230  -31.7040    3.1860 C.2   135  GLU135      0.2260
    136  O        -11.2000  -31.3240    3.4830 O.2   135  GLU135     -0.2867
    137  CB       -12.9480  -30.7180    1.0220 C.3   135  GLU135      0.0388
    138  CG       -13.5320  -30.8040   -0.3670 C.3   135  GLU135      0.1160
    139  CD       -14.9980  -31.2230   -0.3700 C.2   135  GLU135      0.3649
    140  OE1      -15.8390  -30.4700    0.1740 O.co2 135  GLU135     -0.2457
    141  OE2      -15.2870  -32.3190   -0.8810 O.co2 135  GLU135     -0.2457
    142  N        -10.4180  -35.4850    7.2820 N.3   138  LEU138     -0.1245
    143  CA        -8.9900  -35.7900    7.2990 C.3   138  LEU138      0.1561
    144  C         -8.7450  -37.1940    7.8450 C.2   138  LEU138      0.2260
    145  O         -9.6210  -37.7920    8.4770 O.2   138  LEU138     -0.2867
    146  CB        -8.2320  -34.7380    8.1220 C.3   138  LEU138      0.0270
    147  CG        -8.0540  -33.3540    7.4830 C.3   138  LEU138      0.0019
    148  CD1       -7.5970  -32.3260    8.5040 C.3   138  LEU138      0.0001
    149  CD2       -7.0540  -33.3970    6.3100 C.3   138  LEU138      0.0001
    150  N        -12.7360  -32.1430   10.3140 N.3   148  ALA148     -0.1231
    151  CA       -11.6940  -31.1270   10.4660 C.3   148  ALA148      0.1694
    152  C        -12.1770  -29.6940   10.4240 C.2   148  ALA148      0.2592
    153  O        -11.4700  -28.7740   10.8450 O.2   148  ALA148     -0.2718
    154  CB       -10.6440  -31.3330    9.3750 C.3   148  ALA148      0.0304
    155  N        -13.3630  -29.4900    9.8840 N.am  149  ASP149     -0.1960
    156  CA       -13.8510  -28.1300    9.7620 C.3   149  ASP149      0.1840
    157  C        -14.6600  -27.7760   11.0060 C.2   149  ASP149      0.2622
    158  O        -15.2520  -28.6670   11.6280 O.2   149  ASP149     -0.2715
    159  CB       -14.7640  -28.0220    8.5300 C.3   149  ASP149      0.1450
    160  CG       -15.9080  -29.0000    8.7140 C.2   149  ASP149      0.3671
    161  OD1      -15.7820  -29.8420    9.6670 O.co2 149  ASP149     -0.2456
    162  OD2      -16.9040  -28.9480    7.9470 O.co2 149  ASP149     -0.2456
    163  N        -14.6580  -26.4900   11.3320 N.am  150  PHE150     -0.1974
    164  CA       -15.2850  -25.9990   12.5590 C.3   150  PHE150      0.1639
    165  C        -16.7120  -25.5440   12.2950 C.2   150  PHE150      0.2290
    166  O        -17.2530  -24.7210   13.0460 O.2   150  PHE150     -0.2864
    167  CB       -14.4610  -24.8550   13.1510 C.3   150  PHE150      0.0560
    168  CG       -13.0420  -25.2250   13.5470 C.ar  150  PHE150     -0.0200
    169  CD1      -12.5650  -26.5210   13.4180 C.ar  150  PHE150     -0.0042
    170  CD2      -12.1900  -24.2490   14.0530 C.ar  150  PHE150     -0.0042
    171  CE1      -11.2730  -26.8430   13.7810 C.ar  150  PHE150     -0.0003
    172  CE2      -10.8950  -24.5580   14.4130 C.ar  150  PHE150     -0.0003
    173  CZ       -10.4340  -25.8590   14.2670 C.ar  150  PHE150     -0.0000
@<TRIPOS>BOND
     1   132   130    1
     2   130   131    1
     3   130   129    2
     4   129   128    1
     5   128   127    1
     6   125   124    2
     7    31    32    1
     8    31    30    1
     9   124   123    1
    10   123   126    1
    11   123   122    1
    12   127   126    1
    13    30    29    1
    14    29    28    1
    15    28    25    1
    16   141   139   ar
    17   139   138    1
    18   139   140   ar
    19   138   137    1
    20    25    24    1
    21    25    26    1
    22    24    22   am
    23    27    26    2
    24   120   119    1
    25   137   134    1
    26    21    22    1
    27    21    20    1
    28    22    23    2
    29    10     9    1
    30   118   117    2
    31   133   134    1
    32   134   135    1
    33    15    14    2
    34    20    14   am
    35   119   121    1
    36   119   116    1
    37     7     8    1
    38     7     6    1
    39    14    13    1
    40   117   116    1
    41     9     8    2
    42     9    11    1
    43     5     6    1
    44     5     2    1
    45   115   116    1
    46   115   113   am
    47   135   136    2
    48    13    12    1
    49    13    16    1
    50     2     3    1
    51     2     1    1
    52     3     4    2
    53   106   105    2
    54   112   113    1
    55   112   111    1
    56   113   114    2
    57    36    35    2
    58   105   111   am
    59   105   104    1
    60    16    17    1
    61    33    34    1
    62    19    17    1
    63   104   107    1
    64   104   103    1
    65    17    18    1
    66    35    34    1
    67    99    98    2
    68   107   108    1
    69    34    37    1
    70    39    37    1
    71    37    38    1
    72   109   108    1
    73   149   147    1
    74   110   108    1
    75   103    98   am
    76    98    97    1
    77    53    52    1
    78   142   143    1
    79   143   144    1
    80   143   146    1
    81   147   146    1
    82   147   148    1
    83    94    93    2
    84    90    89    1
    85    52    51    1
    86   144   145    2
    87   162   160   ar
    88    97   100    1
    89    97    96    1
    90    87    89   ar
    91    87    85   ar
    92   159   160    1
    93   159   156    1
    94    50    51    1
    95    50    49    1
    96   160   161   ar
    97   100   101    1
    98    89    88   ar
    99    93    96   am
   100    93    92    1
   101    96   102    1
   102   154   151    1
   103    46    47    1
   104    46    49    1
   105    46    45    1
   106    85    84   ar
   107    47    48    2
   108    95    92    1
   109   156   155    1
   110   156   157    1
   111   155   152   am
   112    88    86   ar
   113    92    91    1
   114   101   102    1
   115   150   151    1
   116   152   151    1
   117   152   153    2
   118    91    81   am
   119    44    41    1
   120    84    86   ar
   121    84    83    1
   122   157   163   am
   123   157   158    2
   124   163   164    1
   125    41    42    1
   126    41    40    1
   127    68    67    1
   128    42    43    2
   129    81    80    1
   130    81    82    2
   131    83    80    1
   132    61    59    1
   133    80    79    1
   134   165   164    1
   135   165   166    2
   136    60    59    1
   137   164   167    1
   138    73    72    2
   139    59    58    1
   140    67    66    1
   141    67    69    1
   142   167   168    1
   143    66    63    1
   144    58    55    1
   145   169   168   ar
   146   169   171   ar
   147    79    72   am
   148   168   170   ar
   149    72    71    1
   150   171   173   ar
   151   170   172   ar
   152   173   172   ar
   153    65    64    2
   154    55    54    1
   155    55    56    1
   156    63    62    1
   157    63    64    1
   158    64    70   am
   159    71    70    1
   160    71    74    1
   161    75    74    1
   162    75    76    1
   163    78    76   ar
   164    76    77   ar
   165    56    57    2
