@<TRIPOS>MOLECULE
tmp/3k5vA00.pdb
 143 133 0 0 0
SMALL
GASTEIGER

@<TRIPOS>ATOM
      1  N         30.4030   39.7520   57.6900 N.3   108  ARG108     -0.1245
      2  CA        29.4120   40.4730   56.8920 C.3   108  ARG108      0.1563
      3  C         29.9650   41.1620   55.6410 C.2   108  ARG108      0.2260
      4  O         29.2110   41.4450   54.7130 O.2   108  ARG108     -0.2867
      5  CB        28.5580   41.3900   57.7660 C.3   108  ARG108      0.0307
      6  CG        27.6170   40.5560   58.6530 C.3   108  ARG108      0.0489
      7  CD        26.4790   41.3310   59.2690 C.3   108  ARG108      0.2205
      8  NE        25.9500   40.5770   60.4040 N.pl3 108  ARG108     -0.0865
      9  CZ        24.9790   40.9870   61.2200 C.cat 108  ARG108      0.5346
     10  NH1       24.3930   42.1680   61.0550 N.pl3 108  ARG108      0.1354
     11  NH2       24.5920   40.1960   62.2070 N.pl3 108  ARG108      0.1354
     12  N         27.5830   39.6570   51.8830 N.3   112  SER112     -0.1202
     13  CA        26.9820   40.9490   51.5640 C.3   112  SER112      0.2020
     14  C         25.5390   40.7650   51.0650 C.2   112  SER112      0.2618
     15  O         25.0710   39.6480   50.9000 O.2   112  SER112     -0.2717
     16  CB        27.7840   41.6140   50.4430 C.3   112  SER112      0.2103
     17  OG        27.6240   40.8640   49.2450 O.3   112  SER112     -0.2182
     18  N         24.8700   41.8750   50.7610 N.am  113  ALA113     -0.1979
     19  CA        23.5270   41.8160   50.1350 C.3   113  ALA113      0.1597
     20  C         23.4630   40.9220   48.8940 C.2   113  ALA113      0.2287
     21  O         22.4520   40.2530   48.6500 O.2   113  ALA113     -0.2864
     22  CB        23.0350   43.2210   49.8040 C.3   113  ALA113      0.0319
     23  N         23.4580   37.3550   50.1040 N.3   116  LEU116     -0.1231
     24  CA        22.1260   37.0610   50.7040 C.3   116  LEU116      0.1693
     25  C         21.0570   36.8240   49.6300 C.2   116  LEU116      0.2591
     26  O         20.2500   35.8700   49.7170 O.2   116  LEU116     -0.2718
     27  CB        21.6890   38.1540   51.6720 C.3   116  LEU116      0.0284
     28  CG        22.5220   38.4500   52.9190 C.3   116  LEU116      0.0019
     29  CD1       21.9870   39.6810   53.6190 C.3   116  LEU116      0.0001
     30  CD2       22.5450   37.2740   53.8790 C.3   116  LEU116      0.0001
     31  N         21.0570   37.6680   48.6040 N.am  117  LEU117     -0.1980
     32  CA        20.1660   37.4810   47.4590 C.3   117  LEU117      0.1596
     33  C         20.3880   36.1330   46.7770 C.2   117  LEU117      0.2287
     34  O         19.4480   35.4280   46.4950 O.2   117  LEU117     -0.2864
     35  CB        20.2830   38.6540   46.4720 C.3   117  LEU117      0.0297
     36  CG        19.5730   38.4670   45.1240 C.3   117  LEU117      0.0022
     37  CD1       18.0630   38.3810   45.3540 C.3   117  LEU117      0.0001
     38  CD2       19.9120   39.6030   44.1070 C.3   117  LEU117      0.0001
     39  N         18.8730   33.3450   48.9730 N.3   120  ALA120     -0.1245
     40  CA        17.3780   33.3420   48.8340 C.3   120  ALA120      0.1562
     41  C         16.9410   32.7510   47.5050 C.2   120  ALA120      0.2260
     42  O         15.9640   31.9710   47.4270 O.2   120  ALA120     -0.2867
     43  CB        16.8430   34.7670   48.9760 C.3   120  ALA120      0.0290
     44  N         12.9340   34.2980   54.3410 N.3   205  LEU205     -0.1245
     45  CA        13.4470   35.5140   53.7000 C.3   205  LEU205      0.1561
     46  C         13.7560   36.6270   54.7070 C.2   205  LEU205      0.2260
     47  O         14.7840   37.3030   54.6150 O.2   205  LEU205     -0.2867
     48  CB        12.4440   35.9950   52.6420 C.3   205  LEU205      0.0270
     49  CG        12.8560   37.0470   51.6180 C.3   205  LEU205      0.0019
     50  CD1       14.1450   36.6340   50.9250 C.3   205  LEU205      0.0001
     51  CD2       11.7240   37.1710   50.5900 C.3   205  LEU205      0.0001
     52  N         16.9020   35.7470   56.4770 N.3   208  ILE208     -0.1231
     53  CA        18.0840   36.0490   55.6380 C.3   208  ILE208      0.1692
     54  C         18.3600   37.5530   55.7350 C.2   208  ILE208      0.2591
     55  O         19.4810   37.9980   56.0150 O.2   208  ILE208     -0.2718
     56  CB        17.8650   35.5670   54.1800 C.3   208  ILE208      0.0266
     57  CG1       17.8810   34.0290   54.1270 C.3   208  ILE208      0.0019
     58  CG2       18.8710   36.1960   53.1850 C.3   208  ILE208      0.0020
     59  CD1       17.4650   33.4570   52.7470 C.3   208  ILE208      0.0001
     60  N         17.3090   38.3370   55.5490 N.am  209  ALA209     -0.1980
     61  CA        17.4260   39.8000   55.5350 C.3   209  ALA209      0.1597
     62  C         17.9470   40.4060   56.8370 C.2   209  ALA209      0.2287
     63  O         18.4860   41.5110   56.8270 O.2   209  ALA209     -0.2864
     64  CB        16.0780   40.4170   55.1640 C.3   209  ALA209      0.0319
     65  N         20.1820   38.6400   58.9080 N.3   211  TYR211     -0.1241
     66  CA        21.3150   37.7860   59.3580 C.3   211  TYR211      0.1605
     67  C         20.9440   36.8820   60.5440 C.2   211  TYR211      0.2264
     68  O         21.7190   36.6910   61.4970 O.2   211  TYR211     -0.2867
     69  CB        22.5500   38.6390   59.6950 C.3   211  TYR211      0.0534
     70  CG        23.1900   39.2640   58.4910 C.ar  211  TYR211     -0.0201
     71  CD1       24.1580   38.5710   57.7590 C.ar  211  TYR211     -0.0009
     72  CD2       22.8550   40.5570   58.0960 C.ar  211  TYR211     -0.0009
     73  CE1       24.7660   39.1510   56.6390 C.ar  211  TYR211      0.0417
     74  CE2       23.4480   41.1470   56.9820 C.ar  211  TYR211      0.0417
     75  CZ        24.4120   40.4370   56.2690 C.ar  211  TYR211      0.1957
     76  OH        24.9880   41.0430   55.1850 O.3   211  TYR211     -0.2866
     77  N         15.7880   46.5890   58.6600 N.3   238  GLU238     -0.1231
     78  CA        16.7310   47.6590   58.3570 C.3   238  GLU238      0.1699
     79  C         17.6010   47.2520   57.1740 C.2   238  GLU238      0.2593
     80  O         18.2340   46.1780   57.1890 O.2   238  GLU238     -0.2718
     81  CB        17.5870   47.9490   59.5880 C.3   238  GLU238      0.0402
     82  CG        18.6160   49.0530   59.3680 C.3   238  GLU238      0.1161
     83  CD        19.5490   49.2270   60.5370 C.2   238  GLU238      0.3649
     84  OE1       19.3740   48.5280   61.5570 O.co2 238  GLU238     -0.2457
     85  OE2       20.4620   50.0700   60.4320 O.co2 238  GLU238     -0.2457
     86  N         17.5990   48.0950   56.1430 N.am  239  GLY239     -0.1942
     87  CA        18.4010   47.8730   54.9320 C.3   239  GLY239      0.2014
     88  C         17.7390   47.0580   53.8350 C.2   239  GLY239      0.2639
     89  O         18.2680   46.9400   52.7320 O.2   239  GLY239     -0.2714
     90  N         16.5570   46.5070   54.1170 N.am  240  CYS240     -0.1954
     91  CA        15.9030   45.6160   53.1740 C.3   240  CYS240      0.1828
     92  C         15.3260   46.4070   52.0060 C.2   240  CYS240      0.2467
     93  O         14.5460   47.3450   52.2140 O.2   240  CYS240     -0.2730
     94  CB        14.7850   44.8180   53.8670 C.3   240  CYS240      0.0996
     95  SG        14.0450   43.5680   52.8050 S.3   240  CYS240     -0.0797
     96  N         15.7100   46.0410   50.7720 N.am  241  PRO241     -0.2726
     97  CA        15.1400   46.7160   49.6120 C.3   241  PRO241      0.1402
     98  C         13.6220   46.5490   49.5680 C.2   241  PRO241      0.2269
     99  O         13.0870   45.4860   49.9000 O.2   241  PRO241     -0.2865
    100  CB        15.7890   46.0020   48.4320 C.3   241  PRO241      0.0296
    101  CG        17.0850   45.5020   48.9750 C.3   241  PRO241      0.0237
    102  CD        16.7430   45.0600   50.3790 C.3   241  PRO241      0.0939
    103  N         12.1290   43.4740   47.7860 N.3   244  VAL244     -0.1245
    104  CA        12.2720   42.2250   48.5520 C.3   244  VAL244      0.1561
    105  C         11.1970   42.1520   49.6400 C.2   244  VAL244      0.2260
    106  O         10.5800   41.0910   49.8390 O.2   244  VAL244     -0.2867
    107  CB        13.6730   42.0790   49.1870 C.3   244  VAL244      0.0252
    108  CG1       13.7310   40.8250   50.0730 C.3   244  VAL244      0.0019
    109  CG2       14.7200   41.9810   48.0820 C.3   244  VAL244      0.0019
    110  N         12.9960   36.8050   41.7910 N.3   269  PHE269     -0.1241
    111  CA        14.4000   36.9630   42.1920 C.3   269  PHE269      0.1605
    112  C         15.3170   37.1660   40.9920 C.2   269  PHE269      0.2264
    113  O         16.2820   37.9100   41.0820 O.2   269  PHE269     -0.2867
    114  CB        14.8720   35.7600   43.0030 C.3   269  PHE269      0.0534
    115  CG        14.4520   35.8060   44.4500 C.ar  269  PHE269     -0.0203
    116  CD1       14.6540   36.9620   45.2130 C.ar  269  PHE269     -0.0042
    117  CD2       13.8830   34.6900   45.0500 C.ar  269  PHE269     -0.0042
    118  CE1       14.2950   37.0110   46.5620 C.ar  269  PHE269     -0.0003
    119  CE2       13.5080   34.7240   46.4000 C.ar  269  PHE269     -0.0003
    120  CZ        13.7100   35.8800   47.1560 C.ar  269  PHE269     -0.0000
    121  N         21.4820   45.1530   43.8930 N.3   278  ILE278     -0.1245
    122  CA        20.9130   45.0580   45.2420 C.3   278  ILE278      0.1561
    123  C         21.7500   45.8390   46.2630 C.2   278  ILE278      0.2260
    124  O         21.2120   46.4490   47.1850 O.2   278  ILE278     -0.2867
    125  CB        20.6730   43.5830   45.6940 C.3   278  ILE278      0.0252
    126  CG1       19.8270   43.5590   46.9750 C.3   278  ILE278      0.0019
    127  CG2       22.0090   42.8170   45.8630 C.3   278  ILE278      0.0019
    128  CD1       19.3120   42.1620   47.3750 C.3   278  ILE278      0.0001
    129  N         20.1680   48.5890   49.0520 N.3   282  VAL282     -0.1245
    130  CA        20.4370   48.5330   50.4740 C.3   282  VAL282      0.1561
    131  C         21.0500   49.8440   50.9470 C.2   282  VAL282      0.2260
    132  O         20.6050   50.4190   51.9370 O.2   282  VAL282     -0.2867
    133  CB        21.3620   47.3570   50.8490 C.3   282  VAL282      0.0252
    134  CG1       21.7130   47.4140   52.3240 C.3   282  VAL282      0.0019
    135  CG2       20.7070   46.0210   50.4750 C.3   282  VAL282      0.0019
    136  N         19.5480   52.4220   53.7340 N.3   286  LEU286     -0.1245
    137  CA        20.3000   52.7780   54.9370 C.3   286  LEU286      0.1561
    138  C         20.5810   54.2740   54.9860 C.2   286  LEU286      0.2260
    139  O         20.6060   54.8510   56.0710 O.2   286  LEU286     -0.2867
    140  CB        21.6210   52.0050   55.0260 C.3   286  LEU286      0.0270
    141  CG        21.5750   50.4850   55.1940 C.3   286  LEU286      0.0019
    142  CD1       22.9860   49.9520   55.1690 C.3   286  LEU286      0.0001
    143  CD2       20.8870   50.0860   56.4820 C.3   286  LEU286      0.0001
@<TRIPOS>BOND
     1   112   113    2
     2   112   111    1
     3   110   111    1
     4   111   114    1
     5   114   115    1
     6   121   122    1
     7    38    36    1
     8   115   117   ar
     9   115   116   ar
    10   117   119   ar
    11    36    37    1
    12    36    35    1
    13   116   118   ar
    14   122   125    1
    15   122   123    1
    16   125   127    1
    17   125   126    1
    18   123   124    2
    19   119   120   ar
    20    35    32    1
    21    34    33    2
    22   118   120   ar
    23    33    32    1
    24   126   128    1
    25    42    41    2
    26    32    31    1
    27    41    40    1
    28   103   104    1
    29   109   107    1
    30   100   101    1
    31   100    97    1
    32   104   107    1
    33   104   105    1
    34    31    25   am
    35    21    20    2
    36    40    39    1
    37    40    43    1
    38    20    19    1
    39   101   102    1
    40   129   130    1
    41   107   108    1
    42    17    16    1
    43    98    97    1
    44    98    99    2
    45    97    96    1
    46    25    26    2
    47    25    24    1
    48   105   106    2
    49    22    19    1
    50    23    24    1
    51    19    18    1
    52   102    96    1
    53    16    13    1
    54   130   133    1
    55   130   131    1
    56   135   133    1
    57    51    49    1
    58    24    27    1
    59    18    14   am
    60    96    92   am
    61   133   134    1
    62    15    14    2
    63    50    49    1
    64   131   132    2
    65    14    13    1
    66    13    12    1
    67    49    48    1
    68    27    28    1
    69    92    93    2
    70    92    91    1
    71    48    45    1
    72    89    88    2
    73    59    57    1
    74    95    94    1
    75    28    29    1
    76    28    30    1
    77    91    94    1
    78    91    90    1
    79    58    56    1
    80    45    44    1
    81    45    46    1
    82   136   137    1
    83    88    90   am
    84    88    87    1
    85    57    56    1
    86    56    53    1
    87    47    46    2
    88     4     3    2
    89    87    86    1
    90   137   138    1
    91   137   140    1
    92   138   139    2
    93   140   141    1
    94    64    61    1
    95   142   141    1
    96    76    75    1
    97   141   143    1
    98    61    60    1
    99    61    62    1
   100    60    54   am
   101    53    54    1
   102    53    52    1
   103     3     2    1
   104    54    55    2
   105    86    79   am
   106    75    73   ar
   107    75    74   ar
   108    73    71   ar
   109    63    62    2
   110     2     1    1
   111     2     5    1
   112    74    72   ar
   113    79    80    2
   114    79    78    1
   115    71    70   ar
   116     5     6    1
   117    72    70   ar
   118    78    77    1
   119    78    81    1
   120    70    69    1
   121     6     7    1
   122    65    66    1
   123     7     8    1
   124    66    69    1
   125    66    67    1
   126    82    81    1
   127    82    83    1
   128     8     9    2
   129    85    83   ar
   130    83    84   ar
   131    67    68    2
   132    10     9    1
   133     9    11    1
