@<TRIPOS>MOLECULE
tmp/3k60A00.pdb
 147 138 0 0 0
SMALL
GASTEIGER

@<TRIPOS>ATOM
      1  N         66.9820  -27.6790   12.9530 N.3    33  LEU33      -0.1245
      2  CA        68.0940  -27.4330   12.0490 C.3    33  LEU33       0.1561
      3  C         67.6110  -26.9250   10.6910 C.2    33  LEU33       0.2260
      4  O         68.2190  -26.0340   10.0990 O.2    33  LEU33      -0.2867
      5  CB        68.9430  -28.6960   11.8850 C.3    33  LEU33       0.0270
      6  CG        69.5640  -29.2240   13.1870 C.3    33  LEU33       0.0019
      7  CD1       70.5550  -30.3550   12.9140 C.3    33  LEU33       0.0001
      8  CD2       70.2310  -28.1050   13.9690 C.3    33  LEU33       0.0001
      9  N         66.6240  -23.3300   10.9960 N.3    36  ASN36      -0.1225
     10  CA        67.8280  -22.5010   11.0140 C.3    36  ASN36       0.1785
     11  C         68.3650  -22.2560    9.6120 C.2    36  ASN36       0.2597
     12  O         68.8060  -21.1560    9.2920 O.2    36  ASN36      -0.2718
     13  CB        68.9160  -23.1500   11.8660 C.3    36  ASN36       0.1169
     14  CG        68.6590  -23.0000   13.3510 C.2    36  ASN36       0.2627
     15  OD1       67.7550  -22.2650   13.7720 O.2    36  ASN36      -0.2716
     16  ND2       69.4630  -23.6870   14.1570 N.am   36  ASN36      -0.0877
     17  N         68.3400  -23.2980    8.7870 N.am   37  ALA37      -0.1979
     18  CA        68.8020  -23.2050    7.4100 C.3    37  ALA37       0.1597
     19  C         67.9020  -22.2460    6.6370 C.2    37  ALA37       0.2287
     20  O         68.3760  -21.4170    5.8590 O.2    37  ALA37      -0.2864
     21  CB        68.7960  -24.5840    6.7630 C.3    37  ALA37       0.0319
     22  N         66.1570  -19.7720    7.8740 N.3    39  ASP39      -0.1225
     23  CA        66.3940  -18.4090    8.3470 C.3    39  ASP39       0.1805
     24  C         67.6680  -17.8300    7.7360 C.2    39  ASP39       0.2597
     25  O         67.7100  -16.6630    7.3400 O.2    39  ASP39      -0.2718
     26  CB        66.4810  -18.3700    9.8760 C.3    39  ASP39       0.1424
     27  CG        65.1540  -18.7140   10.5550 C.2    39  ASP39       0.3668
     28  OD1       64.0890  -18.6120    9.8980 O.co2  39  ASP39      -0.2456
     29  OD2       65.1790  -19.0840   11.7550 O.co2  39  ASP39      -0.2456
     30  N         68.7060  -18.6560    7.6620 N.am   40  ALA40      -0.1979
     31  CA        69.9840  -18.2310    7.1130 C.3    40  ALA40       0.1597
     32  C         69.8330  -17.8970    5.6270 C.2    40  ALA40       0.2287
     33  O         70.4580  -16.9680    5.1170 O.2    40  ALA40      -0.2864
     34  CB        71.0320  -19.3190    7.3180 C.3    40  ALA40       0.0319
     35  N         68.0510  -14.6020    5.1530 N.3    43  LYS43      -0.1245
     36  CA        68.9320  -13.4530    5.3290 C.3    43  LYS43       0.1561
     37  C         69.6990  -13.1060    4.0620 C.2    43  LYS43       0.2260
     38  O         69.7730  -11.9390    3.6770 O.2    43  LYS43      -0.2867
     39  CB        69.9050  -13.6840    6.4880 C.3    43  LYS43       0.0271
     40  CG        69.2180  -13.8430    7.8320 C.3    43  LYS43       0.0035
     41  CD        70.2240  -13.9640    8.9700 C.3    43  LYS43       0.0206
     42  CE        69.5320  -14.3290   10.2870 C.3    43  LYS43       0.1093
     43  NZ        70.5200  -14.7040   11.3410 N.3    43  LYS43      -0.1314
     44  N         73.2930  -25.8740    3.7930 N.3    78  ASP78      -0.1239
     45  CA        72.5430  -24.8030    3.1500 C.3    78  ASP78       0.1674
     46  C         73.4910  -23.8110    2.4900 C.2    78  ASP78       0.2266
     47  O         74.6790  -23.7700    2.8030 O.2    78  ASP78      -0.2867
     48  CB        71.6310  -24.0770    4.1520 C.3    78  ASP78       0.1410
     49  CG        72.4190  -23.2880    5.1980 C.2    78  ASP78       0.3668
     50  OD1       73.0070  -22.2370    4.8540 O.co2  78  ASP78      -0.2456
     51  OD2       72.4530  -23.7220    6.3710 O.co2  78  ASP78      -0.2456
     52  N         73.3700  -17.3910    4.5490 N.3    81  ILE81      -0.1231
     53  CA        74.3140  -16.2870    4.7160 C.3    81  ILE81       0.1692
     54  C         75.6570  -16.7140    5.3160 C.2    81  ILE81       0.2593
     55  O         76.6670  -16.0360    5.1370 O.2    81  ILE81      -0.2718
     56  CB        73.7030  -15.1360    5.5380 C.3    81  ILE81       0.0266
     57  CG1       74.5460  -13.8680    5.3820 C.3    81  ILE81       0.0019
     58  CG2       73.5570  -15.5440    7.0080 C.3    81  ILE81       0.0020
     59  CD1       73.7900  -12.5930    5.6780 C.3    81  ILE81       0.0001
     60  N         75.6740  -17.8430    6.0140 N.am   82  GLY82      -0.1942
     61  CA        76.9010  -18.3280    6.6220 C.3    82  GLY82       0.2014
     62  C         77.3130  -17.5240    7.8470 C.2    82  GLY82       0.2638
     63  O         76.7100  -16.4950    8.1650 O.2    82  GLY82      -0.2714
     64  N         78.3470  -17.9960    8.5350 N.am   83  MET83      -0.1976
     65  CA        78.8400  -17.3390    9.7440 C.3    83  MET83       0.1605
     66  C         80.3350  -17.0650    9.6460 C.2    83  MET83       0.2287
     67  O         81.1070  -17.9340    9.2380 O.2    83  MET83      -0.2864
     68  CB        78.5700  -18.2060   10.9820 C.3    83  MET83       0.0413
     69  CG        77.0990  -18.5340   11.2160 C.3    83  MET83       0.0598
     70  SD        76.8330  -19.6310   12.6340 S.3    83  MET83      -0.1393
     71  CE        77.0070  -18.4650   13.9680 C.3    83  MET83       0.0692
     72  N         77.5390  -16.8220   18.2670 N.3    91  ASN91      -0.1225
     73  CA        76.1940  -17.3690   18.1060 C.3    91  ASN91       0.1785
     74  C         76.0780  -18.8140   18.5590 C.2    91  ASN91       0.2597
     75  O         74.9850  -19.2870   18.8610 O.2    91  ASN91      -0.2718
     76  CB        75.7340  -17.2740   16.6460 C.3    91  ASN91       0.1169
     77  CG        75.7740  -15.8630   16.1050 C.2    91  ASN91       0.2627
     78  OD1       75.8050  -14.8940   16.8580 O.2    91  ASN91      -0.2716
     79  ND2       75.7730  -15.7420   14.7830 N.am   91  ASN91      -0.0877
     80  N         77.2070  -19.5150   18.5860 N.am   92  LEU92      -0.1980
     81  CA        77.2070  -20.9350   18.9150 C.3    92  LEU92       0.1596
     82  C         77.9420  -21.2930   20.2060 C.2    92  LEU92       0.2287
     83  O         78.6830  -22.2730   20.2390 O.2    92  LEU92      -0.2864
     84  CB        77.7700  -21.7640   17.7590 C.3    92  LEU92       0.0297
     85  CG        76.9400  -21.7970   16.4760 C.3    92  LEU92       0.0022
     86  CD1       77.5490  -22.7790   15.4890 C.3    92  LEU92       0.0001
     87  CD2       75.4800  -22.1530   16.7730 C.3    92  LEU92       0.0001
     88  N         71.3390  -16.0350   25.2310 N.3    97  ARG97      -0.1245
     89  CA        70.3580  -15.0150   24.9110 C.3    97  ARG97       0.1563
     90  C         69.2460  -14.9610   25.9500 C.2    97  ARG97       0.2260
     91  O         69.1350  -15.8370   26.8050 O.2    97  ARG97      -0.2867
     92  CB        69.8060  -15.2290   23.5000 C.3    97  ARG97       0.0307
     93  CG        70.7120  -14.6600   22.4110 C.3    97  ARG97       0.0489
     94  CD        70.6110  -15.4350   21.1040 C.3    97  ARG97       0.2205
     95  NE        69.2290  -15.6890   20.7070 N.pl3  97  ARG97      -0.0865
     96  CZ        68.8730  -16.2480   19.5550 C.cat  97  ARG97       0.5346
     97  NH1       69.7980  -16.6050   18.6710 N.pl3  97  ARG97       0.1354
     98  NH2       67.5920  -16.4470   19.2830 N.pl3  97  ARG97       0.1354
     99  N         64.7780  -25.8920   21.7050 N.3   121  VAL121     -0.1231
    100  CA        66.1070  -25.6330   22.2500 C.3   121  VAL121      0.1692
    101  C         67.0820  -25.2930   21.1240 C.2   121  VAL121      0.2593
    102  O         68.2980  -25.3160   21.3030 O.2   121  VAL121     -0.2718
    103  CB        66.6430  -26.8310   23.0600 C.3   121  VAL121      0.0266
    104  CG1       65.8250  -27.0190   24.3300 C.3   121  VAL121      0.0020
    105  CG2       66.6380  -28.0950   22.2090 C.3   121  VAL121      0.0020
    106  N         66.5270  -24.9960   19.9570 N.am  122  GLY122     -0.1942
    107  CA        67.3080  -24.5260   18.8330 C.3   122  GLY122      0.2014
    108  C         68.3780  -25.4950   18.3800 C.2   122  GLY122      0.2639
    109  O         68.1820  -26.7140   18.3620 O.2   122  GLY122     -0.2714
    110  N         69.5230  -24.9310   18.0210 N.am  123  PHE123     -0.1959
    111  CA        70.6320  -25.6830   17.4570 C.3   123  PHE123      0.1771
    112  C         71.0660  -26.8430   18.3550 C.2   123  PHE123      0.2619
    113  O         71.4560  -27.9090   17.8710 O.2   123  PHE123     -0.2715
    114  CB        71.7850  -24.7130   17.1920 C.3   123  PHE123      0.0574
    115  CG        73.1200  -25.3670   17.0100 C.ar  123  PHE123     -0.0200
    116  CD1       73.5060  -25.8550   15.7730 C.ar  123  PHE123     -0.0042
    117  CD2       74.0090  -25.4530   18.0710 C.ar  123  PHE123     -0.0042
    118  CE1       74.7430  -26.4410   15.6010 C.ar  123  PHE123     -0.0003
    119  CE2       75.2510  -26.0350   17.9060 C.ar  123  PHE123     -0.0003
    120  CZ        75.6230  -26.5330   16.6700 C.ar  123  PHE123     -0.0000
    121  N         70.9720  -26.6430   19.6660 N.am  124  TYR124     -0.1974
    122  CA        71.4760  -27.6210   20.6250 C.3   124  TYR124      0.1639
    123  C         70.6710  -28.9180   20.6620 C.2   124  TYR124      0.2290
    124  O         71.1130  -29.9140   21.2350 O.2   124  TYR124     -0.2864
    125  CB        71.6200  -26.9800   22.0150 C.3   124  TYR124      0.0560
    126  CG        72.5650  -25.8000   21.9630 C.ar  124  TYR124     -0.0198
    127  CD1       73.9450  -25.9910   21.9550 C.ar  124  TYR124     -0.0009
    128  CD2       72.0830  -24.5020   21.8570 C.ar  124  TYR124     -0.0009
    129  CE1       74.8200  -24.9150   21.8730 C.ar  124  TYR124      0.0417
    130  CE2       72.9490  -23.4180   21.7780 C.ar  124  TYR124      0.0417
    131  CZ        74.3150  -23.6310   21.7850 C.ar  124  TYR124      0.1957
    132  OH        75.1750  -22.5600   21.7030 O.3   124  TYR124     -0.2866
    133  N         76.4640  -23.0310    5.1180 N.3   170  THR170     -0.1218
    134  CA        76.7910  -23.7610    6.3250 C.3   170  THR170      0.1862
    135  C         76.5340  -25.2470    6.1580 C.2   170  THR170      0.2287
    136  O         75.6080  -25.6540    5.4610 O.2   170  THR170     -0.2866
    137  CB        75.9830  -23.2040    7.4970 C.3   170  THR170      0.1770
    138  OG1       76.3480  -21.8310    7.6910 O.3   170  THR170     -0.2211
    139  CG2       76.2560  -23.9850    8.7750 C.3   170  THR170      0.0375
    140  N         76.0820  -28.4990    8.6740 N.3   172  ILE172     -0.1245
    141  CA        76.0070  -29.0810   10.0140 C.3   172  ILE172      0.1561
    142  C         76.1640  -30.5920    9.9180 C.2   172  ILE172      0.2260
    143  O         75.3610  -31.2710    9.2770 O.2   172  ILE172     -0.2867
    144  CB        74.6600  -28.8060   10.7020 C.3   172  ILE172      0.0252
    145  CG1       74.2040  -27.3560   10.4870 C.3   172  ILE172      0.0019
    146  CG2       74.7360  -29.1610   12.1860 C.3   172  ILE172      0.0019
    147  CD1       74.8650  -26.3490   11.3960 C.3   172  ILE172      0.0001
@<TRIPOS>BOND
     1    46    47    2
     2    46    45    1
     3    45    44    1
     4    45    48    1
     5    38    37    2
     6    37    36    1
     7    48    49    1
     8    52    53    1
     9    53    54    1
    10    53    56    1
    11    50    49   ar
    12    33    32    2
    13   133   134    1
    14    55    54    2
    15    35    36    1
    16    49    51   ar
    17    54    60   am
    18    36    39    1
    19    57    56    1
    20    57    59    1
    21   136   135    2
    22    56    58    1
    23    32    31    1
    24    20    19    2
    25    60    61    1
    26   135   134    1
    27   134   137    1
    28    39    40    1
    29    61    62    1
    30    19    18    1
    31    21    18    1
    32    31    34    1
    33    31    30    1
    34    25    24    2
    35    18    17    1
    36   137   138    1
    37   137   139    1
    38    30    24   am
    39    24    23    1
    40    40    41    1
    41    62    63    2
    42    62    64   am
    43    22    23    1
    44    23    26    1
    45    64    65    1
    46   140   141    1
    47    17    11   am
    48    41    42    1
    49    67    66    2
    50   143   142    2
    51    12    11    2
    52    11    10    1
    53    66    65    1
    54    65    68    1
    55    26    27    1
    56    28    27   ar
    57   142   141    1
    58   141   144    1
    59     4     3    2
    60    42    43    1
    61   145   144    1
    62   145   147    1
    63    27    29   ar
    64     3     2    1
    65   144   146    1
    66    68    69    1
    67     9    10    1
    68    10    13    1
    69    69    70    1
    70    13    14    1
    71     5     2    1
    72     5     6    1
    73     2     1    1
    74    70    71    1
    75     7     6    1
    76     6     8    1
    77    14    15    2
    78    14    16   am
    79    79    77   am
    80    86    85    1
    81   118   116   ar
    82   118   120   ar
    83   116   115   ar
    84    77    76    1
    85    77    78    2
    86    85    87    1
    87    85    84    1
    88    76    73    1
    89   120   119   ar
    90   115   114    1
    91   115   117   ar
    92   114   111    1
    93   111   110    1
    94   111   112    1
    95    84    81    1
    96   113   112    2
    97   119   117   ar
    98   110   108   am
    99    73    72    1
   100    73    74    1
   101   112   121   am
   102   109   108    2
   103   108   107    1
   104    74    80   am
   105    74    75    2
   106    80    81    1
   107    97    96    1
   108   107   106    1
   109    81    82    1
   110    98    96    1
   111    96    95    2
   112   121   122    1
   113   106   101   am
   114    82    83    2
   115   122   123    1
   116   122   125    1
   117   123   124    2
   118    95    94    1
   119    94    93    1
   120   101   102    2
   121   101   100    1
   122   132   131    1
   123    99   100    1
   124   130   131   ar
   125   130   128   ar
   126   131   129   ar
   127   128   126   ar
   128   129   127   ar
   129   127   126   ar
   130   126   125    1
   131   105   103    1
   132   100   103    1
   133    93    92    1
   134   103   104    1
   135    92    89    1
   136    89    88    1
   137    89    90    1
   138    90    91    2
