@<TRIPOS>MOLECULE
tmp/3k6bA00.pdb
 93 89 0 0 0
SMALL
GASTEIGER

@<TRIPOS>ATOM
      1  N         51.4110   24.9470   36.4800 N.3    12  THR12      -0.1203
      2  CA        52.2270   24.1680   35.5470 C.3    12  THR12       0.1994
      3  C         51.7930   24.3650   34.1000 C.2    12  THR12       0.2618
      4  O         52.6020   24.2500   33.1920 O.2    12  THR12      -0.2717
      5  CB        52.1940   22.6320   35.9300 C.3    12  THR12       0.1784
      6  OG1       53.2020   22.3770   36.9120 O.3    12  THR12      -0.2211
      7  CG2       52.4690   21.7310   34.7470 C.3    12  THR12       0.0376
      8  N         50.5220   24.6530   33.8770 N.am   13  ASN13      -0.1960
      9  CA        50.0460   24.8750   32.5210 C.3    13  ASN13       0.1819
     10  C         49.3730   26.2260   32.4810 C.2    13  ASN13       0.2621
     11  O         48.2300   26.3230   32.0600 O.2    13  ASN13      -0.2715
     12  CB        49.0430   23.8020   32.1040 C.3    13  ASN13       0.1195
     13  CG        49.6840   22.4340   31.9410 C.2    13  ASN13       0.2630
     14  OD1       49.7600   21.6420   32.8880 O.2    13  ASN13      -0.2716
     15  ND2       50.1710   22.1600   30.7360 N.am   13  ASN13      -0.0877
     16  N         50.0860   27.2590   32.9400 N.am   14  GLU14      -0.1963
     17  CA        49.5770   28.6150   32.9570 C.3    14  GLU14       0.1733
     18  C         49.2440   29.1330   31.5570 C.2    14  GLU14       0.2616
     19  O         48.1890   29.7270   31.3710 O.2    14  GLU14      -0.2715
     20  CB        50.5820   29.5450   33.6560 C.3    14  GLU14       0.0429
     21  CG        50.1960   31.0200   33.6530 C.3    14  GLU14       0.1163
     22  CD        48.8900   31.2850   34.3820 C.2    14  GLU14       0.3649
     23  OE1       48.4950   30.4290   35.2010 O.co2  14  GLU14      -0.2457
     24  OE2       48.2650   32.3480   34.1520 O.co2  14  GLU14      -0.2457
     25  N         50.1370   28.9140   30.5930 N.am   15  HIS15      -0.1959
     26  CA        49.8900   29.3570   29.2440 C.3    15  HIS15       0.1787
     27  C         48.5180   28.9160   28.7720 C.2    15  HIS15       0.2620
     28  O         47.7040   29.7330   28.3510 O.2    15  HIS15      -0.2715
     29  CB        50.9290   28.8310   28.2520 C.3    15  HIS15       0.0785
     30  CG        50.7200   29.3180   26.8530 C.ar   15  HIS15       0.0821
     31  ND1       51.3410   28.7840   25.7400 N.ar   15  HIS15      -0.2267
     32  CD2       49.9200   30.3130   26.3590 C.ar   15  HIS15       0.1154
     33  CE1       50.9470   29.4010   24.6460 C.ar   15  HIS15       0.1986
     34  NE2       50.0780   30.3370   25.0030 N.ar   15  HIS15      -0.2212
     35  N         48.2460   27.6210   28.8670 N.am   16  ASP16      -0.1971
     36  CA        46.9550   27.1030   28.4270 C.3    16  ASP16       0.1709
     37  C         45.7500   27.6450   29.2280 C.2    16  ASP16       0.2293
     38  O         44.7440   28.0140   28.6300 O.2    16  ASP16      -0.2864
     39  CB        46.9700   25.5720   28.4260 C.3    16  ASP16       0.1436
     40  CG        45.8540   24.9930   27.6000 C.2    16  ASP16       0.3671
     41  OD1       45.7920   25.3000   26.3820 O.co2  16  ASP16      -0.2456
     42  OD2       45.0490   24.2340   28.1770 O.co2  16  ASP16      -0.2456
     43  N         61.9260   27.3270   37.8330 N.3   102  LYS102     -0.1245
     44  CA        62.7860   26.5560   36.9530 C.3   102  LYS102      0.1561
     45  C         64.2280   26.9490   37.1990 C.2   102  LYS102      0.2260
     46  O         65.0990   26.0870   37.2380 O.2   102  LYS102     -0.2867
     47  CB        62.4250   26.7740   35.4850 C.3   102  LYS102      0.0271
     48  CG        61.0870   26.1890   35.1280 C.3   102  LYS102      0.0035
     49  CD        60.4360   26.9090   33.9630 C.3   102  LYS102      0.0206
     50  CE        58.9840   26.4160   33.7490 C.3   102  LYS102      0.1093
     51  NZ        58.0110   26.7420   34.8410 N.3   102  LYS102     -0.1314
     52  N         64.6710   31.8220   28.8270 N.3   139  LYS139     -0.1245
     53  CA        63.2170   31.8700   28.6620 C.3   139  LYS139      0.1561
     54  C         62.6720   33.1090   29.3560 C.2   139  LYS139      0.2260
     55  O         61.6350   33.6560   28.9630 O.2   139  LYS139     -0.2867
     56  CB        62.5570   30.6210   29.2490 C.3   139  LYS139      0.0271
     57  CG        62.6080   29.4410   28.3190 C.3   139  LYS139      0.0035
     58  CD        61.9070   28.2280   28.9110 C.3   139  LYS139      0.0206
     59  CE        61.5700   27.1580   27.9610 C.3   139  LYS139      0.1093
     60  NZ        62.6670   26.5350   27.2370 N.3   139  LYS139     -0.1314
     61  N         63.3040   35.9760   26.8570 N.3   142  MET142     -0.1230
     62  CA        62.3270   35.8840   25.7600 C.3   142  MET142      0.1702
     63  C         60.9180   36.3460   26.1220 C.2   142  MET142      0.2592
     64  O         60.2140   36.9630   25.3110 O.2   142  MET142     -0.2718
     65  CB        62.2430   34.4560   25.2280 C.3   142  MET142      0.0401
     66  CG        60.9910   34.2000   24.4110 C.3   142  MET142      0.0596
     67  SD        60.5560   32.4110   24.2820 S.3   142  MET142     -0.1393
     68  CE        58.9870   32.3280   25.2960 C.3   142  MET142      0.0692
     69  N         60.4920   36.0150   27.3330 N.am  143  HIS143     -0.1976
     70  CA        59.1820   36.4500   27.7570 C.3   143  HIS143      0.1656
     71  C         59.1900   37.9110   28.0850 C.2   143  HIS143      0.2291
     72  O         58.2370   38.6170   27.7920 O.2   143  HIS143     -0.2864
     73  CB        58.6730   35.6040   28.9230 C.3   143  HIS143      0.0771
     74  CG        57.8220   34.4730   28.4730 C.ar  143  HIS143      0.0820
     75  ND1       57.4380   33.4330   29.2880 N.ar  143  HIS143     -0.2267
     76  CD2       57.2690   34.2150   27.2600 C.ar  143  HIS143      0.1154
     77  CE1       56.6910   32.5840   28.6020 C.ar  143  HIS143      0.1986
     78  NE2       56.5740   33.0410   27.3650 N.ar  143  HIS143     -0.2212
     79  N         59.4320   39.9660   24.9860 N.3   146  ASN146     -0.1240
     80  CA        58.1250   39.8660   24.3510 C.3   146  ASN146      0.1653
     81  C         57.0880   40.7680   24.9990 C.2   146  ASN146      0.2266
     82  O         56.2590   41.3380   24.3050 O.2   146  ASN146     -0.2867
     83  CB        57.6460   38.4040   24.3270 C.3   146  ASN146      0.1155
     84  CG        58.2720   37.6050   23.1910 C.2   146  ASN146      0.2627
     85  OD1       58.2340   36.3680   23.1850 O.2   146  ASN146     -0.2716
     86  ND2       58.8390   38.3040   22.2160 N.am  146  ASN146     -0.0877
     87  N         65.3180   30.9180   20.2940 N.3   209  VAL209     -0.1245
     88  CA        64.2420   31.4400   21.1190 C.3   209  VAL209      0.1561
     89  C         63.8980   32.9210   21.0380 C.2   209  VAL209      0.2260
     90  O         62.7200   33.2830   20.9620 O.2   209  VAL209     -0.2867
     91  CB        64.4970   31.0410   22.5740 C.3   209  VAL209      0.0252
     92  CG1       63.5830   31.8040   23.4990 C.3   209  VAL209      0.0019
     93  CG2       64.2770   29.5260   22.7200 C.3   209  VAL209      0.0019
@<TRIPOS>BOND
     1    87    88    1
     2    90    89    2
     3    89    88    1
     4    88    91    1
     5    86    84   am
     6    91    93    1
     7    91    92    1
     8    85    84    2
     9    84    83    1
    10    67    66    1
    11    67    68    1
    12    82    81    2
    13    83    80    1
    14    80    79    1
    15    80    81    1
    16    66    65    1
    17    33    34   ar
    18    33    31   ar
    19    34    32   ar
    20    65    62    1
    21    64    63    2
    22    31    30   ar
    23    62    63    1
    24    62    61    1
    25    63    69   am
    26    32    30   ar
    27    41    40   ar
    28    30    29    1
    29    60    59    1
    30    76    78   ar
    31    76    74   ar
    32    69    70    1
    33    78    77   ar
    34    40    42   ar
    35    40    39    1
    36    70    71    1
    37    70    73    1
    38    72    71    2
    39    59    58    1
    40    29    26    1
    41    57    58    1
    42    57    56    1
    43    28    27    2
    44    39    36    1
    45    36    35    1
    46    36    37    1
    47    74    73    1
    48    74    75   ar
    49    77    75   ar
    50    38    37    2
    51    53    52    1
    52    53    56    1
    53    53    54    1
    54    27    35   am
    55    27    26    1
    56    55    54    2
    57    26    25    1
    58    25    18   am
    59    15    13   am
    60    19    18    2
    61    18    17    1
    62    13    12    1
    63    13    14    2
    64    11    10    2
    65    12     9    1
    66    10     9    1
    67    10    16   am
    68     9     8    1
    69    16    17    1
    70    17    20    1
    71     4     3    2
    72    21    20    1
    73    21    22    1
    74    50    49    1
    75    50    51    1
    76     8     3   am
    77    49    48    1
    78     3     2    1
    79    24    22   ar
    80    22    23   ar
    81     7     5    1
    82    48    47    1
    83    47    44    1
    84     2     5    1
    85     2     1    1
    86     5     6    1
    87    44    45    1
    88    44    43    1
    89    45    46    2
