@<TRIPOS>MOLECULE
tmp/3k6hB01.pdb
 86 85 0 0 0
SMALL
GASTEIGER

@<TRIPOS>ATOM
      1  N         57.0300   37.9010   52.8710 N.3    39  ARG39      -0.1231
      2  CA        57.5440   36.9960   53.8760 C.3    39  ARG39       0.1694
      3  C         56.3690   36.2730   54.5290 C.2    39  ARG39       0.2592
      4  O         55.9480   36.6460   55.6080 O.2    39  ARG39      -0.2718
      5  CB        58.3460   37.7820   54.8950 C.3    39  ARG39       0.0321
      6  CG        58.9710   39.0380   54.3070 C.3    39  ARG39       0.0489
      7  CD        60.3180   39.3810   54.9540 C.3    39  ARG39       0.2205
      8  NE        60.2390   39.4130   56.4090 N.pl3  39  ARG39      -0.0865
      9  CZ        60.6790   38.4420   57.2040 C.cat  39  ARG39       0.5346
     10  NH1       60.5480   38.5530   58.5150 N.pl3  39  ARG39       0.1354
     11  NH2       61.2530   37.3620   56.6890 N.pl3  39  ARG39       0.1354
     12  N         55.8240   35.2590   53.8520 N.am   40  VAL40      -0.1966
     13  CA        54.6890   34.4790   54.3700 C.3    40  VAL40       0.1712
     14  C         55.0360   33.0070   54.3800 C.2    40  VAL40       0.2458
     15  O         55.8880   32.5660   53.6060 O.2    40  VAL40      -0.2730
     16  CB        53.4160   34.6030   53.4900 C.3    40  VAL40       0.0289
     17  CG1       52.3280   35.4210   54.1760 C.3    40  VAL40       0.0023
     18  CG2       53.7550   35.1550   52.1090 C.3    40  VAL40       0.0023
     19  N         54.3800   32.2360   55.2560 N.am   41  PRO41      -0.2716
     20  CA        54.5320   30.7820   55.1610 C.3    41  PRO41       0.1536
     21  C         54.2680   30.3370   53.7210 C.2    41  PRO41       0.2599
     22  O         53.4900   30.9960   53.0260 O.2    41  PRO41      -0.2715
     23  CB        53.4630   30.2650   56.1240 C.3    41  PRO41       0.0310
     24  CG        53.3710   31.3380   57.1780 C.3    41  PRO41       0.0237
     25  CD        53.6250   32.6440   56.4550 C.3    41  PRO41       0.0939
     26  N         54.8950   29.2440   53.2860 N.am   42  ASP42      -0.1958
     27  CA        55.0210   28.9570   51.8570 C.3    42  ASP42       0.1840
     28  C         55.7400   27.6100   51.6440 C.2    42  ASP42       0.2622
     29  O         56.9320   27.5700   51.3510 O.2    42  ASP42      -0.2715
     30  CB        55.7790   30.1340   51.2250 C.3    42  ASP42       0.1450
     31  CG        56.2120   29.8930   49.8000 C.2    42  ASP42       0.3671
     32  OD1       57.0740   30.6870   49.3560 O.co2  42  ASP42      -0.2456
     33  OD2       55.7070   28.9530   49.1330 O.co2  42  ASP42      -0.2456
     34  N         55.0110   26.5060   51.8170 N.am   43  HIS43      -0.1973
     35  CA        55.5770   25.1630   51.6480 C.3    43  HIS43       0.1656
     36  C         56.2590   25.0560   50.2730 C.2    43  HIS43       0.2291
     37  O         55.6780   25.4450   49.2570 O.2    43  HIS43      -0.2864
     38  CB        54.4760   24.0930   51.8120 C.3    43  HIS43       0.0771
     39  CG        54.9710   22.7610   52.3000 C.ar   43  HIS43       0.0820
     40  ND1       56.2630   22.5500   52.7330 N.ar   43  HIS43      -0.2267
     41  CD2       54.3340   21.5720   52.4350 C.ar   43  HIS43       0.1154
     42  CE1       56.4080   21.2860   53.1000 C.ar   43  HIS43       0.1986
     43  NE2       55.2490   20.6730   52.9340 N.ar   43  HIS43      -0.2212
     44  N         58.8510   26.7080   49.3980 N.3    45  LYS45      -0.1245
     45  CA        59.3680   28.0360   49.0710 C.3    45  LYS45       0.1561
     46  C         59.2160   28.3800   47.5880 C.2    45  LYS45       0.2260
     47  O         60.1860   28.7600   46.9190 O.2    45  LYS45      -0.2867
     48  CB        60.8300   28.1640   49.5050 C.3    45  LYS45       0.0271
     49  CG        61.0290   28.3870   50.9960 C.3    45  LYS45       0.0035
     50  CD        62.5030   28.6000   51.3390 C.3    45  LYS45       0.0206
     51  CE        63.3490   27.3590   51.0510 C.3    45  LYS45       0.1093
     52  NZ        63.0390   26.2400   51.9840 N.3    45  LYS45      -0.1314
     53  N         46.3880   23.0390   47.1360 N.3   111  TRP111     -0.1227
     54  CA        45.6450   23.5660   48.2740 C.3   111  TRP111      0.1737
     55  C         46.5320   24.3630   49.2150 C.2   111  TRP111      0.2595
     56  O         46.0970   25.3640   49.7710 O.2   111  TRP111     -0.2718
     57  CB        44.9790   22.4280   49.0350 C.3   111  TRP111      0.0564
     58  CG        44.4610   22.7830   50.4000 C.ar  111  TRP111      0.0003
     59  CD1       44.9960   22.4110   51.6010 C.ar  111  TRP111      0.0946
     60  CD2       43.2840   23.5450   50.7080 C.ar  111  TRP111      0.0152
     61  NE1       44.2310   22.8960   52.6400 N.ar  111  TRP111     -0.2442
     62  CE2       43.1750   23.5960   52.1210 C.ar  111  TRP111      0.0810
     63  CE3       42.3130   24.1880   49.9330 C.ar  111  TRP111      0.0012
     64  CZ2       42.1340   24.2710   52.7710 C.ar  111  TRP111      0.0191
     65  CZ3       41.2750   24.8650   50.5820 C.ar  111  TRP111      0.0001
     66  CH2       41.2000   24.9020   51.9870 C.ar  111  TRP111      0.0015
     67  N         47.7730   23.9190   49.3870 N.am  112  GLU112     -0.1979
     68  CA        48.6940   24.5680   50.3090 C.3   112  GLU112      0.1602
     69  C         49.2950   25.8580   49.7300 C.2   112  GLU112      0.2287
     70  O         49.8040   26.7070   50.4800 O.2   112  GLU112     -0.2864
     71  CB        49.8090   23.6050   50.7120 C.3   112  GLU112      0.0415
     72  CG        49.3490   22.2820   51.3040 C.3   112  GLU112      0.1163
     73  CD        50.5270   21.3920   51.7080 C.2   112  GLU112      0.3649
     74  OE1       51.6840   21.8710   51.6690 O.co2 112  GLU112     -0.2457
     75  OE2       50.3050   20.2130   52.0640 O.co2 112  GLU112     -0.2457
     76  N         48.5860   29.8430   51.1020 N.3   115  SER115     -0.1217
     77  CA        49.6170   30.8700   51.0860 C.3   115  SER115      0.1889
     78  C         49.1780   32.1970   50.4390 C.2   115  SER115      0.2288
     79  O         49.6970   33.2540   50.7820 O.2   115  SER115     -0.2866
     80  CB        50.8670   30.3350   50.4070 C.3   115  SER115      0.2089
     81  OG        51.9610   31.1800   50.6750 O.3   115  SER115     -0.2183
     82  N         47.0020   34.0080   52.9790 N.3   118  ALA118     -0.1245
     83  CA        48.0000   34.5120   53.9000 C.3   118  ALA118      0.1562
     84  C         48.5750   35.8340   53.4180 C.2   118  ALA118      0.2260
     85  O         48.6060   36.8110   54.1520 O.2   118  ALA118     -0.2867
     86  CB        49.1000   33.4900   54.0540 C.3   118  ALA118      0.0290
@<TRIPOS>BOND
     1    47    46    2
     2    53    54    1
     3    46    45    1
     4    54    57    1
     5    54    55    1
     6    57    58    1
     7    45    44    1
     8    45    48    1
     9    33    31   ar
    10    55    67   am
    11    55    56    2
    12    37    36    2
    13    32    31   ar
    14    67    68    1
    15    48    49    1
    16    69    68    1
    17    69    70    2
    18    31    30    1
    19    63    65   ar
    20    63    60   ar
    21    36    35    1
    22    68    71    1
    23    58    60   ar
    24    58    59   ar
    25    80    81    1
    26    80    77    1
    27    78    79    2
    28    78    77    1
    29    65    66   ar
    30    60    62   ar
    31    71    72    1
    32    49    50    1
    33    51    50    1
    34    51    52    1
    35    77    76    1
    36    30    27    1
    37    72    73    1
    38    29    28    2
    39    59    61   ar
    40    28    34   am
    41    28    27    1
    42    35    38    1
    43    35    34    1
    44    74    73   ar
    45    73    75   ar
    46    38    39    1
    47    27    26    1
    48    66    64   ar
    49    18    16    1
    50    62    61   ar
    51    62    64   ar
    52    39    41   ar
    53    39    40   ar
    54    41    43   ar
    55    40    42   ar
    56     1     2    1
    57    43    42   ar
    58    82    83    1
    59    22    21    2
    60    26    21   am
    61    84    83    1
    62    84    85    2
    63    16    17    1
    64    16    13    1
    65    15    14    2
    66    21    20    1
    67    12    13    1
    68    12     3   am
    69     2     3    1
    70     2     5    1
    71    83    86    1
    72     6     5    1
    73     6     7    1
    74    13    14    1
    75    14    19   am
    76     3     4    2
    77     7     8    1
    78    20    19    1
    79    20    23    1
    80    19    25    1
    81    23    24    1
    82     8     9    2
    83    25    24    1
    84    11     9    1
    85     9    10    1
