@<TRIPOS>MOLECULE
tmp/3k6hB00.pdb
 115 113 0 0 0
SMALL
GASTEIGER

@<TRIPOS>ATOM
      1  N         42.5900   46.2910   64.9340 N.3    12  ARG12      -0.1231
      2  CA        42.6950   46.1860   63.4770 C.3    12  ARG12       0.1694
      3  C         41.3210   46.1600   62.7920 C.2    12  ARG12       0.2592
      4  O         40.5320   45.2440   63.0150 O.2    12  ARG12      -0.2718
      5  CB        43.4850   44.9270   63.1350 C.3    12  ARG12       0.0321
      6  CG        44.1940   44.9180   61.7960 C.3    12  ARG12       0.0489
      7  CD        44.4440   43.4710   61.3020 C.3    12  ARG12       0.2205
      8  NE        43.1990   42.7310   61.1000 N.pl3  12  ARG12      -0.0865
      9  CZ        42.1950   43.1540   60.3260 C.cat  12  ARG12       0.5346
     10  NH1       42.2800   44.3170   59.6750 N.pl3  12  ARG12       0.1354
     11  NH2       41.0990   42.4150   60.1980 N.pl3  12  ARG12       0.1354
     12  N         41.0220   47.1750   61.9810 N.am   13  ARG13      -0.1966
     13  CA        39.7550   47.2040   61.2420 C.3    13  ARG13       0.1729
     14  C         39.9180   47.6950   59.8210 C.2    13  ARG13       0.2617
     15  O         40.5530   48.7280   59.5890 O.2    13  ARG13      -0.2715
     16  CB        38.7050   48.0720   61.9300 C.3    13  ARG13       0.0348
     17  CG        37.6200   47.2550   62.5810 C.3    13  ARG13       0.0492
     18  CD        36.2400   47.4690   61.9840 C.3    13  ARG13       0.2205
     19  NE        36.0110   46.6600   60.8020 N.pl3  13  ARG13      -0.0865
     20  CZ        34.8240   46.5190   60.2260 C.cat  13  ARG13       0.5346
     21  NH1       34.6940   45.7740   59.1330 N.pl3  13  ARG13       0.1354
     22  NH2       33.7690   47.1330   60.7470 N.pl3  13  ARG13       0.1354
     23  N         39.3320   46.9580   58.8780 N.am   14  SER14      -0.1936
     24  CA        39.2890   47.3900   57.4910 C.3    14  SER14       0.2055
     25  C         38.4350   48.6410   57.4140 C.2    14  SER14       0.2644
     26  O         37.4080   48.7430   58.0800 O.2    14  SER14      -0.2714
     27  CB        38.7070   46.2940   56.5850 C.3    14  SER14       0.2130
     28  OG        39.7110   45.4330   56.0520 O.3    14  SER14      -0.2179
     29  N         38.8780   49.6160   56.6370 N.am   15  THR15      -0.1937
     30  CA        38.0170   50.7350   56.3090 C.3    15  THR15       0.2013
     31  C         37.7380   50.5630   54.8260 C.2    15  THR15       0.2484
     32  O         38.6250   50.1160   54.0850 O.2    15  THR15      -0.2729
     33  CB        38.6400   52.1290   56.6520 C.3    15  THR15       0.1807
     34  OG1       38.8590   52.8800   55.4490 O.3    15  THR15      -0.2208
     35  CG2       39.9570   52.0140   57.5200 C.3    15  THR15       0.0379
     36  N         36.4890   50.8460   54.4010 N.am   16  PRO16      -0.2726
     37  CA        36.0520   50.5320   53.0310 C.3    16  PRO16       0.1402
     38  C         36.7560   51.3730   51.9810 C.2    16  PRO16       0.2269
     39  O         37.1690   52.4960   52.2720 O.2    16  PRO16      -0.2865
     40  CB        34.5530   50.8410   53.0570 C.3    16  PRO16       0.0296
     41  CG        34.1800   50.7060   54.4870 C.3    16  PRO16       0.0237
     42  CD        35.3550   51.2430   55.2500 C.3    16  PRO16       0.0939
     43  N         41.4510   48.0340   52.2630 N.3   135  ASN135     -0.1225
     44  CA        40.2570   47.2190   52.1250 C.3   135  ASN135      0.1785
     45  C         40.5030   46.1100   51.1080 C.2   135  ASN135      0.2597
     46  O         41.0180   46.3520   50.0190 O.2   135  ASN135     -0.2718
     47  CB        39.0500   48.0840   51.7360 C.3   135  ASN135      0.1169
     48  CG        37.7510   47.3110   51.7280 C.2   135  ASN135      0.2627
     49  OD1       36.7810   47.7160   51.0790 O.2   135  ASN135     -0.2716
     50  ND2       37.7220   46.1870   52.4490 N.am  135  ASN135     -0.0877
     51  N         40.1380   44.8910   51.4860 N.am  136  TRP136     -0.1962
     52  CA        40.3230   43.7250   50.6450 C.3   136  TRP136      0.1771
     53  C         39.0420   43.4280   49.8540 C.2   136  TRP136      0.2619
     54  O         38.1160   42.7970   50.3600 O.2   136  TRP136     -0.2715
     55  CB        40.7010   42.5500   51.5410 C.3   136  TRP136      0.0590
     56  CG        40.9850   41.2450   50.8470 C.ar  136  TRP136      0.0006
     57  CD1       40.8330   40.9560   49.5180 C.ar  136  TRP136      0.0946
     58  CD2       41.4650   40.0400   51.4690 C.ar  136  TRP136      0.0152
     59  NE1       41.1980   39.6510   49.2790 N.ar  136  TRP136     -0.2442
     60  CE2       41.5880   39.0690   50.4560 C.ar  136  TRP136      0.0810
     61  CE3       41.8040   39.6940   52.7840 C.ar  136  TRP136      0.0012
     62  CZ2       42.0350   37.7750   50.7170 C.ar  136  TRP136      0.0191
     63  CZ3       42.2520   38.4070   53.0400 C.ar  136  TRP136      0.0001
     64  CH2       42.3620   37.4640   52.0120 C.ar  136  TRP136      0.0015
     65  N         38.9810   43.8960   48.6150 N.am  137  LEU137     -0.1963
     66  CA        37.8190   43.6320   47.7680 C.3   137  LEU137      0.1728
     67  C         38.1200   42.6050   46.7020 C.2   137  LEU137      0.2617
     68  O         39.2760   42.3410   46.3920 O.2   137  LEU137     -0.2715
     69  CB        37.3380   44.9120   47.0890 C.3   137  LEU137      0.0311
     70  CG        36.3720   45.8040   47.8750 C.3   137  LEU137      0.0022
     71  CD1       36.4660   45.5250   49.3550 C.3   137  LEU137      0.0001
     72  CD2       36.6330   47.2730   47.5730 C.3   137  LEU137      0.0001
     73  N         37.0580   42.0140   46.1670 N.am  138  THR138     -0.1937
     74  CA        37.0980   41.1850   44.9600 C.3   138  THR138      0.2028
     75  C         35.6730   41.1630   44.4520 C.2   138  THR138      0.2642
     76  O         34.8100   40.4910   45.0210 O.2   138  THR138     -0.2714
     77  CB        37.5080   39.7230   45.2300 C.3   138  THR138      0.1808
     78  OG1       36.4500   39.0350   45.9090 O.3   138  THR138     -0.2208
     79  CG2       38.7810   39.6380   46.0580 C.3   138  THR138      0.0379
     80  N         35.3950   41.9190   43.4060 N.am  139  GLU139     -0.1976
     81  CA        34.0100   42.0530   43.0030 C.3   139  GLU139      0.1602
     82  C         33.7940   41.2750   41.7020 C.2   139  GLU139      0.2287
     83  O         34.4310   40.2350   41.5140 O.2   139  GLU139     -0.2864
     84  CB        33.6270   43.5320   42.9890 C.3   139  GLU139      0.0415
     85  CG        33.6740   44.0880   44.4330 C.3   139  GLU139      0.1163
     86  CD        33.7920   45.6150   44.5650 C.2   139  GLU139      0.3649
     87  OE1       34.4610   46.2360   43.7010 O.co2 139  GLU139     -0.2457
     88  OE2       33.2310   46.1740   45.5600 O.co2 139  GLU139     -0.2457
     89  N         43.5300   36.6510   43.9340 N.3   160  ALA160     -0.1245
     90  CA        43.3980   36.5240   45.3790 C.3   160  ALA160      0.1562
     91  C         42.5720   37.6680   45.9500 C.2   160  ALA160      0.2260
     92  O         41.7530   37.4700   46.8410 O.2   160  ALA160     -0.2867
     93  CB        44.7740   36.4890   46.0230 C.3   160  ALA160      0.0290
     94  N         32.9010   45.6920   64.0160 N.3   175  ARG175     -0.1245
     95  CA        31.7820   44.8380   63.6690 C.3   175  ARG175      0.1563
     96  C         31.8950   43.6230   64.5470 C.2   175  ARG175      0.2260
     97  O         32.9850   43.3000   65.0120 O.2   175  ARG175     -0.2867
     98  CB        31.8820   44.3950   62.2080 C.3   175  ARG175      0.0307
     99  CG        33.2960   43.9720   61.8010 C.3   175  ARG175      0.0489
    100  CD        33.3240   43.3370   60.4270 C.3   175  ARG175      0.2205
    101  NE        33.2370   41.8840   60.4840 N.pl3 175  ARG175     -0.0865
    102  CZ        34.2270   41.0780   60.1250 C.cat 175  ARG175      0.5346
    103  NH1       34.0850   39.7570   60.2050 N.pl3 175  ARG175      0.1354
    104  NH2       35.3590   41.6050   59.6860 N.pl3 175  ARG175      0.1354
    105  N         32.2170   39.9010   65.9190 N.3   177  ARG177     -0.1245
    106  CA        33.0770   38.7850   65.5840 C.3   177  ARG177      0.1563
    107  C         32.4490   37.5010   66.1080 C.2   177  ARG177      0.2260
    108  O         31.4560   37.5470   66.8550 O.2   177  ARG177     -0.2867
    109  CB        34.4600   38.9860   66.1720 C.3   177  ARG177      0.0307
    110  CG        35.0560   40.3330   65.8370 C.3   177  ARG177      0.0489
    111  CD        35.4020   40.4440   64.3810 C.3   177  ARG177      0.2205
    112  NE        36.1570   41.6570   64.0930 N.pl3 177  ARG177     -0.0865
    113  CZ        36.7720   41.8720   62.9380 C.cat 177  ARG177      0.5346
    114  NH1       36.7140   40.9420   61.9940 N.pl3 177  ARG177      0.1354
    115  NH2       37.4380   42.9970   62.7260 N.pl3 177  ARG177      0.1354
@<TRIPOS>BOND
     1    83    82    2
     2    82    81    1
     3    84    81    1
     4    84    85    1
     5    81    80    1
     6    80    75   am
     7    87    86   ar
     8    89    90    1
     9    85    86    1
    10    75    74    1
    11    75    76    2
    12    86    88   ar
    13    74    77    1
    14    74    73    1
    15    77    78    1
    16    77    79    1
    17    90    91    1
    18    90    93    1
    19    91    92    2
    20    73    67   am
    21    68    67    2
    22    67    66    1
    23    69    66    1
    24    69    70    1
    25    72    70    1
    26    66    65    1
    27    70    71    1
    28    65    53   am
    29    59    57   ar
    30    59    60   ar
    31    57    56   ar
    32    53    54    2
    33    53    52    1
    34    46    45    2
    35    60    62   ar
    36    60    58   ar
    37    52    51    1
    38    52    55    1
    39    62    64   ar
    40    56    58   ar
    41    56    55    1
    42    49    48    2
    43    45    51   am
    44    45    44    1
    45    58    61   ar
    46    48    47    1
    47    48    50   am
    48    47    44    1
    49    38    39    2
    50    38    37    1
    51    64    63   ar
    52    44    43    1
    53    61    63   ar
    54    37    40    1
    55    37    36    1
    56    40    41    1
    57    32    31    2
    58    36    31   am
    59    36    42    1
    60    41    42    1
    61    31    30    1
    62    34    33    1
    63    28    27    1
    64    30    29    1
    65    30    33    1
    66    27    24    1
    67    29    25   am
    68    33    35    1
    69    25    24    1
    70    25    26    2
    71    24    23    1
    72    23    14   am
    73    21    20    1
    74    15    14    2
    75    10     9    1
    76   104   102    1
    77    14    13    1
    78   102   103    1
    79   102   101    2
    80    11     9    1
    81    20    22    1
    82    20    19    2
    83     9     8    2
    84   100   101    1
    85   100    99    1
    86    19    18    1
    87     8     7    1
    88    13    16    1
    89    13    12    1
    90     7     6    1
    91     6     5    1
    92    99    98    1
    93    16    17    1
    94    12     3   am
    95    18    17    1
    96   114   113    1
    97    98    95    1
    98   115   113    1
    99     3     4    2
   100     3     2    1
   101   113   112    2
   102     5     2    1
   103     2     1    1
   104    95    94    1
   105    95    96    1
   106   112   111    1
   107   111   110    1
   108    96    97    2
   109   106   105    1
   110   106   107    1
   111   106   109    1
   112   110   109    1
   113   107   108    2
