@<TRIPOS>MOLECULE
tmp/3k6lA00.pdb
 140 134 0 0 0
SMALL
GASTEIGER

@<TRIPOS>ATOM
      1  N          2.8450    7.7400  -27.1970 N.3    42  GLU42      -0.1231
      2  CA         1.7760    8.7430  -27.2600 C.3    42  GLU42       0.1699
      3  C          1.3400    9.0860  -25.8450 C.2    42  GLU42       0.2593
      4  O          1.2200    8.2050  -25.0050 O.2    42  GLU42      -0.2718
      5  CB         0.5750    8.2400  -28.0680 C.3    42  GLU42       0.0402
      6  CG         0.7470    8.2940  -29.5920 C.3    42  GLU42       0.1161
      7  CD        -0.5830    8.1290  -30.3410 C.2    42  GLU42       0.3649
      8  OE1       -0.6470    7.2860  -31.2740 O.co2  42  GLU42      -0.2457
      9  OE2       -1.5630    8.8380  -29.9960 O.co2  42  GLU42      -0.2457
     10  N          1.1050   10.3650  -25.5860 N.am   43  GLY43      -0.1942
     11  CA         0.6680   10.7980  -24.2730 C.3    43  GLY43       0.2014
     12  C          1.1170   12.2140  -24.0090 C.2    43  GLY43       0.2639
     13  O          2.1470   12.6460  -24.5360 O.2    43  GLY43      -0.2714
     14  N          0.3570   12.9300  -23.1840 N.am   44  ILE44      -0.1963
     15  CA         0.6270   14.3340  -22.9000 C.3    44  ILE44       0.1727
     16  C          0.9760   14.5950  -21.4370 C.2    44  ILE44       0.2616
     17  O          1.2730   15.7180  -21.0540 O.2    44  ILE44      -0.2715
     18  CB        -0.5790   15.2410  -23.3320 C.3    44  ILE44       0.0290
     19  CG1       -1.8370   14.8810  -22.5310 C.3    44  ILE44       0.0022
     20  CG2       -0.8280   15.1040  -24.8380 C.3    44  ILE44       0.0023
     21  CD1       -3.0040   15.8850  -22.6560 C.3    44  ILE44       0.0001
     22  N          0.9410   13.5560  -20.6160 N.am   45  GLY45      -0.1955
     23  CA         1.1470   13.7250  -19.1930 C.3    45  GLY45       0.1869
     24  C          1.5690   12.4450  -18.5200 C.2    45  GLY45       0.2309
     25  O          1.4090   11.3510  -19.0560 O.2    45  GLY45      -0.2863
     26  N          2.9820    6.4470  -11.7480 N.3    50  GLN50      -0.1245
     27  CA         2.9170    5.5650  -12.8950 C.3    50  GLN50       0.1566
     28  C          4.2520    4.8990  -13.2360 C.2    50  GLN50       0.2260
     29  O          4.2760    3.8830  -13.9490 O.2    50  GLN50      -0.2867
     30  CB         2.4120    6.3330  -14.1160 C.3    50  GLN50       0.0367
     31  CG         0.9150    6.5830  -14.1310 C.3    50  GLN50       0.0905
     32  CD         0.5150    7.4450  -15.3000 C.2    50  GLN50       0.2608
     33  OE1        0.6930    8.6680  -15.2670 O.2    50  GLN50      -0.2717
     34  NE2       -0.0380    6.8220  -16.3460 N.am   50  GLN50      -0.0878
     35  N        -14.0410   13.7250  -21.9350 N.3    86  ILE86      -0.1231
     36  CA       -13.5320   13.1650  -23.1620 C.3    86  ILE86       0.1692
     37  C        -13.2390   11.6980  -22.9420 C.2    86  ILE86       0.2592
     38  O        -13.1250   11.2480  -21.8030 O.2    86  ILE86      -0.2718
     39  CB       -12.2610   13.9070  -23.6390 C.3    86  ILE86       0.0266
     40  CG1      -11.1710   13.8280  -22.5630 C.3    86  ILE86       0.0019
     41  CG2      -12.6030   15.3610  -23.9970 C.3    86  ILE86       0.0020
     42  CD1       -9.7830   14.0380  -23.0740 C.3    86  ILE86       0.0001
     43  N        -13.1110   10.9570  -24.0320 N.am   87  GLU87      -0.1966
     44  CA       -12.6070    9.5890  -23.9670 C.3    87  GLU87       0.1733
     45  C        -11.1050    9.5470  -23.6970 C.2    87  GLU87       0.2616
     46  O        -10.2760    9.6890  -24.6000 O.2    87  GLU87      -0.2715
     47  CB       -12.9100    8.8510  -25.2450 C.3    87  GLU87       0.0429
     48  CG       -14.3510    8.5550  -25.4080 C.3    87  GLU87       0.1163
     49  CD       -14.5470    7.2770  -26.1550 C.2    87  GLU87       0.3649
     50  OE1      -13.6820    6.9440  -26.9990 O.co2  87  GLU87      -0.2457
     51  OE2      -15.5600    6.6060  -25.8930 O.co2  87  GLU87      -0.2457
     52  N        -10.7760    9.3300  -22.4370 N.am   88  GLU88      -0.1963
     53  CA        -9.4090    9.3160  -21.9790 C.3    88  GLU88       0.1733
     54  C         -8.8430    7.9240  -22.1790 C.2    88  GLU88       0.2617
     55  O         -9.5280    6.9310  -21.9380 O.2    88  GLU88      -0.2715
     56  CB        -9.3790    9.7000  -20.5000 C.3    88  GLU88       0.0429
     57  CG        -9.9440   11.0860  -20.2100 C.3    88  GLU88       0.1163
     58  CD        -9.8240   11.4870  -18.7540 C.2    88  GLU88       0.3649
     59  OE1      -10.3270   12.5800  -18.4030 O.co2  88  GLU88      -0.2457
     60  OE2       -9.2250   10.7250  -17.9540 O.co2  88  GLU88      -0.2457
     61  N         -7.6110    7.8590  -22.6740 N.am   89  GLY89      -0.1940
     62  CA        -6.8190    6.6410  -22.6080 C.3    89  GLY89       0.2014
     63  C         -5.7750    6.8990  -21.5410 C.2    89  GLY89       0.2639
     64  O         -5.4060    8.0470  -21.2840 O.2    89  GLY89      -0.2714
     65  N         -5.3250    5.8470  -20.8830 N.am   90  CYS90      -0.1953
     66  CA        -4.3120    6.0040  -19.8600 C.3    90  CYS90       0.1843
     67  C         -3.1960    5.0560  -20.1900 C.2    90  CYS90       0.2625
     68  O         -3.4560    3.9120  -20.5740 O.2    90  CYS90      -0.2714
     69  CB        -4.8720    5.6970  -18.4720 C.3    90  CYS90       0.0997
     70  SG        -3.6650    5.9270  -17.0960 S.3    90  CYS90      -0.0797
     71  N         -1.9570    5.5310  -20.0400 N.am   91  LEU91      -0.1977
     72  CA        -0.7750    4.6890  -20.2140 C.3    91  LEU91       0.1596
     73  C         -0.8380    3.4680  -19.3230 C.2    91  LEU91       0.2287
     74  O         -0.3610    2.4030  -19.6800 O.2    91  LEU91      -0.2864
     75  CB         0.4940    5.4690  -19.8620 C.3    91  LEU91       0.0297
     76  CG         1.3270    6.1780  -20.9220 C.3    91  LEU91       0.0022
     77  CD1        2.7160    6.4240  -20.3290 C.3    91  LEU91       0.0001
     78  CD2        1.4380    5.3610  -22.2220 C.3    91  LEU91       0.0001
     79  N        -10.4170    2.9190  -23.6350 N.3    97  ARG97      -0.1245
     80  CA       -10.8030    4.3260  -23.6310 C.3    97  ARG97       0.1563
     81  C        -12.1620    4.4360  -22.9530 C.2    97  ARG97       0.2260
     82  O        -12.9910    3.5240  -23.0590 O.2    97  ARG97      -0.2867
     83  CB       -10.8710    4.9060  -25.0520 C.3    97  ARG97       0.0307
     84  CG        -9.5940    4.7670  -25.9020 C.3    97  ARG97       0.0489
     85  CD        -8.5960    5.9040  -25.6830 C.3    97  ARG97       0.2205
     86  NE        -7.3800    5.7140  -26.4820 N.pl3  97  ARG97      -0.0865
     87  CZ        -6.9890    6.4990  -27.4860 C.cat  97  ARG97       0.5346
     88  NH1       -5.8720    6.2120  -28.1430 N.pl3  97  ARG97       0.1354
     89  NH2       -7.6940    7.5710  -27.8320 N.pl3  97  ARG97       0.1354
     90  N         -8.1020   20.5470  -22.7610 N.3   125  LEU125     -0.1245
     91  CA        -7.3960   19.3000  -22.4880 C.3   125  LEU125      0.1561
     92  C         -6.4410   19.4110  -21.2960 C.2   125  LEU125      0.2260
     93  O         -6.2920   18.4630  -20.5180 O.2   125  LEU125     -0.2867
     94  CB        -6.6600   18.8220  -23.7380 C.3   125  LEU125      0.0270
     95  CG        -5.9720   17.4430  -23.7270 C.3   125  LEU125      0.0019
     96  CD1       -6.8640   16.3110  -23.1990 C.3   125  LEU125      0.0001
     97  CD2       -5.5080   17.1240  -25.1060 C.3   125  LEU125      0.0001
     98  N         -8.1980   18.8440  -18.0690 N.3   128  ILE128     -0.1231
     99  CA        -8.4380   17.4000  -18.0020 C.3   128  ILE128      0.1692
    100  C         -7.1190   16.6670  -17.6510 C.2   128  ILE128      0.2592
    101  O         -7.0670   15.9250  -16.6670 O.2   128  ILE128     -0.2718
    102  CB        -9.1030   16.8720  -19.3050 C.3   128  ILE128      0.0266
    103  CG1      -10.5690   17.3510  -19.4030 C.3   128  ILE128      0.0019
    104  CG2       -9.0600   15.3460  -19.3830 C.3   128  ILE128      0.0020
    105  CD1      -11.1790   17.2170  -20.8380 C.3   128  ILE128      0.0001
    106  N         -6.0570   16.9220  -18.4200 N.am  129  CYS129     -0.1970
    107  CA        -4.7260   16.3380  -18.1270 C.3   129  CYS129      0.1712
    108  C         -4.3130   16.4960  -16.6810 C.2   129  CYS129      0.2296
    109  O         -4.0200   15.5140  -16.0010 O.2   129  CYS129     -0.2864
    110  CB        -3.6260   16.9250  -19.0140 C.3   129  CYS129      0.0983
    111  SG        -2.0520   16.0270  -18.7430 S.3   129  CYS129     -0.0798
    112  N         -6.4570   14.4320  -14.3540 N.3   132  HIS132     -0.1226
    113  CA        -6.1240   13.0240  -14.6070 C.3   132  HIS132      0.1752
    114  C         -4.8000   12.6100  -13.8960 C.2   132  HIS132      0.2595
    115  O         -4.7360   11.5590  -13.2660 O.2   132  HIS132     -0.2718
    116  CB        -6.0660   12.7720  -16.1200 C.3   132  HIS132      0.0759
    117  CG        -5.6110   11.3970  -16.5060 C.ar  132  HIS132      0.0818
    118  ND1       -6.4650   10.4460  -17.0160 N.ar  132  HIS132     -0.2268
    119  CD2       -4.3810   10.8240  -16.4830 C.ar  132  HIS132      0.1154
    120  CE1       -5.7880    9.3390  -17.2750 C.ar  132  HIS132      0.1986
    121  NE2       -4.5190    9.5470  -16.9670 N.ar  132  HIS132     -0.2212
    122  N         -3.7720   13.4470  -13.9840 N.am  133  GLU133     -0.1979
    123  CA        -2.4720   13.1390  -13.3510 C.3   133  GLU133      0.1602
    124  C         -2.4820   13.3410  -11.8460 C.2   133  GLU133      0.2287
    125  O         -1.8120   12.6050  -11.1180 O.2   133  GLU133     -0.2864
    126  CB        -1.3180   13.9310  -13.9660 C.3   133  GLU133      0.0415
    127  CG        -1.2160   13.9270  -15.5070 C.3   133  GLU133      0.1163
    128  CD        -1.0870   12.5510  -16.1490 C.2   133  GLU133      0.3649
    129  OE1       -0.8540   11.5420  -15.4560 O.co2 133  GLU133     -0.2457
    130  OE2       -1.2380   12.4700  -17.3870 O.co2 133  GLU133     -0.2457
    131  N         -3.8720   10.2570  -10.4110 N.3   136  HIS136     -0.1241
    132  CA        -2.8020    9.2380  -10.2970 C.3   136  HIS136      0.1621
    133  C         -2.0140    9.3010   -9.0070 C.2   136  HIS136      0.2264
    134  O         -1.6410    8.2650   -8.4740 O.2   136  HIS136     -0.2867
    135  CB        -1.8050    9.3580  -11.4390 C.3   136  HIS136      0.0745
    136  CG        -2.2010    8.6250  -12.6800 C.ar  136  HIS136      0.0817
    137  ND1       -2.3550    7.2580  -12.7190 N.ar  136  HIS136     -0.2268
    138  CD2       -2.4030    9.0670  -13.9440 C.ar  136  HIS136      0.1154
    139  CE1       -2.6710    6.8940  -13.9540 C.ar  136  HIS136      0.1986
    140  NE2       -2.7020    7.9760  -14.7170 N.ar  136  HIS136     -0.2212
@<TRIPOS>BOND
     1     8     7   ar
     2     7     9   ar
     3     7     6    1
     4     6     5    1
     5    88    87    1
     6     5     2    1
     7    89    87    1
     8    87    86    2
     9     2     1    1
    10     2     3    1
    11    50    49   ar
    12    86    85    1
    13    49    51   ar
    14    49    48    1
    15    84    85    1
    16    84    83    1
    17     3    10   am
    18     3     4    2
    19    10    11    1
    20    48    47    1
    21    47    44    1
    22    97    95    1
    23    83    80    1
    24    20    18    1
    25    46    45    2
    26    13    12    2
    27    11    12    1
    28    43    44    1
    29    43    37   am
    30    12    14   am
    31    41    39    1
    32    44    45    1
    33    94    95    1
    34    94    91    1
    35    95    96    1
    36    45    52   am
    37    39    36    1
    38    39    40    1
    39    79    80    1
    40    80    81    1
    41    18    15    1
    42    18    19    1
    43    14    15    1
    44    36    37    1
    45    36    35    1
    46    42    40    1
    47    82    81    2
    48    37    38    2
    49    15    16    1
    50    90    91    1
    51    61    62    1
    52    61    54   am
    53    21    19    1
    54    62    63    1
    55    91    92    1
    56    52    53    1
    57    78    76    1
    58    54    53    1
    59    54    55    2
    60    53    56    1
    61    63    64    2
    62    63    65   am
    63    16    17    2
    64    16    22   am
    65    92    93    2
    66    76    77    1
    67    76    75    1
    68    65    66    1
    69   105   103    1
    70    22    23    1
    71    68    67    2
    72    56    57    1
    73    72    71    1
    74    72    75    1
    75    72    73    1
    76    57    58    1
    77    67    71   am
    78    67    66    1
    79    66    69    1
    80    74    73    2
    81   103   102    1
    82   104   102    1
    83   102    99    1
    84    23    24    1
    85    25    24    2
    86   110   111    1
    87   110   107    1
    88    58    59   ar
    89    58    60   ar
    90    69    70    1
    91   106   107    1
    92   106   100   am
    93   107   108    1
    94    98    99    1
    95    99   100    1
    96   100   101    2
    97   130   128   ar
    98   120   118   ar
    99   120   121   ar
   100   118   117   ar
   101   121   119   ar
   102   108   109    2
   103   117   119   ar
   104   117   116    1
   105    34    32   am
   106   128   127    1
   107   128   129   ar
   108   116   113    1
   109   127   126    1
   110    32    33    2
   111    32    31    1
   112   140   139   ar
   113   140   138   ar
   114   113   112    1
   115   113   114    1
   116    31    30    1
   117    30    27    1
   118   122   114   am
   119   122   123    1
   120   126   123    1
   121   139   137   ar
   122    29    28    2
   123   138   136   ar
   124   114   115    2
   125   123   124    1
   126    28    27    1
   127    27    26    1
   128   137   136   ar
   129   136   135    1
   130   124   125    2
   131   135   132    1
   132   131   132    1
   133   132   133    1
   134   133   134    2
