@<TRIPOS>MOLECULE
tmp/3k6pA00.pdb
 175 161 0 0 0
SMALL
GASTEIGER

@<TRIPOS>ATOM
      1  N         34.1430   -6.8810   43.5410 N.3    35  VAL35      -0.1245
      2  CA        34.3770   -6.9680   42.0990 C.3    35  VAL35       0.1561
      3  C         33.1180   -6.6740   41.2870 C.2    35  VAL35       0.2260
      4  O         33.1630   -5.9530   40.2840 O.2    35  VAL35      -0.2867
      5  CB        34.9170   -8.3360   41.6690 C.3    35  VAL35       0.0252
      6  CG1       35.2260   -8.3160   40.1890 C.3    35  VAL35       0.0019
      7  CG2       36.1600   -8.6780   42.4550 C.3    35  VAL35       0.0019
      8  N         32.0110   -2.9770   41.2790 N.3    38  LEU38      -0.1231
      9  CA        32.8590   -2.1990   40.3810 C.3    38  LEU38       0.1693
     10  C         32.5160   -2.4680   38.9090 C.2    38  LEU38       0.2592
     11  O         32.5020   -1.5460   38.0890 O.2    38  LEU38      -0.2718
     12  CB        34.3320   -2.4860   40.6690 C.3    38  LEU38       0.0284
     13  CG        34.9400   -1.8010   41.8900 C.3    38  LEU38       0.0019
     14  CD1       36.3320   -2.3510   42.1860 C.3    38  LEU38       0.0001
     15  CD2       35.0100   -0.3030   41.6490 C.3    38  LEU38       0.0001
     16  N         32.2250   -3.7220   38.5790 N.am   39  CYS39      -0.1970
     17  CA        31.8070   -4.0740   37.2200 C.3    39  CYS39       0.1712
     18  C         30.5380   -3.3420   36.8150 C.2    39  CYS39       0.2296
     19  O         30.4820   -2.7290   35.7410 O.2    39  CYS39      -0.2864
     20  CB        31.5510   -5.5750   37.0980 C.3    39  CYS39       0.0983
     21  SG        33.0340   -6.5540   37.1090 S.3    39  CYS39      -0.0798
     22  N         29.3920   -0.6570   38.1550 N.3    41  LEU41      -0.1231
     23  CA        29.7010    0.7720   38.0800 C.3    41  LEU41       0.1693
     24  C         30.3660    1.0850   36.7380 C.2    41  LEU41       0.2592
     25  O         30.0010    2.0580   36.0700 O.2    41  LEU41      -0.2718
     26  CB        30.5970    1.2130   39.2390 C.3    41  LEU41       0.0284
     27  CG        31.1410    2.6390   39.1390 C.3    41  LEU41       0.0019
     28  CD1       30.0140    3.6830   39.0960 C.3    41  LEU41       0.0001
     29  CD2       32.1260    2.9240   40.2770 C.3    41  LEU41       0.0001
     30  N         31.3150    0.2290   36.3380 N.am   42  PHE42      -0.1976
     31  CA        32.0440    0.4080   35.0820 C.3    42  PHE42       0.1639
     32  C         31.1190    0.5300   33.8790 C.2    42  PHE42       0.2290
     33  O         31.3320    1.3860   33.0270 O.2    42  PHE42      -0.2864
     34  CB        33.0190   -0.7420   34.8570 C.3    42  PHE42       0.0560
     35  CG        34.0750   -0.4520   33.8360 C.ar   42  PHE42      -0.0200
     36  CD1       34.1410   -1.1800   32.6590 C.ar   42  PHE42      -0.0042
     37  CD2       35.0250    0.5330   34.0610 C.ar   42  PHE42      -0.0042
     38  CE1       35.1290   -0.9250   31.7310 C.ar   42  PHE42      -0.0003
     39  CE2       36.0220    0.7890   33.1290 C.ar   42  PHE42      -0.0003
     40  CZ        36.0730    0.0670   31.9680 C.ar   42  PHE42      -0.0000
     41  N         29.6790    3.9100   33.8000 N.3    45  GLU45      -0.1245
     42  CA        30.7070    4.8890   33.4370 C.3    45  GLU45       0.1567
     43  C         30.9620    4.9030   31.9420 C.2    45  GLU45       0.2260
     44  O         31.2680    5.9400   31.3760 O.2    45  GLU45      -0.2867
     45  CB        32.0370    4.6050   34.1560 C.3    45  GLU45       0.0388
     46  CG        32.1090    5.1230   35.5790 C.3    45  GLU45       0.1160
     47  CD        32.0720    6.6490   35.6570 C.2    45  GLU45       0.3649
     48  OE1       32.6880    7.3220   34.7880 O.co2  45  GLU45      -0.2457
     49  OE2       31.4370    7.1730   36.5990 O.co2  45  GLU45      -0.2457
     50  N         39.1910    5.3640   27.9020 N.3    76  MET76      -0.1245
     51  CA        39.7060    4.9560   29.2090 C.3    76  MET76       0.1570
     52  C         40.3810    6.1300   29.9030 C.2    76  MET76       0.2261
     53  O         40.2690    6.2710   31.1210 O.2    76  MET76      -0.2867
     54  CB        40.6600    3.7530   29.1140 C.3    76  MET76       0.0387
     55  CG        41.2140    3.2740   30.4880 C.3    76  MET76       0.0595
     56  SD        39.9340    2.6600   31.6300 S.3    76  MET76      -0.1393
     57  CE        39.6130    1.0410   30.9020 C.3    76  MET76       0.0692
     58  N         37.6200    8.3110   31.3570 N.3    79  LEU79      -0.1231
     59  CA        37.0690    7.6100   32.5110 C.3    79  LEU79       0.1693
     60  C         38.0180    7.7090   33.7030 C.2    79  LEU79       0.2591
     61  O         37.6320    8.1240   34.7970 O.2    79  LEU79      -0.2718
     62  CB        36.8510    6.1360   32.1460 C.3    79  LEU79       0.0284
     63  CG        35.8440    5.3580   32.9890 C.3    79  LEU79       0.0019
     64  CD1       35.2910    4.1910   32.1950 C.3    79  LEU79       0.0001
     65  CD2       36.4850    4.8840   34.2980 C.3    79  LEU79       0.0001
     66  N         39.2720    7.3270   33.4790 N.am   80  VAL80      -0.1980
     67  CA        40.2740    7.3720   34.5340 C.3    80  VAL80       0.1595
     68  C         40.4590    8.7840   35.0850 C.2    80  VAL80       0.2287
     69  O         40.6650    8.9770   36.2930 O.2    80  VAL80      -0.2864
     70  CB        41.6320    6.7880   34.0510 C.3    80  VAL80       0.0276
     71  CG1       42.7820    7.3570   34.8670 C.3    80  VAL80       0.0022
     72  CG2       41.5900    5.2700   34.1470 C.3    80  VAL80       0.0022
     73  N         37.7960    9.3870   37.6910 N.3    83  VAL83      -0.1245
     74  CA        38.1990    8.7390   38.9570 C.3    83  VAL83       0.1561
     75  C         39.2340    9.5670   39.7440 C.2    83  VAL83       0.2260
     76  O         39.1130    9.7650   40.9550 O.2    83  VAL83      -0.2867
     77  CB        38.7940    7.3390   38.7190 C.3    83  VAL83       0.0252
     78  CG1       39.3910    6.7720   40.0310 C.3    83  VAL83       0.0019
     79  CG2       37.7390    6.3610   38.1130 C.3    83  VAL83       0.0019
     80  N         37.5980   12.7350   41.1630 N.3    86  ARG86      -0.1245
     81  CA        36.8290   12.5400   42.3960 C.3    86  ARG86       0.1563
     82  C         37.7350   12.2390   43.6040 C.2    86  ARG86       0.2260
     83  O         37.3280   12.4110   44.7480 O.2    86  ARG86      -0.2867
     84  CB        35.7790   11.4340   42.2240 C.3    86  ARG86       0.0307
     85  CG        34.8570   11.6390   41.0430 C.3    86  ARG86       0.0489
     86  CD        33.7240   10.6060   41.0050 C.3    86  ARG86       0.2205
     87  NE        34.1240    9.3110   40.4670 N.pl3  86  ARG86      -0.0865
     88  CZ        34.3080    9.0540   39.1710 C.cat  86  ARG86       0.5346
     89  NH1       34.1510   10.0210   38.2630 N.pl3  86  ARG86       0.1354
     90  NH2       34.6510    7.8250   38.7740 N.pl3  86  ARG86       0.1354
     91  N         35.8740    5.9220   43.4930 N.3    96  PHE96      -0.1241
     92  CA        35.3200    5.3450   42.2810 C.3    96  PHE96       0.1605
     93  C         33.9070    5.8620   42.0520 C.2    96  PHE96       0.2264
     94  O         33.4640    5.9740   40.9150 O.2    96  PHE96      -0.2867
     95  CB        35.3870    3.8140   42.3460 C.3    96  PHE96       0.0534
     96  CG        36.7760    3.2730   42.1490 C.ar   96  PHE96      -0.0203
     97  CD1       37.5770    2.9470   43.2400 C.ar   96  PHE96      -0.0042
     98  CD2       37.3010    3.1390   40.8770 C.ar   96  PHE96      -0.0042
     99  CE1       38.8640    2.4570   43.0570 C.ar   96  PHE96      -0.0003
    100  CE2       38.5980    2.6540   40.6800 C.ar   96  PHE96      -0.0003
    101  CZ        39.3820    2.3130   41.7710 C.ar   96  PHE96      -0.0000
    102  N         39.7010   -5.7310   45.7100 N.3   110  ALA110     -0.1231
    103  CA        38.5470   -5.6310   44.8160 C.3   110  ALA110      0.1694
    104  C         38.8900   -6.0830   43.4010 C.2   110  ALA110      0.2593
    105  O         38.1240   -5.8650   42.4720 O.2   110  ALA110     -0.2718
    106  CB        37.9740   -4.2060   44.8090 C.3   110  ALA110      0.0304
    107  N         40.0530   -6.6980   43.2410 N.am  111  GLY111     -0.1942
    108  CA        40.4390   -7.2880   41.9730 C.3   111  GLY111      0.2014
    109  C         41.2550   -6.3940   41.0440 C.2   111  GLY111      0.2638
    110  O         41.5310   -6.7810   39.9100 O.2   111  GLY111     -0.2714
    111  N         41.6580   -5.2190   41.5230 N.am  112  LEU112     -0.1977
    112  CA        42.3220   -4.2120   40.6820 C.3   112  LEU112      0.1596
    113  C         43.8450   -4.3730   40.6240 C.2   112  LEU112      0.2287
    114  O         44.5640   -3.5230   40.0570 O.2   112  LEU112     -0.2864
    115  CB        41.9620   -2.8090   41.1790 C.3   112  LEU112      0.0297
    116  CG        40.4670   -2.4890   41.0940 C.3   112  LEU112      0.0022
    117  CD1       40.1130   -1.1510   41.7440 C.3   112  LEU112      0.0001
    118  CD2       40.0560   -2.4830   39.6460 C.3   112  LEU112      0.0001
    119  N         46.5220   -1.5800   40.2650 N.3   115  LEU115     -0.1245
    120  CA        45.9490   -0.3780   39.6780 C.3   115  LEU115      0.1561
    121  C         45.7270    0.6650   40.7720 C.2   115  LEU115      0.2260
    122  O         45.7820    1.8710   40.5120 O.2   115  LEU115     -0.2867
    123  CB        44.6420   -0.6630   38.9290 C.3   115  LEU115      0.0270
    124  CG        44.7440   -1.5200   37.6630 C.3   115  LEU115      0.0019
    125  CD1       43.3580   -1.7630   37.0680 C.3   115  LEU115      0.0001
    126  CD2       45.6850   -0.8880   36.6480 C.3   115  LEU115      0.0001
    127  N         46.7050    4.3710   39.8230 N.3   119  LEU119     -0.1245
    128  CA        45.7160    5.4360   39.8590 C.3   119  LEU119      0.1561
    129  C         46.1070    6.5140   40.8690 C.2   119  LEU119      0.2260
    130  O         46.0390    7.6980   40.5560 O.2   119  LEU119     -0.2867
    131  CB        44.3380    4.8740   40.1710 C.3   119  LEU119      0.0270
    132  CG        43.7460    4.0770   39.0110 C.3   119  LEU119      0.0019
    133  CD1       42.5820    3.2230   39.4810 C.3   119  LEU119      0.0001
    134  CD2       43.3130    5.0340   37.8970 C.3   119  LEU119      0.0001
    135  N         45.5390    0.2170   33.1430 N.3   200  VAL200     -0.1245
    136  CA        44.2290   -0.3370   33.4720 C.3   200  VAL200      0.1561
    137  C         43.8150   -1.3930   32.4390 C.2   200  VAL200      0.2260
    138  O         43.3710   -2.4900   32.7940 O.2   200  VAL200     -0.2867
    139  CB        43.1600    0.7740   33.5630 C.3   200  VAL200      0.0252
    140  CG1       41.7650    0.1680   33.7010 C.3   200  VAL200      0.0019
    141  CG2       43.4660    1.7220   34.7420 C.3   200  VAL200      0.0019
    142  N         43.2550   -5.6970   32.8870 N.3   204  PHE204     -0.1241
    143  CA        42.0500   -6.4670   32.6060 C.3   204  PHE204      0.1605
    144  C         42.2290   -7.4360   31.4390 C.2   204  PHE204      0.2264
    145  O         41.5620   -8.4730   31.3860 O.2   204  PHE204     -0.2867
    146  CB        40.8300   -5.5640   32.4320 C.3   204  PHE204      0.0534
    147  CG        40.3410   -4.9700   33.7270 C.ar  204  PHE204     -0.0203
    148  CD1       39.4650   -5.6780   34.5450 C.ar  204  PHE204     -0.0042
    149  CD2       40.7760   -3.7210   34.1400 C.ar  204  PHE204     -0.0042
    150  CE1       39.0220   -5.1450   35.7410 C.ar  204  PHE204     -0.0003
    151  CE2       40.3360   -3.1690   35.3440 C.ar  204  PHE204     -0.0003
    152  CZ        39.4600   -3.8800   36.1470 C.ar  204  PHE204     -0.0000
    153  N         39.3570  -10.1230   30.1800 N.3   212  VAL212     -0.1245
    154  CA        38.2600   -9.1630   30.2620 C.3   212  VAL212      0.1561
    155  C         38.4440   -8.1590   29.1200 C.2   212  VAL212      0.2260
    156  O         39.1650   -7.1800   29.2730 O.2   212  VAL212     -0.2867
    157  CB        38.2800   -8.4200   31.6180 C.3   212  VAL212      0.0252
    158  CG1       37.0490   -7.5200   31.7740 C.3   212  VAL212      0.0019
    159  CG2       38.3780   -9.4170   32.7720 C.3   212  VAL212      0.0019
    160  N         37.8480   -5.3430   27.3900 N.3   214  MET214     -0.1245
    161  CA        37.1410   -4.0750   27.5060 C.3   214  MET214      0.1570
    162  C         36.9560   -3.3230   26.1860 C.2   214  MET214      0.2261
    163  O         35.9640   -2.6290   26.0230 O.2   214  MET214     -0.2867
    164  CB        37.8120   -3.1860   28.5490 C.3   214  MET214      0.0387
    165  CG        37.7220   -3.7330   29.9500 C.3   214  MET214      0.0595
    166  SD        38.5780   -2.6330   31.0860 S.3   214  MET214     -0.1393
    167  CE        37.7790   -3.0750   32.6290 C.3   214  MET214      0.0692
    168  N         33.8220   -4.8010   24.6970 N.3   217  LEU217     -0.1245
    169  CA        32.7170   -4.2980   25.5040 C.3   217  LEU217      0.1561
    170  C         32.4240   -2.8410   25.1580 C.2   217  LEU217      0.2260
    171  O         31.2670   -2.4620   24.9670 O.2   217  LEU217     -0.2867
    172  CB        33.0160   -4.4220   27.0010 C.3   217  LEU217      0.0270
    173  CG        31.9930   -3.7500   27.9240 C.3   217  LEU217      0.0019
    174  CD1       30.7040   -4.5460   27.9390 C.3   217  LEU217      0.0001
    175  CD2       32.5260   -3.5670   29.3460 C.3   217  LEU217      0.0001
@<TRIPOS>BOND
     1   168   169    1
     2   171   170    2
     3   170   169    1
     4   169   172    1
     5   163   162    2
     6   162   161    1
     7   172   173    1
     8   160   161    1
     9   161   164    1
    10    50    51    1
    11   173   174    1
    12   173   175    1
    13   164   165    1
    14    54    51    1
    15    54    55    1
    16   155   156    2
    17   155   154    1
    18    51    52    1
    19    52    53    2
    20   165   166    1
    21   153   154    1
    22   154   157    1
    23    55    56    1
    24    57    56    1
    25   166   167    1
    26    58    59    1
    27    44    43    2
    28   145   144    2
    29   144   143    1
    30   157   158    1
    31   157   159    1
    32    38    40   ar
    33    38    36   ar
    34    43    42    1
    35    40    39   ar
    36    62    59    1
    37    62    63    1
    38    64    63    1
    39   146   143    1
    40   146   147    1
    41   137   138    2
    42   137   136    1
    43    59    60    1
    44   143   142    1
    45    36    35   ar
    46    63    65    1
    47    33    32    2
    48    39    37   ar
    49   135   136    1
    50    42    41    1
    51    42    45    1
    52   136   139    1
    53    66    60   am
    54    66    67    1
    55   139   140    1
    56   139   141    1
    57    60    61    2
    58   147   149   ar
    59   147   148   ar
    60    35    37   ar
    61    35    34    1
    62    32    31    1
    63    70    72    1
    64    70    67    1
    65    70    71    1
    66   149   151   ar
    67    45    46    1
    68    67    68    1
    69   148   150   ar
    70    48    47   ar
    71    34    31    1
    72    31    30    1
    73    68    69    2
    74   151   152   ar
    75    46    47    1
    76    47    49   ar
    77    19    18    2
    78   150   152   ar
    79    25    24    2
    80    30    24   am
    81   126   124    1
    82    24    23    1
    83    18    17    1
    84   125   124    1
    85    20    21    1
    86    20    17    1
    87    17    16    1
    88   124   123    1
    89    73    74    1
    90   134   132    1
    91    23    22    1
    92    23    26    1
    93    11    10    2
    94    79    77    1
    95    89    88    1
    96    16    10   am
    97    77    74    1
    98    77    78    1
    99    90    88    1
   100    10     9    1
   101   123   120    1
   102    74    75    1
   103   132   133    1
   104   132   131    1
   105    28    27    1
   106    27    26    1
   107    27    29    1
   108    88    87    2
   109   118   116    1
   110   120   119    1
   111   120   121    1
   112    75    76    2
   113   127   128    1
   114   128   131    1
   115   128   129    1
   116   110   109    2
   117   114   113    2
   118     6     5    1
   119     4     3    2
   120     9    12    1
   121     9     8    1
   122    87    86    1
   123   122   121    2
   124   130   129    2
   125   113   112    1
   126    12    13    1
   127   100    98   ar
   128   100   101   ar
   129   112   115    1
   130   112   111    1
   131    98    96   ar
   132    94    93    2
   133    86    85    1
   134    85    84    1
   135   109   111   am
   136   109   108    1
   137   116   115    1
   138   116   117    1
   139    80    81    1
   140     3     2    1
   141    15    13    1
   142     5     2    1
   143     5     7    1
   144   101    99   ar
   145    13    14    1
   146   108   107    1
   147    93    92    1
   148     2     1    1
   149    96    95    1
   150    96    97   ar
   151    84    81    1
   152    92    95    1
   153    92    91    1
   154    81    82    1
   155   105   104    2
   156    99    97   ar
   157   107   104   am
   158   104   103    1
   159    82    83    2
   160   106   103    1
   161   103   102    1
