@<TRIPOS>MOLECULE
tmp/3k6sC00.pdb
 84 81 0 0 0
SMALL
GASTEIGER

@<TRIPOS>ATOM
      1  N         24.2250   36.0210  139.4360 N.3   130  SER130     -0.1202
      2  CA        23.2220   36.4410  138.4640 C.3   130  SER130      0.2020
      3  C         23.1280   37.9620  138.4040 C.2   130  SER130      0.2619
      4  O         23.5810   38.6560  139.3150 O.2   130  SER130     -0.2717
      5  CB        21.8580   35.8440  138.8180 C.3   130  SER130      0.2103
      6  OG        21.9170   34.4290  138.8560 O.3   130  SER130     -0.2182
      7  N         22.5380   38.4750  137.3290 N.am  131  PHE131     -0.1961
      8  CA        22.4190   39.9160  137.1300 C.3   131  PHE131      0.1771
      9  C         21.0150   40.3010  136.6630 C.2   131  PHE131      0.2619
     10  O         20.1360   39.4480  136.5460 O.2   131  PHE131     -0.2715
     11  CB        23.4670   40.3920  136.1210 C.3   131  PHE131      0.0574
     12  CG        24.8250   40.6300  136.7220 C.ar  131  PHE131     -0.0200
     13  CD1       25.1630   41.8740  137.2260 C.ar  131  PHE131     -0.0042
     14  CD2       25.7640   39.6110  136.7770 C.ar  131  PHE131     -0.0042
     15  CE1       26.4110   42.0990  137.7770 C.ar  131  PHE131     -0.0003
     16  CE2       27.0130   39.8300  137.3270 C.ar  131  PHE131     -0.0003
     17  CZ        27.3360   41.0760  137.8270 C.ar  131  PHE131     -0.0000
     18  N         20.8120   41.5920  136.4070 N.am  132  GLU132     -0.1977
     19  CA        19.5180   42.1130  135.9630 C.3   132  GLU132      0.1602
     20  C         19.6940   43.2520  134.9580 C.2   132  GLU132      0.2287
     21  O         19.5680   43.0550  133.7520 O.2   132  GLU132     -0.2864
     22  CB        18.7000   42.6120  137.1580 C.3   132  GLU132      0.0415
     23  CG        18.1910   41.5160  138.0800 C.3   132  GLU132      0.1163
     24  CD        16.9430   40.8340  137.5500 C.2   132  GLU132      0.3649
     25  OE1       16.4820   41.2020  136.4490 O.co2 132  GLU132     -0.2457
     26  OE2       16.4200   39.9300  138.2380 O.co2 132  GLU132     -0.2457
     27  N         20.1820   40.5440  132.6730 N.3   157  PHE157     -0.1227
     28  CA        20.1670   39.2720  133.3840 C.3   157  PHE157      0.1736
     29  C         21.4570   38.4910  133.1310 C.2   157  PHE157      0.2596
     30  O         22.5320   38.9130  133.5550 O.2   157  PHE157     -0.2718
     31  CB        18.9340   38.4650  132.9700 C.3   157  PHE157      0.0547
     32  CG        17.7720   39.3190  132.5600 C.ar  157  PHE157     -0.0202
     33  CD1       17.2240   40.2380  133.4380 C.ar  157  PHE157     -0.0042
     34  CD2       17.2330   39.2050  131.2910 C.ar  157  PHE157     -0.0042
     35  CE1       16.1560   41.0290  133.0570 C.ar  157  PHE157     -0.0003
     36  CE2       16.1680   39.9900  130.9040 C.ar  157  PHE157     -0.0003
     37  CZ        15.6260   40.9030  131.7880 C.ar  157  PHE157     -0.0000
     38  N         21.3530   37.3570  132.4450 N.am  158  THR158     -0.1953
     39  CA        22.5190   36.5580  132.0980 C.3   158  THR158      0.1897
     40  C         23.1850   37.1190  130.8480 C.2   158  THR158      0.2313
     41  O         23.6100   36.3670  129.9710 O.2   158  THR158     -0.2863
     42  CB        22.1230   35.0990  131.8240 C.3   158  THR158      0.1794
     43  OG1       21.2770   35.0420  130.6680 O.3   158  THR158     -0.2208
     44  CG2       21.3860   34.5090  133.0190 C.3   158  THR158      0.0378
     45  N         21.7520   38.2310  128.5590 N.3   160  SER160     -0.1217
     46  CA        20.8880   37.7950  127.4710 C.3   160  SER160      0.1889
     47  C         20.7160   38.9180  126.4550 C.2   160  SER160      0.2288
     48  O         21.1100   38.7830  125.2980 O.2   160  SER160     -0.2866
     49  CB        19.5250   37.3690  128.0160 C.3   160  SER160      0.2089
     50  OG        18.6600   36.9700  126.9670 O.3   160  SER160     -0.2183
     51  N          9.6750   46.9930  127.2490 N.3   174  PHE174     -0.1241
     52  CA        10.9520   46.3000  127.1140 C.3   174  PHE174      0.1605
     53  C         10.7440   44.8660  126.6350 C.2   174  PHE174      0.2264
     54  O          9.7890   44.2020  127.0380 O.2   174  PHE174     -0.2867
     55  CB        11.6930   46.2950  128.4510 C.3   174  PHE174      0.0534
     56  CG        12.9720   45.5070  128.4310 C.ar  174  PHE174     -0.0203
     57  CD1       14.1140   46.0280  127.8470 C.ar  174  PHE174     -0.0042
     58  CD2       13.0340   44.2450  129.0010 C.ar  174  PHE174     -0.0042
     59  CE1       15.2920   45.3060  127.8280 C.ar  174  PHE174     -0.0003
     60  CE2       14.2100   43.5180  128.9850 C.ar  174  PHE174     -0.0003
     61  CZ        15.3410   44.0510  128.3980 C.ar  174  PHE174     -0.0000
     62  N         12.8320   41.3410  126.3790 N.3   176  ASN176     -0.1240
     63  CA        13.8420   40.2920  126.4380 C.3   176  ASN176      0.1653
     64  C         13.2760   39.0400  125.7700 C.2   176  ASN176      0.2266
     65  O         12.3700   39.1380  124.9420 O.2   176  ASN176     -0.2867
     66  CB        14.2910   40.0220  127.8810 C.3   176  ASN176      0.1155
     67  CG        13.1280   39.8170  128.8350 C.2   176  ASN176      0.2627
     68  OD1       12.0750   39.3060  128.4540 O.2   176  ASN176     -0.2716
     69  ND2       13.3170   40.2200  130.0890 N.am  176  ASN176     -0.0877
     70  N         12.2700   36.2620  127.6040 N.3   178  SER178     -0.1202
     71  CA        11.7240   35.4670  128.6980 C.3   178  SER178      0.2020
     72  C         12.8370   34.6030  129.2760 C.2   178  SER178      0.2618
     73  O         13.8960   34.4520  128.6660 O.2   178  SER178     -0.2717
     74  CB        10.5440   34.5990  128.2380 C.3   178  SER178      0.2103
     75  OG        10.9640   33.3700  127.6640 O.3   178  SER178     -0.2182
     76  N         12.6000   34.0390  130.4540 N.am  179  GLN179     -0.1979
     77  CA        13.5960   33.1950  131.0970 C.3   179  GLN179      0.1601
     78  C         13.3810   31.7400  130.7040 C.2   179  GLN179      0.2287
     79  O         14.3230   30.9480  130.6860 O.2   179  GLN179     -0.2864
     80  CB        13.5330   33.3470  132.6150 C.3   179  GLN179      0.0394
     81  CG        14.7710   32.8410  133.3350 C.3   179  GLN179      0.0908
     82  CD        14.5910   32.7910  134.8390 C.2   179  GLN179      0.2608
     83  OE1       13.6180   33.3180  135.3780 O.2   179  GLN179     -0.2717
     84  NE2       15.5330   32.1550  135.5270 N.am  179  GLN179     -0.0878
@<TRIPOS>BOND
     1    65    64    2
     2    48    47    2
     3    64    63    1
     4    62    63    1
     5    63    66    1
     6    47    46    1
     7    53    54    2
     8    53    52    1
     9    50    49    1
    10    52    51    1
    11    52    55    1
    12    46    49    1
    13    46    45    1
    14    70    71    1
    15    75    74    1
    16    59    57   ar
    17    59    61   ar
    18    57    56   ar
    19    66    67    1
    20    74    71    1
    21    61    60   ar
    22    56    55    1
    23    56    58   ar
    24    68    67    2
    25    73    72    2
    26    71    72    1
    27    67    69   am
    28    60    58   ar
    29    72    76   am
    30    41    40    2
    31    76    77    1
    32    43    42    1
    33    79    78    2
    34    78    77    1
    35    40    39    1
    36    36    34   ar
    37    36    37   ar
    38    77    80    1
    39    34    32   ar
    40    37    35   ar
    41    42    39    1
    42    42    44    1
    43    39    38    1
    44    38    29   am
    45    32    31    1
    46    32    33   ar
    47    80    81    1
    48    27    28    1
    49    31    28    1
    50    35    33   ar
    51    29    28    1
    52    29    30    2
    53    81    82    1
    54    21    20    2
    55    82    83    2
    56    82    84   am
    57    20    19    1
    58    19    18    1
    59    19    22    1
    60    11    12    1
    61    11     8    1
    62    18     9   am
    63    25    24   ar
    64    10     9    2
    65     9     8    1
    66    12    14   ar
    67    12    13   ar
    68    14    16   ar
    69     8     7    1
    70    22    23    1
    71    13    15   ar
    72    16    17   ar
    73     7     3   am
    74    24    23    1
    75    24    26   ar
    76    15    17   ar
    77     3     2    1
    78     3     4    2
    79     2     5    1
    80     2     1    1
    81     5     6    1
