@<TRIPOS>MOLECULE
tmp/3k6sC03.pdb
 88 81 0 0 0
SMALL
GASTEIGER

@<TRIPOS>ATOM
      1  N         15.7090   37.3370   62.9630 N.3   604  THR604     -0.1203
      2  CA        15.2890   37.9990   64.1940 C.3   604  THR604      0.1994
      3  C         14.1070   37.2800   64.8430 C.2   604  THR604      0.2618
      4  O         13.2780   36.6820   64.1550 O.2   604  THR604     -0.2717
      5  CB        14.8980   39.4680   63.9250 C.3   604  THR604      0.1784
      6  OG1       13.6070   39.5200   63.3060 O.3   604  THR604     -0.2211
      7  CG2       15.9210   40.1390   63.0170 C.3   604  THR604      0.0376
      8  N         14.0400   37.3430   66.1710 N.am  605  PHE605     -0.1961
      9  CA        12.9570   36.7140   66.9240 C.3   605  PHE605      0.1771
     10  C         12.1480   37.7520   67.6880 C.2   605  PHE605      0.2620
     11  O         12.6520   38.8250   68.0130 O.2   605  PHE605     -0.2715
     12  CB        13.5150   35.7090   67.9310 C.3   605  PHE605      0.0574
     13  CG        14.2480   34.5580   67.3070 C.ar  605  PHE605     -0.0200
     14  CD1       15.6250   34.5910   67.1690 C.ar  605  PHE605     -0.0042
     15  CD2       13.5640   33.4340   66.8770 C.ar  605  PHE605     -0.0042
     16  CE1       16.3060   33.5300   66.6030 C.ar  605  PHE605     -0.0003
     17  CE2       14.2400   32.3690   66.3110 C.ar  605  PHE605     -0.0003
     18  CZ        15.6140   32.4190   66.1740 C.ar  605  PHE605     -0.0000
     19  N         10.8910   37.4250   67.9750 N.am  606  SER606     -0.1950
     20  CA        10.0820   38.2300   68.8810 C.3   606  SER606      0.1924
     21  C          9.7550   37.3950   70.1120 C.2   606  SER606      0.2314
     22  O          9.3310   36.2450   69.9960 O.2   606  SER606     -0.2863
     23  CB         8.7950   38.7000   68.1990 C.3   606  SER606      0.2116
     24  OG         7.8130   37.6790   68.1970 O.3   606  SER606     -0.2180
     25  N         11.2780   46.5150   71.6410 N.3   637  VAL637     -0.1245
     26  CA        10.5540   46.9180   70.4380 C.3   637  VAL637      0.1561
     27  C          9.1400   47.4230   70.7300 C.2   637  VAL637      0.2260
     28  O          8.8970   48.6290   70.7710 O.2   637  VAL637     -0.2867
     29  CB        10.4480   45.7470   69.4360 C.3   637  VAL637      0.0252
     30  CG1        9.5420   46.1170   68.2690 C.3   637  VAL637      0.0019
     31  CG2       11.8250   45.3490   68.9380 C.3   637  VAL637      0.0019
     32  N         12.6090   42.4360   70.2310 N.3   644  SER644     -0.1217
     33  CA        13.2870   41.6160   69.2340 C.3   644  SER644      0.1889
     34  C         14.7710   41.4030   69.5230 C.2   644  SER644      0.2288
     35  O         15.4950   42.3370   69.8690 O.2   644  SER644     -0.2866
     36  CB        13.1220   42.2460   67.8470 C.3   644  SER644      0.2089
     37  OG        13.9250   41.5930   66.8760 O.3   644  SER644     -0.2183
     38  N          8.1520   34.5250   67.4140 N.3   681  THR681     -0.1218
     39  CA         8.2020   34.4710   65.9590 C.3   681  THR681      0.1862
     40  C          9.6350   34.5270   65.4400 C.2   681  THR681      0.2287
     41  O         10.5870   34.5730   66.2180 O.2   681  THR681     -0.2866
     42  CB         7.4200   35.6400   65.3460 C.3   681  THR681      0.1770
     43  OG1        8.2040   36.8370   65.4280 O.3   681  THR681     -0.2211
     44  CG2        6.1130   35.8420   66.0820 C.3   681  THR681      0.0375
     45  N         11.3110   36.4930   61.9950 N.3   683  ASN683     -0.1225
     46  CA        11.4520   37.1590   60.7050 C.3   683  ASN683      0.1785
     47  C         12.7590   36.7200   60.0420 C.2   683  ASN683      0.2597
     48  O         13.8110   36.7380   60.6780 O.2   683  ASN683     -0.2718
     49  CB        11.4530   38.6870   60.8770 C.3   683  ASN683      0.1169
     50  CG        10.1260   39.2320   61.3990 C.2   683  ASN683      0.2627
     51  OD1        9.2610   38.4720   61.8340 O.2   683  ASN683     -0.2716
     52  ND2        9.9560   40.5570   61.3380 N.am  683  ASN683     -0.0877
     53  N         12.7000   36.3290   58.7710 N.am  684  VAL684     -0.1966
     54  CA        13.9120   35.9620   58.0360 C.3   684  VAL684      0.1727
     55  C         13.9880   36.7030   56.7020 C.2   684  VAL684      0.2616
     56  O         13.0150   36.7400   55.9470 O.2   684  VAL684     -0.2715
     57  CB        14.0030   34.4390   57.7800 C.3   684  VAL684      0.0290
     58  CG1       12.8720   33.9670   56.8780 C.3   684  VAL684      0.0023
     59  CG2       15.3540   34.0870   57.1640 C.3   684  VAL684      0.0023
     60  N         15.1460   37.2950   56.4200 N.am  685  SER685     -0.1950
     61  CA        15.3370   38.0480   55.1840 C.3   685  SER685      0.1924
     62  C         16.8160   38.1410   54.8220 C.2   685  SER685      0.2314
     63  O         17.6820   37.7220   55.5890 O.2   685  SER685     -0.2863
     64  CB        14.7580   39.4560   55.3290 C.3   685  SER685      0.2116
     65  OG        15.6690   40.3090   56.0010 O.3   685  SER685     -0.2180
     66  N         13.9030   43.7420   52.9310 N.3   690  THR690     -0.1218
     67  CA        12.6880   43.1040   52.4390 C.3   690  THR690      0.1862
     68  C         11.9790   44.0090   51.4320 C.2   690  THR690      0.2287
     69  O         11.1110   44.7990   51.8010 O.2   690  THR690     -0.2866
     70  CB        11.7380   42.7660   53.6010 C.3   690  THR690      0.1770
     71  OG1       11.5680   43.9160   54.4400 O.3   690  THR690     -0.2211
     72  CG2       12.3100   41.6290   54.4330 C.3   690  THR690      0.0375
     73  N          5.3180   39.2870   54.5250 N.3   695  LYS695     -0.1245
     74  CA         6.4560   38.7880   55.2860 C.3   695  LYS695      0.1561
     75  C          6.3890   37.2770   55.4540 C.2   695  LYS695      0.2260
     76  O          5.3090   36.6860   55.4290 O.2   695  LYS695     -0.2867
     77  CB         6.5100   39.4480   56.6650 C.3   695  LYS695      0.0271
     78  CG         6.4980   40.9660   56.6370 C.3   695  LYS695      0.0035
     79  CD         7.4830   41.5120   55.6160 C.3   695  LYS695      0.0206
     80  CE         7.5250   43.0290   55.6430 C.3   695  LYS695      0.1093
     81  NZ         8.4010   43.5740   54.5720 N.3   695  LYS695     -0.1314
     82  N          7.1320   35.3400   58.2660 N.3   697  THR697     -0.1218
     83  CA         7.3670   35.1320   59.6850 C.3   697  THR697      0.1862
     84  C          6.8660   33.7490   60.0710 C.2   697  THR697      0.2287
     85  O          5.9460   33.2210   59.4490 O.2   697  THR697     -0.2866
     86  CB         6.6310   36.1830   60.5370 C.3   697  THR697      0.1770
     87  OG1        5.2380   35.8540   60.6090 O.3   697  THR697     -0.2211
     88  CG2        6.7960   37.5780   59.9400 C.3   697  THR697      0.0375
@<TRIPOS>BOND
     1    68    69    2
     2    68    67    1
     3    67    66    1
     4    67    70    1
     5    70    72    1
     6    70    71    1
     7    73    74    1
     8    81    80    1
     9    62    61    1
    10    62    63    2
    11    61    64    1
    12    61    60    1
    13    74    75    1
    14    74    77    1
    15    64    65    1
    16    76    75    2
    17    79    80    1
    18    79    78    1
    19    56    55    2
    20    60    55   am
    21    78    77    1
    22    55    54    1
    23    58    57    1
    24    59    57    1
    25    57    54    1
    26    54    53    1
    27    82    83    1
    28    53    47   am
    29    85    84    2
    30    83    84    1
    31    83    86    1
    32    88    86    1
    33    47    48    2
    34    47    46    1
    35    86    87    1
    36    46    49    1
    37    46    45    1
    38    49    50    1
    39    52    50   am
    40    50    51    2
    41     1     2    1
    42     7     5    1
    43     6     5    1
    44     5     2    1
    45     4     3    2
    46     2     3    1
    47     3     8   am
    48    42    43    1
    49    42    39    1
    50    42    44    1
    51    40    39    1
    52    40    41    2
    53    39    38    1
    54     8     9    1
    55    18    17   ar
    56    18    16   ar
    57    17    15   ar
    58    16    14   ar
    59    37    36    1
    60    15    13   ar
    61     9    10    1
    62     9    12    1
    63    14    13   ar
    64    13    12    1
    65    10    19   am
    66    10    11    2
    67    36    33    1
    68    19    20    1
    69    24    23    1
    70    23    20    1
    71    30    29    1
    72    20    21    1
    73    31    29    1
    74    33    34    1
    75    33    32    1
    76    29    26    1
    77    34    35    2
    78    22    21    2
    79    26    27    1
    80    26    25    1
    81    27    28    2
