@<TRIPOS>MOLECULE
tmp/3k6vA00.pdb
 78 74 0 0 0
SMALL
GASTEIGER

@<TRIPOS>ATOM
      1  N         33.7300   47.4190    4.7260 N.3     8  ALA8       -0.1231
      2  CA        33.9960   47.1460    6.1330 C.3     8  ALA8        0.1694
      3  C         34.6490   45.7750    6.2870 C.2     8  ALA8        0.2593
      4  O         34.3200   44.8400    5.5530 O.2     8  ALA8       -0.2718
      5  CB        32.7090   47.2100    6.9290 C.3     8  ALA8        0.0304
      6  N         35.5790   45.6670    7.2340 N.am    9  GLY9       -0.1942
      7  CA        36.2690   44.4060    7.5150 C.3     9  GLY9        0.2014
      8  C         35.3300   43.2300    7.7350 C.2     9  GLY9        0.2639
      9  O         35.5830   42.1320    7.2390 O.2     9  GLY9       -0.2714
     10  N         34.2390   43.4640    8.4650 N.am   10  SER10      -0.1949
     11  CA        33.2730   42.4070    8.7870 C.3    10  SER10       0.1924
     12  C         32.5240   41.8720    7.5610 C.2    10  SER10       0.2314
     13  O         31.8510   40.8420    7.6420 O.2    10  SER10      -0.2863
     14  CB        32.2860   42.8690    9.8690 C.3    10  SER10       0.2116
     15  OG        31.4780   43.9500    9.4210 O.3    10  SER10      -0.2180
     16  N         38.6250   47.6580    5.4730 N.3    36  ALA36      -0.1231
     17  CA        38.9600   48.5830    6.5580 C.3    36  ALA36       0.1694
     18  C         37.7410   48.7680    7.4570 C.2    36  ALA36       0.2593
     19  O         36.7040   48.1460    7.2290 O.2    36  ALA36      -0.2718
     20  CB        39.4190   49.9260    5.9960 C.3    36  ALA36       0.0304
     21  N         37.8670   49.6120    8.4810 N.am   37  GLY37      -0.1942
     22  CA        36.7100   50.0280    9.2730 C.3    37  GLY37       0.2014
     23  C         35.7680   50.8380    8.3950 C.2    37  GLY37       0.2640
     24  O         36.2020   51.4450    7.4140 O.2    37  GLY37      -0.2714
     25  N         34.4820   50.8460    8.7400 N.am   38  SER38      -0.1935
     26  CA        33.4650   51.5030    7.9080 C.3    38  SER38       0.2055
     27  C         33.7170   52.9920    7.7050 C.2    38  SER38       0.2642
     28  O         33.6930   53.4770    6.5700 O.2    38  SER38      -0.2714
     29  CB        32.0700   51.2890    8.4890 C.3    38  SER38       0.2130
     30  OG        31.7640   49.9140    8.5320 O.3    38  SER38      -0.2179
     31  N         33.9510   53.7100    8.8030 N.am   39  ALA39      -0.1977
     32  CA        34.2260   55.1460    8.7460 C.3    39  ALA39       0.1597
     33  C         35.5040   55.4460    7.9620 C.2    39  ALA39       0.2287
     34  O         35.5530   56.4090    7.1960 O.2    39  ALA39      -0.2864
     35  CB        34.3020   55.7330   10.1470 C.3    39  ALA39       0.0319
     36  N         29.4560   48.9960    7.4340 N.3    58  ALA58      -0.1245
     37  CA        28.8160   48.1880    8.4740 C.3    58  ALA58       0.1562
     38  C         27.7780   48.9900    9.2550 C.2    58  ALA58       0.2260
     39  O         27.0100   48.4360   10.0440 O.2    58  ALA58      -0.2867
     40  CB        29.8590   47.5840    9.4160 C.3    58  ALA58       0.0290
     41  N         34.9190   48.4970   22.3580 N.3   121  ASP121     -0.1225
     42  CA        34.3350   47.6270   21.3460 C.3   121  ASP121      0.1790
     43  C         32.8220   47.8100   21.2970 C.2   121  ASP121      0.2439
     44  O         32.1580   47.6840   22.3310 O.2   121  ASP121     -0.2733
     45  CB        34.7080   46.1640   21.6300 C.3   121  ASP121      0.1423
     46  CG        34.2440   45.2060   20.5370 C.2   121  ASP121      0.3668
     47  OD1       33.9630   45.6430   19.4020 O.co2 121  ASP121     -0.2456
     48  OD2       34.1670   43.9940   20.8170 O.co2 121  ASP121     -0.2456
     49  N         32.2680   48.1090   20.1020 N.am  122  PRO122     -0.2729
     50  CA        30.8170   48.1720   19.9520 C.3   122  PRO122      0.1401
     51  C         30.1020   46.9180   20.4510 C.2   122  PRO122      0.2269
     52  O         29.0590   47.0350   21.0860 O.2   122  PRO122     -0.2865
     53  CB        30.6290   48.3550   18.4450 C.3   122  PRO122      0.0296
     54  CG        31.8270   49.1480   18.0490 C.3   122  PRO122      0.0237
     55  CD        32.9540   48.5780   18.8780 C.3   122  PRO122      0.0939
     56  N         27.1650   46.9780   23.2470 N.3   126  ARG126     -0.1245
     57  CA        25.9510   46.3220   22.7640 C.3   126  ARG126      0.1563
     58  C         25.4860   45.2000   23.6900 C.2   126  ARG126      0.2260
     59  O         24.2840   44.9920   23.8490 O.2   126  ARG126     -0.2867
     60  CB        26.1200   45.8300   21.3250 C.3   126  ARG126      0.0307
     61  CG        26.0700   46.9790   20.3120 C.3   126  ARG126      0.0489
     62  CD        26.4270   46.5510   18.9000 C.3   126  ARG126      0.2205
     63  NE        26.1220   47.6330   17.9620 N.pl3 126  ARG126     -0.0865
     64  CZ        26.7800   47.8880   16.8330 C.cat 126  ARG126      0.5346
     65  NH1       27.8160   47.1460   16.4540 N.pl3 126  ARG126      0.1354
     66  NH2       26.3970   48.9080   16.0750 N.pl3 126  ARG126      0.1354
     67  N         28.2040   38.7600   17.9560 N.3   205  TYR205     -0.1241
     68  CA        27.3550   38.7580   16.7640 C.3   205  TYR205      0.1605
     69  C         27.1650   37.3470   16.2330 C.2   205  TYR205      0.2264
     70  O         28.0400   36.4940   16.3840 O.2   205  TYR205     -0.2867
     71  CB        27.9530   39.6360   15.6620 C.3   205  TYR205      0.0534
     72  CG        28.2880   41.0320   16.1200 C.ar  205  TYR205     -0.0201
     73  CD1       27.3130   41.8540   16.6780 C.ar  205  TYR205     -0.0009
     74  CD2       29.5810   41.5280   16.0040 C.ar  205  TYR205     -0.0009
     75  CE1       27.6190   43.1410   17.1090 C.ar  205  TYR205      0.0417
     76  CE2       29.9000   42.8140   16.4370 C.ar  205  TYR205      0.0417
     77  CZ        28.9120   43.6120   16.9850 C.ar  205  TYR205      0.1957
     78  OH        29.2190   44.8810   17.4140 O.3   205  TYR205     -0.2866
@<TRIPOS>BOND
     1     1     2    1
     2    16    17    1
     3     4     3    2
     4    20    17    1
     5     2     3    1
     6     2     5    1
     7     3     6   am
     8    17    18    1
     9    28    27    2
    10    34    33    2
    11    19    18    2
    12     6     7    1
    13     9     8    2
    14    24    23    2
    15    36    37    1
    16    18    21   am
    17     7     8    1
    18    12    13    2
    19    12    11    1
    20    27    26    1
    21    27    31   am
    22     8    10   am
    23    26    29    1
    24    26    25    1
    25    33    32    1
    26    23    25   am
    27    23    22    1
    28    10    11    1
    29    37    38    1
    30    37    40    1
    31    21    22    1
    32    29    30    1
    33    32    31    1
    34    32    35    1
    35    11    14    1
    36    38    39    2
    37    15    14    1
    38    71    72    1
    39    71    68    1
    40    74    72   ar
    41    74    76   ar
    42    66    64    1
    43    72    73   ar
    44    69    70    2
    45    69    68    1
    46    76    77   ar
    47    65    64    1
    48    73    75   ar
    49    68    67    1
    50    64    63    2
    51    77    75   ar
    52    77    78    1
    53    63    62    1
    54    54    53    1
    55    54    55    1
    56    53    50    1
    57    55    49    1
    58    62    61    1
    59    47    46   ar
    60    50    49    1
    61    50    51    1
    62    49    43   am
    63    61    60    1
    64    51    52    2
    65    46    48   ar
    66    46    45    1
    67    43    42    1
    68    43    44    2
    69    60    57    1
    70    42    45    1
    71    42    41    1
    72    57    56    1
    73    57    58    1
    74    58    59    2
