@<TRIPOS>MOLECULE
tmp/3k71A03.pdb
 88 80 0 0 0
SMALL
GASTEIGER

@<TRIPOS>ATOM
      1  N         -9.2760   11.8980   69.5040 N.3   406  GLN406     -0.1245
      2  CA        -8.9520   12.3050   70.8620 C.3   406  GLN406      0.1566
      3  C         -9.8380   11.6020   71.8830 C.2   406  GLN406      0.2260
      4  O        -10.9590   11.2110   71.5760 O.2   406  GLN406     -0.2867
      5  CB        -9.1120   13.8170   70.9990 C.3   406  GLN406      0.0367
      6  CG        -8.4960   14.3750   72.2600 C.3   406  GLN406      0.0905
      7  CD        -8.5150   15.8880   72.2900 C.2   406  GLN406      0.2608
      8  OE1       -9.3490   16.5240   71.6400 O.2   406  GLN406     -0.2717
      9  NE2       -7.5920   16.4750   73.0430 N.am  406  GLN406     -0.0878
     10  N          8.6240   13.4370   69.6020 N.3   600  THR600     -0.1203
     11  CA         8.1180   14.1270   68.4190 C.3   600  THR600      0.1994
     12  C          9.0050   15.3060   68.0120 C.2   600  THR600      0.2618
     13  O          9.4650   16.0620   68.8680 O.2   600  THR600     -0.2717
     14  CB         6.6980   14.6690   68.6780 C.3   600  THR600      0.1784
     15  OG1        6.7680   15.7820   69.5760 O.3   600  THR600     -0.2211
     16  CG2        5.8050   13.5990   69.2850 C.3   600  THR600      0.0376
     17  N          9.2280   15.4660   66.7070 N.am  601  PHE601     -0.1961
     18  CA        10.0560   16.5570   66.1890 C.3   601  PHE601      0.1771
     19  C          9.2360   17.6190   65.4610 C.2   601  PHE601      0.2620
     20  O          8.1740   17.3210   64.9160 O.2   601  PHE601     -0.2715
     21  CB        11.0940   16.0080   65.2090 C.3   601  PHE601      0.0574
     22  CG        12.0670   15.0470   65.8220 C.ar  601  PHE601     -0.0200
     23  CD1       11.8680   13.6800   65.7200 C.ar  601  PHE601     -0.0042
     24  CD2       13.1930   15.5100   66.4820 C.ar  601  PHE601     -0.0042
     25  CE1       12.7690   12.7880   66.2770 C.ar  601  PHE601     -0.0003
     26  CE2       14.1010   14.6240   67.0420 C.ar  601  PHE601     -0.0003
     27  CZ        13.8860   13.2610   66.9390 C.ar  601  PHE601     -0.0000
     28  N          9.7440   18.8530   65.4400 N.am  602  SER602     -0.1950
     29  CA         9.1670   19.9170   64.6110 C.3   602  SER602      0.1924
     30  C         10.1530   20.3380   63.5130 C.2   602  SER602      0.2314
     31  O         11.3060   20.6630   63.7920 O.2   602  SER602     -0.2863
     32  CB         8.7540   21.1230   65.4710 C.3   602  SER602      0.2116
     33  OG         9.8170   22.0450   65.6720 O.3   602  SER602     -0.2180
     34  N          1.0540   20.3320   60.8360 N.3   633  VAL633     -0.1231
     35  CA         0.6300   20.9350   62.0950 C.3   633  VAL633      0.1692
     36  C          0.4150   22.4410   61.9860 C.2   633  VAL633      0.2592
     37  O         -0.7190   22.9190   61.9310 O.2   633  VAL633     -0.2718
     38  CB         1.6800   20.6960   63.1950 C.3   633  VAL633      0.0266
     39  CG1        1.3140   21.4560   64.4670 C.3   633  VAL633      0.0020
     40  CG2        1.8250   19.2130   63.4730 C.3   633  VAL633      0.0020
     41  N          1.5210   23.1790   61.9670 N.am  634  GLY634     -0.1957
     42  CA         1.4930   24.6240   62.1020 C.3   634  GLY634      0.1869
     43  C          0.5950   25.3370   61.1120 C.2   634  GLY634      0.2309
     44  O          0.1410   24.7480   60.1300 O.2   634  GLY634     -0.2863
     45  N          4.8960   18.2670   62.3010 N.3   640  SER640     -0.1217
     46  CA         5.5110   17.3520   63.2580 C.3   640  SER640      0.1889
     47  C          5.5480   15.8950   62.7930 C.2   640  SER640      0.2288
     48  O          4.5850   15.3850   62.2140 O.2   640  SER640     -0.2866
     49  CB         4.7710   17.4420   64.5970 C.3   640  SER640      0.2089
     50  OG         5.1370   16.3880   65.4720 O.3   640  SER640     -0.2183
     51  N         12.8970   21.0500   66.6700 N.3   677  THR677     -0.1218
     52  CA        12.7380   20.7940   68.0900 C.3   677  THR677      0.1862
     53  C         12.4710   19.3170   68.3780 C.2   677  THR677      0.2287
     54  O         12.3360   18.4960   67.4640 O.2   677  THR677     -0.2866
     55  CB        11.5850   21.6380   68.6630 C.3   677  THR677      0.1770
     56  OG1       10.3300   21.0750   68.2670 O.3   677  THR677     -0.2211
     57  CG2       11.6630   23.0580   68.1570 C.3   677  THR677      0.0375
     58  N         10.0220   17.4920   71.2660 N.3   679  ASN679     -0.1240
     59  CA         9.1700   17.2940   72.4310 C.3   679  ASN679      0.1653
     60  C          9.2900   15.8670   72.9290 C.2   679  ASN679      0.2266
     61  O          9.1460   14.9290   72.1500 O.2   679  ASN679     -0.2867
     62  CB         7.7140   17.5670   72.0840 C.3   679  ASN679      0.1155
     63  CG         7.4270   19.0250   71.8890 C.2   679  ASN679      0.2627
     64  OD1        8.3210   19.8670   71.9460 O.2   679  ASN679     -0.2716
     65  ND2        6.1760   19.3230   71.5790 N.am  679  ASN679     -0.0877
     66  N          1.6080   14.7080   79.1150 N.3   686  THR686     -0.1218
     67  CA         2.3520   15.7190   79.8560 C.3   686  THR686      0.1862
     68  C          1.4400   16.3990   80.8720 C.2   686  THR686      0.2287
     69  O          0.8020   17.4070   80.5690 O.2   686  THR686     -0.2866
     70  CB         2.9600   16.7690   78.9090 C.3   686  THR686      0.1770
     71  OG1        1.9660   17.2180   77.9780 O.3   686  THR686     -0.2211
     72  CG2        4.1250   16.1680   78.1400 C.3   686  THR686      0.0375
     73  N          7.1490   22.6280   79.3070 N.3   691  LYS691     -0.1245
     74  CA         7.5770   21.5800   78.3860 C.3   691  LYS691      0.1561
     75  C          9.0990   21.4320   78.3890 C.2   691  LYS691      0.2260
     76  O          9.8300   22.3870   78.6640 O.2   691  LYS691     -0.2867
     77  CB         7.0890   21.8860   76.9670 C.3   691  LYS691      0.0271
     78  CG         5.5900   22.1090   76.8460 C.3   691  LYS691      0.0035
     79  CD         4.8120   21.0370   77.5900 C.3   691  LYS691      0.0206
     80  CE         3.3120   21.2230   77.4490 C.3   691  LYS691      0.1093
     81  NZ         2.5650   20.2770   78.3230 N.3   691  LYS691     -0.1314
     82  N         11.2880   20.8480   75.7550 N.3   693  THR693     -0.1218
     83  CA        11.6040   20.8170   74.3320 C.3   693  THR693      0.1862
     84  C         13.0740   21.1790   74.1180 C.2   693  THR693      0.2287
     85  O         13.6220   22.0140   74.8390 O.2   693  THR693     -0.2866
     86  CB        10.7280   21.8200   73.5560 C.3   693  THR693      0.1770
     87  OG1       11.1670   23.1550   73.8320 O.3   693  THR693     -0.2211
     88  CG2        9.2680   21.6840   73.9610 C.3   693  THR693      0.0375
@<TRIPOS>BOND
     1    44    43    2
     2    34    35    1
     3    43    42    1
     4    37    36    2
     5    41    36   am
     6    41    42    1
     7    36    35    1
     8    35    38    1
     9    48    47    2
    10    45    46    1
    11    47    46    1
    12    38    40    1
    13    38    39    1
    14    46    49    1
    15    30    31    2
    16    30    29    1
    17    49    50    1
    18    29    28    1
    19    29    32    1
    20    20    19    2
    21    21    22    1
    22    21    18    1
    23    28    19   am
    24    19    18    1
    25    32    33    1
    26    23    22   ar
    27    23    25   ar
    28    22    24   ar
    29    18    17    1
    30    25    27   ar
    31    24    26   ar
    32    51    52    1
    33    17    12   am
    34    27    26   ar
    35    54    53    2
    36    12    11    1
    37    12    13    2
    38    52    53    1
    39    52    55    1
    40    57    55    1
    41    56    55    1
    42    11    14    1
    43    11    10    1
    44    14    16    1
    45    14    15    1
    46     1     2    1
    47     2     5    1
    48     2     3    1
    49     5     6    1
    50    58    59    1
    51     4     3    2
    52    65    63   am
    53     8     7    2
    54    63    64    2
    55    63    62    1
    56    62    59    1
    57    61    60    2
    58     6     7    1
    59     7     9   am
    60    59    60    1
    61    86    87    1
    62    86    88    1
    63    86    83    1
    64    84    83    1
    65    84    85    2
    66    83    82    1
    67    78    77    1
    68    78    79    1
    69    77    74    1
    70    80    79    1
    71    80    81    1
    72    71    70    1
    73    72    70    1
    74    74    75    1
    75    74    73    1
    76    75    76    2
    77    70    67    1
    78    66    67    1
    79    67    68    1
    80    69    68    2
