@<TRIPOS>MOLECULE
tmp/3k72A03.pdb
 81 72 0 0 0
SMALL
GASTEIGER

@<TRIPOS>ATOM
      1  N          0.6080   10.0110   72.8550 N.3   601  THR601     -0.1218
      2  CA         0.4790   10.5330   71.4870 C.3   601  THR601      0.1862
      3  C          1.4200   11.7200   71.2310 C.2   601  THR601      0.2287
      4  O          1.7270   12.5070   72.1300 O.2   601  THR601     -0.2866
      5  CB        -0.9730   10.9970   71.1610 C.3   601  THR601      0.1770
      6  OG1       -1.2290   12.2700   71.7660 O.3   601  THR601     -0.2211
      7  CG2       -1.9810    9.9910   71.6520 C.3   601  THR601      0.0375
      8  N          1.7930   14.7610   68.3860 N.3   603  THR603     -0.1218
      9  CA         1.2150   15.4440   67.2380 C.3   603  THR603      0.1862
     10  C          2.1270   16.5900   66.8050 C.2   603  THR603      0.2287
     11  O          2.8160   17.1940   67.6430 O.2   603  THR603     -0.2866
     12  CB        -0.1930   15.9890   67.5660 C.3   603  THR603      0.1770
     13  OG1       -0.0830   17.1590   68.3810 O.3   603  THR603     -0.2211
     14  CG2       -0.9830   14.9640   68.3180 C.3   603  THR603      0.0375
     15  N          2.5630   20.2310   64.1940 N.3   605  SER605     -0.1217
     16  CA         1.9350   21.2970   63.4200 C.3   605  SER605      0.1889
     17  C          2.8450   21.6820   62.2330 C.2   605  SER605      0.2288
     18  O          4.0570   21.8940   62.3980 O.2   605  SER605     -0.2866
     19  CB         1.6490   22.5180   64.3030 C.3   605  SER605      0.2089
     20  OG         2.7880   23.3590   64.4480 O.3   605  SER605     -0.2183
     21  N         -6.4140   21.7460   60.4780 N.3   636  VAL636     -0.1231
     22  CA        -6.7430   22.3530   61.7700 C.3   636  VAL636      0.1692
     23  C         -6.9860   23.8660   61.7000 C.2   636  VAL636      0.2592
     24  O         -8.1310   24.3290   61.7520 O.2   636  VAL636     -0.2718
     25  CB        -5.6230   22.0910   62.7930 C.3   636  VAL636      0.0266
     26  CG1       -5.8890   22.8370   64.0950 C.3   636  VAL636      0.0020
     27  CG2       -5.4760   20.5980   63.0460 C.3   636  VAL636      0.0020
     28  N         -5.9010   24.6230   61.5780 N.am  637  GLY637     -0.1957
     29  CA        -5.9470   26.0630   61.7260 C.3   637  GLY637      0.1869
     30  C         -6.9560   26.7550   60.8380 C.2   637  GLY637      0.2309
     31  O         -7.5250   26.1600   59.9220 O.2   637  GLY637     -0.2863
     32  N         -2.5580   19.6660   61.5410 N.3   643  SER643     -0.1217
     33  CA        -1.8520   18.7430   62.4440 C.3   643  SER643      0.1889
     34  C         -1.8460   17.2960   61.9780 C.2   643  SER643      0.2288
     35  O         -2.8390   16.7830   61.4590 O.2   643  SER643     -0.2866
     36  CB        -2.4920   18.7750   63.8380 C.3   643  SER643      0.2089
     37  OG        -1.9820   17.7440   64.6790 O.3   643  SER643     -0.2183
     38  N          5.8330   22.4760   65.1370 N.3   680  THR680     -0.1218
     39  CA         5.8440   22.1730   66.5590 C.3   680  THR680      0.1862
     40  C          5.6080   20.6850   66.8210 C.2   680  THR680      0.2287
     41  O          5.4640   19.8780   65.8830 O.2   680  THR680     -0.2866
     42  CB         4.7670   22.9810   67.2930 C.3   680  THR680      0.1770
     43  OG1        3.4880   22.3550   67.1120 O.3   680  THR680     -0.2211
     44  CG2        4.7460   24.4260   66.7820 C.3   680  THR680      0.0375
     45  N          3.3950   18.8760   70.0130 N.3   682  ASN682     -0.1225
     46  CA         2.6850   18.6610   71.2700 C.3   682  ASN682      0.1785
     47  C          2.8860   17.1990   71.7000 C.2   682  ASN682      0.2597
     48  O          2.7200   16.2750   70.8890 O.2   682  ASN682     -0.2718
     49  CB         1.1910   18.9810   71.1260 C.3   682  ASN682      0.1169
     50  CG         0.9300   20.4660   70.9980 C.2   682  ASN682      0.2627
     51  OD1        1.8260   21.2270   70.6490 O.2   682  ASN682     -0.2716
     52  ND2       -0.3060   20.8770   71.2260 N.am  682  ASN682     -0.0877
     53  N          3.2580   16.9890   72.9660 N.am  683  VAL683     -0.1966
     54  CA         3.4290   15.6400   73.5130 C.3   683  VAL683      0.1727
     55  C          2.6590   15.4960   74.8320 C.2   683  VAL683      0.2616
     56  O          2.7460   16.3630   75.7090 O.2   683  VAL683     -0.2715
     57  CB         4.9190   15.3060   73.7260 C.3   683  VAL683      0.0290
     58  CG1        5.5230   16.2640   74.7430 C.3   683  VAL683      0.0023
     59  CG2        5.0820   13.8240   74.1290 C.3   683  VAL683      0.0023
     60  N          1.8950   14.4060   74.9470 N.am  684  SER684     -0.1950
     61  CA         1.0840   14.1290   76.1380 C.3   684  SER684      0.1924
     62  C          0.8390   12.6250   76.2810 C.2   684  SER684      0.2314
     63  O          1.2820   11.8370   75.4460 O.2   684  SER684     -0.2863
     64  CB        -0.2550   14.9000   76.1130 C.3   684  SER684      0.2116
     65  OG        -1.2290   14.2960   75.2760 O.3   684  SER684     -0.2180
     66  N         -4.3050   15.9720   78.5940 N.3   689  THR689     -0.1218
     67  CA        -3.4950   16.9830   79.2500 C.3   689  THR689      0.1862
     68  C         -4.3390   17.6600   80.3120 C.2   689  THR689      0.2287
     69  O         -5.0390   18.6350   80.0410 O.2   689  THR689     -0.2866
     70  CB        -2.9680   18.0240   78.2520 C.3   689  THR689      0.1770
     71  OG1       -4.0420   18.4920   77.4280 O.3   689  THR689     -0.2211
     72  CG2       -1.9040   17.4040   77.3710 C.3   689  THR689      0.0375
     73  N          1.2530   23.8890   78.2640 N.3   694  LYS694     -0.1245
     74  CA         1.5820   22.8330   77.3060 C.3   694  LYS694      0.1561
     75  C          3.1000   22.7030   77.1380 C.2   694  LYS694      0.2260
     76  O          3.8300   23.6820   77.3160 O.2   694  LYS694     -0.2867
     77  CB         0.9240   23.1150   75.9450 C.3   694  LYS694      0.0271
     78  CG        -0.5800   23.3460   75.9980 C.3   694  LYS694      0.0035
     79  CD        -1.2710   22.2910   76.8320 C.3   694  LYS694      0.0206
     80  CE        -2.7700   22.4870   76.8410 C.3   694  LYS694      0.1093
     81  NZ        -3.4330   21.5250   77.7540 N.3   694  LYS694     -0.1314
@<TRIPOS>BOND
     1    31    30    2
     2    21    22    1
     3    30    29    1
     4    35    34    2
     5    32    33    1
     6    28    23   am
     7    28    29    1
     8    23    24    2
     9    23    22    1
    10    22    25    1
    11    34    33    1
    12    17    18    2
    13    17    16    1
    14    33    36    1
    15    25    27    1
    16    25    26    1
    17    16    15    1
    18    16    19    1
    19    36    37    1
    20    19    20    1
    21    38    39    1
    22    41    40    2
    23    39    40    1
    24    39    42    1
    25    44    42    1
    26    10     9    1
    27    10    11    2
    28    43    42    1
    29     9    12    1
    30     9     8    1
    31    12    14    1
    32    12    13    1
    33    45    46    1
    34    51    50    2
    35    48    47    2
    36    50    49    1
    37    50    52   am
    38    49    46    1
    39     5     2    1
    40     5     7    1
    41     5     6    1
    42     3     2    1
    43     3     4    2
    44    46    47    1
    45     2     1    1
    46    47    53   am
    47    53    54    1
    48    54    57    1
    49    54    55    1
    50    57    59    1
    51    57    58    1
    52    55    60   am
    53    55    56    2
    54    60    61    1
    55    65    64    1
    56    63    62    2
    57    77    78    1
    58    77    74    1
    59    78    79    1
    60    64    61    1
    61    61    62    1
    62    79    80    1
    63    80    81    1
    64    75    74    1
    65    75    76    2
    66    74    73    1
    67    72    70    1
    68    71    70    1
    69    70    67    1
    70    66    67    1
    71    67    68    1
    72    69    68    2
