@<TRIPOS>MOLECULE
tmp/3k7cC00.pdb
 105 100 0 0 0
SMALL
GASTEIGER

@<TRIPOS>ATOM
      1  N         48.0840   57.0040    6.2860 N.3    10  PHE10      -0.1227
      2  CA        47.5160   57.6850    7.4530 C.3    10  PHE10       0.1736
      3  C         48.2230   58.9820    7.7760 C.2    10  PHE10       0.2596
      4  O         47.5770   60.0160    7.9510 O.2    10  PHE10      -0.2718
      5  CB        47.6090   56.7590    8.6520 C.3    10  PHE10       0.0547
      6  CG        47.0310   57.3170    9.9160 C.ar   10  PHE10      -0.0202
      7  CD1       45.6610   57.5240   10.0320 C.ar   10  PHE10      -0.0042
      8  CD2       47.8360   57.5720   11.0110 C.ar   10  PHE10      -0.0042
      9  CE1       45.1190   58.0090   11.1950 C.ar   10  PHE10      -0.0003
     10  CE2       47.3150   58.0640   12.1800 C.ar   10  PHE10      -0.0003
     11  CZ        45.9350   58.2880   12.2720 C.ar   10  PHE10      -0.0000
     12  N         49.5490   58.9160    7.8790 N.am   11  THR11      -0.1953
     13  CA        50.3550   60.0800    8.1650 C.3    11  THR11       0.1897
     14  C         50.2250   61.1400    7.0860 C.2    11  THR11       0.2313
     15  O         50.0020   62.3090    7.3930 O.2    11  THR11      -0.2863
     16  CB        51.8290   59.6850    8.3140 C.3    11  THR11       0.1794
     17  OG1       51.9200   58.5970    9.2450 O.3    11  THR11      -0.2208
     18  CG2       52.6580   60.8720    8.7900 C.3    11  THR11       0.0378
     19  N         47.0240   62.7480    7.6210 N.3    14  LEU14      -0.1231
     20  CA        47.0660   63.5370    8.8510 C.3    14  LEU14       0.1693
     21  C         47.5920   64.9760    8.6120 C.2    14  LEU14       0.2592
     22  O         47.3900   65.8310    9.4680 O.2    14  LEU14      -0.2718
     23  CB        47.9480   62.8410    9.8980 C.3    14  LEU14       0.0284
     24  CG        47.5900   62.7830   11.3850 C.3    14  LEU14       0.0019
     25  CD1       46.1330   62.6550   11.6360 C.3    14  LEU14       0.0001
     26  CD2       48.3480   61.6080   12.0230 C.3    14  LEU14       0.0001
     27  N         48.2520   65.2000    7.4690 N.am   15  TYR15      -0.1976
     28  CA        48.7430   66.4950    7.0250 C.3    15  TYR15       0.1639
     29  C         47.9750   67.0870    5.8350 C.2    15  TYR15       0.2290
     30  O         48.3180   68.1620    5.3840 O.2    15  TYR15      -0.2864
     31  CB        50.2450   66.3780    6.6980 C.3    15  TYR15       0.0560
     32  CG        51.0800   66.2930    7.9480 C.ar   15  TYR15      -0.0198
     33  CD1       51.3190   65.0840    8.5380 C.ar   15  TYR15      -0.0009
     34  CD2       51.5970   67.4350    8.5650 C.ar   15  TYR15      -0.0009
     35  CE1       52.0500   64.9600    9.6820 C.ar   15  TYR15       0.0417
     36  CE2       52.3550   67.3260    9.7480 C.ar   15  TYR15       0.0417
     37  CZ        52.5870   66.0660   10.2790 C.ar   15  TYR15       0.1957
     38  OH        53.2920   65.8780   11.4310 O.3    15  TYR15      -0.2866
     39  N         48.2360   70.3460   12.1060 N.3    50  ASN50      -0.1240
     40  CA        49.2810   69.7640   11.2700 C.3    50  ASN50       0.1653
     41  C         49.2840   70.3910    9.9000 C.2    50  ASN50       0.2266
     42  O         50.3530   70.6290    9.3140 O.2    50  ASN50      -0.2867
     43  CB        49.0620   68.2490   11.0730 C.3    50  ASN50       0.1155
     44  CG        49.3880   67.4330   12.2730 C.2    50  ASN50       0.2627
     45  OD1       50.0670   67.8790   13.1890 O.2    50  ASN50      -0.2716
     46  ND2       48.9170   66.1710   12.2700 N.am   50  ASN50      -0.0877
     47  N         56.8680   56.8020   11.9960 N.3    78  VAL78      -0.1245
     48  CA        56.8110   57.4640   10.7000 C.3    78  VAL78       0.1561
     49  C         57.4670   58.8520   10.8090 C.2    78  VAL78       0.2260
     50  O         57.1520   59.6240   11.7200 O.2    78  VAL78      -0.2867
     51  CB        55.3730   57.6200   10.1820 C.3    78  VAL78       0.0252
     52  CG1       55.4250   58.1240    8.7440 C.3    78  VAL78       0.0019
     53  CG2       54.6050   56.2540   10.2500 C.3    78  VAL78       0.0019
     54  N         58.2020   62.5200    9.0130 N.3    80  VAL80      -0.1245
     55  CA        57.7380   63.4630    8.0060 C.3    80  VAL80       0.1561
     56  C         58.8870   64.4410    7.8070 C.2    80  VAL80       0.2260
     57  O         59.3600   65.0510    8.7670 O.2    80  VAL80      -0.2867
     58  CB        56.4520   64.1730    8.4370 C.3    80  VAL80       0.0252
     59  CG1       56.0050   65.2280    7.3990 C.3    80  VAL80       0.0019
     60  CG2       55.3360   63.1080    8.6680 C.3    80  VAL80       0.0019
     61  N         59.9160   65.6410   11.3790 N.3    88  GLN88      -0.1231
     62  CA        59.2090   65.2870   12.6250 C.3    88  GLN88       0.1698
     63  C         58.7030   63.8480   12.5110 C.2    88  GLN88       0.2593
     64  O         58.3540   63.3770   11.4210 O.2    88  GLN88      -0.2718
     65  CB        58.0390   66.2330   12.9300 C.3    88  GLN88       0.0381
     66  CG        58.4420   67.7310   13.0370 C.3    88  GLN88       0.0905
     67  CD        57.3210   68.6710   13.4880 C.2    88  GLN88       0.2608
     68  OE1       56.1810   68.2410   13.7060 O.2    88  GLN88      -0.2717
     69  NE2       57.6500   69.9710   13.6160 N.am   88  GLN88      -0.0878
     70  N         58.7280   63.1360   13.6100 N.am   89  SER89      -0.1938
     71  CA        58.3500   61.7310   13.6030 C.3    89  SER89       0.2055
     72  C         57.4840   61.3770   14.7700 C.2    89  SER89       0.2644
     73  O         57.5440   62.0410   15.7790 O.2    89  SER89      -0.2714
     74  CB        59.6020   60.8560   13.5880 C.3    89  SER89       0.2130
     75  OG        60.1960   60.8010   14.8690 O.3    89  SER89      -0.2179
     76  N         56.7180   60.2960   14.6450 N.am   90  SER90      -0.1935
     77  CA        55.9080   59.8190   15.7720 C.3    90  SER90       0.2055
     78  C         55.4300   58.4030   15.4950 C.2    90  SER90       0.2643
     79  O         55.4780   57.9220   14.3430 O.2    90  SER90      -0.2714
     80  CB        54.6950   60.7100   16.0130 C.3    90  SER90       0.2130
     81  OG        53.8850   60.7180   14.8610 O.3    90  SER90      -0.2179
     82  N         55.0300   57.7330   16.5630 N.am   91  ASN91      -0.1957
     83  CA        54.5980   56.3410   16.4520 C.3    91  ASN91       0.1819
     84  C         53.1480   56.2320   15.9360 C.2    91  ASN91       0.2621
     85  O         52.2860   57.0210   16.3540 O.2    91  ASN91      -0.2715
     86  CB        54.8080   55.6120   17.7790 C.3    91  ASN91       0.1195
     87  CG        56.2380   55.1740   17.9920 C.2    91  ASN91       0.2630
     88  OD1       56.9610   54.8370   17.0510 O.2    91  ASN91      -0.2716
     89  ND2       56.6580   55.1570   19.2580 N.am   91  ASN91      -0.0877
     90  N         52.9220   55.3240   14.9650 N.am   92  VAL92      -0.1977
     91  CA        51.5720   54.8880   14.6060 C.3    92  VAL92       0.1596
     92  C         51.4330   53.4740   15.1020 C.2    92  VAL92       0.2287
     93  O         52.2910   52.6290   14.7960 O.2    92  VAL92      -0.2864
     94  CB        51.3030   54.9010   13.0860 C.3    92  VAL92       0.0276
     95  CG1       49.8610   54.3710   12.8010 C.3    92  VAL92       0.0022
     96  CG2       51.4410   56.2970   12.5430 C.3    92  VAL92       0.0022
     97  N         46.3790   56.1470   20.4720 N.3   106  LYS106     -0.1245
     98  CA        47.3240   56.0150   21.6000 C.3   106  LYS106      0.1561
     99  C         46.6420   56.4290   22.9130 C.2   106  LYS106      0.2260
    100  O         47.2610   56.3670   23.9850 O.2   106  LYS106     -0.2867
    101  CB        48.5750   56.9160   21.4500 C.3   106  LYS106      0.0271
    102  CG        49.4280   56.7040   20.2000 C.3   106  LYS106      0.0035
    103  CD        50.4770   57.8020   20.2610 C.3   106  LYS106      0.0206
    104  CE        51.4040   57.8560   19.0530 C.3   106  LYS106      0.1093
    105  NZ        52.2800   59.0300   19.1230 N.3   106  LYS106     -0.1314
@<TRIPOS>BOND
     1    30    29    2
     2    29    28    1
     3     1     2    1
     4    31    28    1
     5    31    32    1
     6    28    27    1
     7    14    15    2
     8    14    13    1
     9    59    58    1
    10     2     3    1
    11     2     5    1
    12    27    21   am
    13    19    20    1
    14     3    12   am
    15     3     4    2
    16    56    55    1
    17    56    57    2
    18    12    13    1
    19    32    33   ar
    20    32    34   ar
    21    55    58    1
    22    55    54    1
    23    13    16    1
    24    16    18    1
    25    16    17    1
    26    58    60    1
    27    33    35   ar
    28    34    36   ar
    29    21    20    1
    30    21    22    2
    31     5     6    1
    32    52    51    1
    33    20    23    1
    34    42    41    2
    35    35    37   ar
    36    36    37   ar
    37    23    24    1
    38    41    40    1
    39     6     7   ar
    40     6     8   ar
    41     7     9   ar
    42    51    53    1
    43    51    48    1
    44    37    38    1
    45    48    49    1
    46    48    47    1
    47    49    50    2
    48     8    10   ar
    49    43    40    1
    50    43    44    1
    51     9    11   ar
    52    40    39    1
    53    61    62    1
    54    24    25    1
    55    24    26    1
    56    64    63    2
    57    10    11   ar
    58    46    44   am
    59    44    45    2
    60    63    62    1
    61    63    70   am
    62    96    94    1
    63    62    65    1
    64    95    94    1
    65    65    66    1
    66    66    67    1
    67    94    91    1
    68    67    69   am
    69    67    68    2
    70    74    71    1
    71    74    75    1
    72    71    70    1
    73    71    72    1
    74    79    78    2
    75    91    90    1
    76    91    92    1
    77    76    72   am
    78    76    77    1
    79    72    73    2
    80    93    92    2
    81    81    80    1
    82    90    84   am
    83    78    77    1
    84    78    82   am
    85    77    80    1
    86    84    85    2
    87    84    83    1
    88    83    82    1
    89    83    86    1
    90    88    87    2
    91    86    87    1
    92    87    89   am
    93   104   105    1
    94   104   103    1
    95   102   103    1
    96   102   101    1
    97    97    98    1
    98   101    98    1
    99    98    99    1
   100    99   100    2
