@<TRIPOS>MOLECULE
tmp/3k7cB02.pdb
 79 75 0 0 0
SMALL
GASTEIGER

@<TRIPOS>ATOM
      1  N         32.8650   43.5630  -13.7040 N.3    68  THR68      -0.1203
      2  CA        32.5480   44.5070  -14.7740 C.3    68  THR68       0.1994
      3  C         31.3350   45.2770  -14.3090 C.2    68  THR68       0.2618
      4  O         30.2210   44.7330  -14.3320 O.2    68  THR68      -0.2717
      5  CB        32.3020   43.7790  -16.1000 C.3    68  THR68       0.1784
      6  OG1       33.4580   43.0190  -16.4190 O.3    68  THR68      -0.2211
      7  CG2       32.0390   44.7420  -17.2050 C.3    68  THR68       0.0376
      8  N         31.5560   46.5110  -13.8390 N.am   69  ILE69      -0.1965
      9  CA        30.5360   47.2530  -13.0890 C.3    69  ILE69       0.1727
     10  C         30.4450   48.6900  -13.5700 C.2    69  ILE69       0.2616
     11  O         31.4580   49.3230  -13.7750 O.2    69  ILE69      -0.2715
     12  CB        30.8370   47.2880  -11.5550 C.3    69  ILE69       0.0290
     13  CG1       31.0930   45.8830  -11.0110 C.3    69  ILE69       0.0022
     14  CG2       29.6630   47.9480  -10.7940 C.3    69  ILE69       0.0023
     15  CD1       31.4290   45.8670   -9.5130 C.3    69  ILE69       0.0001
     16  N         29.2250   49.1870  -13.7620 N.am   70  ASN70      -0.1972
     17  CA        28.9830   50.6450  -13.9960 C.3    70  ASN70       0.1688
     18  C         27.9150   51.1540  -13.0410 C.2    70  ASN70       0.2292
     19  O         27.7020   50.5140  -12.0110 O.2    70  ASN70      -0.2864
     20  CB        28.7040   50.9410  -15.4830 C.3    70  ASN70       0.1181
     21  CG        27.4650   50.2460  -16.0300 C.2    70  ASN70       0.2629
     22  OD1       26.5670   49.7800  -15.3040 O.2    70  ASN70      -0.2716
     23  ND2       27.4230   50.1640  -17.3450 N.am   70  ASN70      -0.0877
     24  N         24.6530   48.4320  -13.7690 N.3    73  SER73      -0.1202
     25  CA        24.7260   47.0080  -14.0710 C.3    73  SER73       0.2020
     26  C         26.0680   46.4060  -13.7180 C.2    73  SER73       0.2619
     27  O         27.0830   47.1250  -13.6580 O.2    73  SER73      -0.2717
     28  CB        24.2800   46.7470  -15.5320 C.3    73  SER73       0.2103
     29  OG        25.3300   46.7920  -16.4480 O.3    73  SER73      -0.2182
     30  N         26.0630   45.0940  -13.4240 N.am   74  ALA74      -0.1965
     31  CA        27.2430   44.4270  -12.9400 C.3    74  ALA74       0.1728
     32  C         27.2740   42.9590  -13.3400 C.2    74  ALA74       0.2616
     33  O         26.2480   42.3100  -13.4300 O.2    74  ALA74      -0.2715
     34  CB        27.3670   44.5620  -11.4080 C.3    74  ALA74       0.0334
     35  N         28.4840   42.4830  -13.5880 N.am   75  LYS75      -0.1977
     36  CA        28.7870   41.1170  -13.9030 C.3    75  LYS75       0.1596
     37  C         30.0450   40.8110  -13.0930 C.2    75  LYS75       0.2287
     38  O         31.0900   41.4970  -13.2800 O.2    75  LYS75      -0.2864
     39  CB        29.0520   41.0030  -15.4030 C.3    75  LYS75       0.0298
     40  CG        29.4830   39.6040  -15.9250 C.3    75  LYS75       0.0038
     41  CD        30.3090   39.8390  -17.1540 C.3    75  LYS75       0.0206
     42  CE        30.5740   38.6430  -17.9250 C.3    75  LYS75       0.1093
     43  NZ        31.2060   39.0930  -19.2110 N.3    75  LYS75      -0.1314
     44  N         25.1200   38.1620  -12.3260 N.3    93  PHE93      -0.1227
     45  CA        24.7050   39.4280  -12.9300 C.3    93  PHE93       0.1736
     46  C         23.8100   40.2030  -11.9990 C.2    93  PHE93       0.2595
     47  O         22.8990   39.6220  -11.3960 O.2    93  PHE93      -0.2718
     48  CB        24.0060   39.1870  -14.2500 C.3    93  PHE93       0.0547
     49  CG        24.8980   38.5550  -15.3000 C.ar   93  PHE93      -0.0202
     50  CD1       25.1390   37.1880  -15.2940 C.ar   93  PHE93      -0.0042
     51  CD2       25.4540   39.3270  -16.3140 C.ar   93  PHE93      -0.0042
     52  CE1       25.9290   36.6090  -16.2800 C.ar   93  PHE93      -0.0003
     53  CE2       26.2580   38.7730  -17.2950 C.ar   93  PHE93      -0.0003
     54  CZ        26.4990   37.3960  -17.2820 C.ar   93  PHE93      -0.0000
     55  N         24.0470   41.5150  -11.8860 N.am   94  LEU94      -0.1980
     56  CA        23.1700   42.3920  -11.1140 C.3    94  LEU94       0.1596
     57  C         22.7810   43.6340  -11.8920 C.2    94  LEU94       0.2287
     58  O         23.5010   44.0540  -12.7860 O.2    94  LEU94      -0.2864
     59  CB        23.8140   42.8340   -9.7930 C.3    94  LEU94       0.0297
     60  CG        24.3340   41.7370   -8.8830 C.3    94  LEU94       0.0022
     61  CD1       25.7950   41.4500   -9.1900 C.3    94  LEU94       0.0001
     62  CD2       24.1680   42.0840   -7.3860 C.3    94  LEU94       0.0001
     63  N         20.1100   39.3820  -11.1680 N.3   104  LEU104     -0.1245
     64  CA        19.2850   39.0170  -12.3060 C.3   104  LEU104      0.1561
     65  C         19.2480   37.4990  -12.4800 C.2   104  LEU104      0.2260
     66  O         20.2150   36.8110  -12.1880 O.2   104  LEU104     -0.2867
     67  CB        19.8180   39.6520  -13.5830 C.3   104  LEU104      0.0270
     68  CG        20.0170   41.1700  -13.5720 C.3   104  LEU104      0.0019
     69  CD1       20.6250   41.6050  -14.8970 C.3   104  LEU104      0.0001
     70  CD2       18.6820   41.8480  -13.3460 C.3   104  LEU104      0.0001
     71  N         19.6200   35.0870  -15.1470 N.3   106  LYS106     -0.1245
     72  CA        20.0430   34.7580  -16.5150 C.3   106  LYS106      0.1561
     73  C         19.6300   33.2940  -16.7740 C.2   106  LYS106      0.2260
     74  O         19.6940   32.4330  -15.8870 O.2   106  LYS106     -0.2867
     75  CB        21.5650   35.0070  -16.7120 C.3   106  LYS106      0.0271
     76  CG        21.9320   36.5240  -16.9790 C.3   106  LYS106      0.0035
     77  CD        21.6280   36.9780  -18.4290 C.3   106  LYS106      0.0206
     78  CE        21.2630   38.4740  -18.5450 C.3   106  LYS106      0.1093
     79  NZ        22.4400   39.3810  -18.4400 N.3   106  LYS106     -0.1314
@<TRIPOS>BOND
     1    43    42    1
     2    78    79    1
     3    78    77    1
     4    77    76    1
     5    42    41    1
     6    23    21   am
     7    53    54   ar
     8    53    51   ar
     9    54    52   ar
    10     7     5    1
    11    41    40    1
    12    76    75    1
    13    73    72    1
    14    73    74    2
    15    75    72    1
    16    72    71    1
    17    29    28    1
    18     6     5    1
    19    51    49   ar
    20    52    50   ar
    21     5     2    1
    22    21    20    1
    23    21    22    2
    24    40    39    1
    25    28    25    1
    26    20    17    1
    27    39    36    1
    28    49    50   ar
    29    49    48    1
    30    69    68    1
    31     2     3    1
    32     2     1    1
    33     4     3    2
    34     3     8   am
    35    48    45    1
    36    25    24    1
    37    25    26    1
    38    17    16    1
    39    17    18    1
    40    36    35    1
    41    36    37    1
    42     8     9    1
    43    11    10    2
    44    16    10   am
    45    26    27    2
    46    26    30   am
    47    35    32   am
    48    67    68    1
    49    67    64    1
    50    68    70    1
    51    10     9    1
    52    33    32    2
    53    30    31    1
    54    32    31    1
    55    38    37    2
    56     9    12    1
    57    18    19    2
    58    31    34    1
    59    45    44    1
    60    45    46    1
    61    58    57    2
    62    65    64    1
    63    65    66    2
    64    64    63    1
    65    46    55   am
    66    46    47    2
    67    57    56    1
    68    55    56    1
    69    12    13    1
    70    12    14    1
    71    56    59    1
    72    13    15    1
    73    59    60    1
    74    61    60    1
    75    60    62    1
