@<TRIPOS>MOLECULE
tmp/3k7cB01.pdb
 88 85 0 0 0
SMALL
GASTEIGER

@<TRIPOS>ATOM
      1  N         24.8970   36.3740   -1.7060 N.3    10  PHE10      -0.1227
      2  CA        23.9940   35.5830   -2.5200 C.3    10  PHE10       0.1736
      3  C         24.5880   34.2050   -2.7950 C.2    10  PHE10       0.2596
      4  O         23.9240   33.1820   -2.6040 O.2    10  PHE10      -0.2718
      5  CB        23.6970   36.3180   -3.8490 C.3    10  PHE10       0.0547
      6  CG        22.9080   35.4970   -4.8460 C.ar   10  PHE10      -0.0202
      7  CD1       21.5430   35.3220   -4.6970 C.ar   10  PHE10      -0.0042
      8  CD2       23.5220   34.9280   -5.9470 C.ar   10  PHE10      -0.0042
      9  CE1       20.8210   34.5740   -5.6140 C.ar   10  PHE10      -0.0003
     10  CE2       22.8060   34.1820   -6.8590 C.ar   10  PHE10      -0.0003
     11  CZ        21.4510   34.0140   -6.6920 C.ar   10  PHE10      -0.0000
     12  N         25.8400   34.1720   -3.2400 N.am   11  THR11      -0.1953
     13  CA        26.5500   32.8910   -3.4340 C.3    11  THR11       0.1897
     14  C         26.6230   32.0860   -2.1210 C.2    11  THR11       0.2313
     15  O         26.2930   30.8930   -2.1190 O.2    11  THR11      -0.2863
     16  CB        27.9080   33.1160   -4.0680 C.3    11  THR11       0.1794
     17  OG1       27.7050   33.8190   -5.2960 O.3    11  THR11      -0.2208
     18  CG2       28.6280   31.8060   -4.3490 C.3    11  THR11       0.0378
     19  N         23.1920   30.6170   -1.4070 N.3    14  LEU14      -0.1231
     20  CA        22.8390   29.6410   -2.4620 C.3    14  LEU14       0.1693
     21  C         23.3980   28.2540   -2.1430 C.2    14  LEU14       0.2592
     22  O         22.6860   27.2300   -2.2050 O.2    14  LEU14      -0.2718
     23  CB        23.3430   30.1720   -3.8260 C.3    14  LEU14       0.0284
     24  CG        22.8720   29.6000   -5.1690 C.3    14  LEU14       0.0019
     25  CD1       21.3910   29.8470   -5.4060 C.3    14  LEU14       0.0001
     26  CD2       23.6710   30.2310   -6.3030 C.3    14  LEU14       0.0001
     27  N         24.6500   28.2390   -1.7070 N.am   15  TYR15      -0.1976
     28  CA        25.3310   27.0050   -1.3580 C.3    15  TYR15       0.1639
     29  C         25.0280   26.5100    0.0360 C.2    15  TYR15       0.2290
     30  O         25.2490   25.3560    0.2940 O.2    15  TYR15      -0.2864
     31  CB        26.8510   27.1260   -1.5990 C.3    15  TYR15       0.0560
     32  CG        27.1740   26.9840   -3.0850 C.ar   15  TYR15      -0.0198
     33  CD1       27.3380   28.0910   -3.9010 C.ar   15  TYR15      -0.0009
     34  CD2       27.2180   25.7300   -3.6740 C.ar   15  TYR15      -0.0009
     35  CE1       27.5790   27.9460   -5.2860 C.ar   15  TYR15       0.0417
     36  CE2       27.4830   25.5700   -5.0210 C.ar   15  TYR15       0.0417
     37  CZ        27.6590   26.6690   -5.8270 C.ar   15  TYR15       0.1957
     38  OH        27.9280   26.4650   -7.1580 O.3    15  TYR15      -0.2866
     39  N         32.1810   35.0920   -9.2930 N.3    78  VAL78      -0.1245
     40  CA        32.3920   34.6860   -7.8960 C.3    78  VAL78       0.1561
     41  C         32.9860   33.2740   -7.9020 C.2    78  VAL78       0.2260
     42  O         32.4670   32.3740   -8.5740 O.2    78  VAL78      -0.2867
     43  CB        31.0880   34.7270   -7.0950 C.3    78  VAL78       0.0252
     44  CG1       31.3390   34.3020   -5.6440 C.3    78  VAL78       0.0019
     45  CG2       30.4660   36.1970   -7.1250 C.3    78  VAL78       0.0019
     46  N         33.9030   30.0150   -5.5820 N.3    80  VAL80      -0.1245
     47  CA        33.6480   29.3180   -4.3290 C.3    80  VAL80       0.1561
     48  C         34.7780   28.2950   -4.1860 C.2    80  VAL80       0.2260
     49  O         35.0120   27.5070   -5.0870 O.2    80  VAL80      -0.2867
     50  CB        32.2930   28.5890   -4.3390 C.3    80  VAL80       0.0252
     51  CG1       32.0770   27.9600   -3.0300 C.3    80  VAL80       0.0019
     52  CG2       31.1370   29.5770   -4.6520 C.3    80  VAL80       0.0019
     53  N         35.0620   26.4050   -7.7640 N.3    88  GLN88      -0.1231
     54  CA        34.1700   26.6310   -8.9340 C.3    88  GLN88       0.1698
     55  C         33.8040   28.0810   -9.0270 C.2    88  GLN88       0.2593
     56  O         33.6260   28.7570   -8.0010 O.2    88  GLN88      -0.2718
     57  CB        32.8340   25.9040   -8.7850 C.3    88  GLN88       0.0381
     58  CG        32.9450   24.4180   -8.6090 C.3    88  GLN88       0.0905
     59  CD        31.6040   23.7210   -8.6580 C.2    88  GLN88       0.2608
     60  OE1       31.5510   22.5200   -8.9200 O.2    88  GLN88      -0.2717
     61  NE2       30.5260   24.4530   -8.4340 N.am   88  GLN88      -0.0878
     62  N         33.5920   28.5460  -10.2340 N.am   89  SER89      -0.1938
     63  CA        33.2310   29.9290  -10.4340 C.3    89  SER89       0.2055
     64  C         32.1840   30.0640  -11.5050 C.2    89  SER89       0.2644
     65  O         32.0860   29.2070  -12.3750 O.2    89  SER89      -0.2714
     66  CB        34.4880   30.7570  -10.7570 C.3    89  SER89       0.2130
     67  OG        34.9410   30.5520  -12.1070 O.3    89  SER89      -0.2179
     68  N         31.3930   31.1370  -11.3960 N.am   90  SER90      -0.1935
     69  CA        30.3320   31.4650  -12.3620 C.3    90  SER90       0.2055
     70  C         30.0480   32.9360  -12.1850 C.2    90  SER90       0.2643
     71  O         30.4360   33.5250  -11.1800 O.2    90  SER90      -0.2714
     72  CB        29.0370   30.6450  -12.1490 C.3    90  SER90       0.2130
     73  OG        28.5800   30.7470  -10.8250 O.3    90  SER90      -0.2179
     74  N         29.3820   33.5150  -13.1560 N.am   91  ASN91      -0.1957
     75  CA        29.0560   34.9250  -13.1190 C.3    91  ASN91       0.1819
     76  C         27.7490   35.1610  -12.4000 C.2    91  ASN91       0.2621
     77  O         26.7700   34.4360  -12.6560 O.2    91  ASN91      -0.2715
     78  CB        28.9720   35.5080  -14.5380 C.3    91  ASN91       0.1195
     79  CG        30.3410   35.7520  -15.1700 C.2    91  ASN91       0.2630
     80  OD1       31.3030   36.0430  -14.4820 O.2    91  ASN91      -0.2716
     81  ND2       30.4170   35.6510  -16.5060 N.am   91  ASN91      -0.0877
     82  N         27.7460   36.1520  -11.5000 N.am   92  VAL92      -0.1977
     83  CA        26.5210   36.7440  -10.9620 C.3    92  VAL92       0.1596
     84  C         26.2760   38.0470  -11.7080 C.2    92  VAL92       0.2287
     85  O         27.1340   38.9530  -11.7180 O.2    92  VAL92      -0.2864
     86  CB        26.6310   37.0790   -9.4710 C.3    92  VAL92       0.0276
     87  CG1       25.2950   37.5900   -8.9460 C.3    92  VAL92       0.0022
     88  CG2       27.0900   35.8810   -8.6870 C.3    92  VAL92       0.0022
@<TRIPOS>BOND
     1    81    79   am
     2    79    78    1
     3    79    80    2
     4    78    75    1
     5    74    75    1
     6    74    70   am
     7    75    76    1
     8    77    76    2
     9    76    82   am
    10    65    64    2
    11    69    70    1
    12    69    72    1
    13    69    68    1
    14    70    71    2
    15    72    73    1
    16    67    66    1
    17    85    84    2
    18    84    83    1
    19    64    68   am
    20    64    63    1
    21    82    83    1
    22    83    86    1
    23    66    63    1
    24    63    62    1
    25    62    55   am
    26    86    87    1
    27    86    88    1
    28    39    40    1
    29    55    54    1
    30    55    56    2
    31    54    57    1
    32    54    53    1
    33    60    59    2
    34    57    58    1
    35    59    58    1
    36    59    61   am
    37    42    41    2
    38    41    40    1
    39    40    43    1
    40    38    37    1
    41    45    43    1
    42    43    44    1
    43    10    11   ar
    44    10     8   ar
    45    11     9   ar
    46    26    24    1
    47     8     6   ar
    48    37    35   ar
    49    37    36   ar
    50     9     7   ar
    51    46    47    1
    52    25    24    1
    53    17    16    1
    54    35    33   ar
    55    24    23    1
    56    49    48    2
    57    36    34   ar
    58     6     7   ar
    59     6     5    1
    60    52    50    1
    61    18    16    1
    62    50    47    1
    63    50    51    1
    64    47    48    1
    65    16    13    1
    66    33    32   ar
    67     5     2    1
    68    23    20    1
    69    34    32   ar
    70    13    12    1
    71    13    14    1
    72    12     3   am
    73    32    31    1
    74     3     4    2
    75     3     2    1
    76     2     1    1
    77    20    21    1
    78    20    19    1
    79    22    21    2
    80    21    27   am
    81    14    15    2
    82    27    28    1
    83    31    28    1
    84    28    29    1
    85    29    30    2
