@<TRIPOS>MOLECULE
tmp/3k7cD01.pdb
 114 108 0 0 0
SMALL
GASTEIGER

@<TRIPOS>ATOM
      1  N         72.7630   74.5620   23.1510 N.3    10  PHE10      -0.1227
      2  CA        71.8920   75.5710   22.5750 C.3    10  PHE10       0.1736
      3  C         70.4360   75.1060   22.4410 C.2    10  PHE10       0.2596
      4  O         69.5160   75.8730   22.7300 O.2    10  PHE10      -0.2718
      5  CB        72.4090   75.9740   21.2100 C.3    10  PHE10       0.0547
      6  CG        71.4900   76.8250   20.4450 C.ar   10  PHE10      -0.0202
      7  CD1       71.4190   78.1800   20.6990 C.ar   10  PHE10      -0.0042
      8  CD2       70.7310   76.2990   19.4180 C.ar   10  PHE10      -0.0042
      9  CE1       70.5910   78.9760   19.9650 C.ar   10  PHE10      -0.0003
     10  CE2       69.9220   77.0570   18.7110 C.ar   10  PHE10      -0.0003
     11  CZ        69.8360   78.4170   18.9680 C.ar   10  PHE10      -0.0000
     12  N         70.2590   73.8750   21.9740 N.am   11  THR11      -0.1953
     13  CA        68.9380   73.2550   21.7780 C.3    11  THR11       0.1897
     14  C         68.2510   73.0020   23.1320 C.2    11  THR11       0.2313
     15  O         67.1220   73.4410   23.3420 O.2    11  THR11      -0.2863
     16  CB        69.0690   71.9680   20.9650 C.3    11  THR11       0.1794
     17  OG1       69.6430   72.2740   19.6850 O.3    11  THR11      -0.2208
     18  CG2       67.7440   71.3270   20.7510 C.3    11  THR11       0.0378
     19  N         67.2290   76.3700   24.4890 N.3    14  LEU14      -0.1231
     20  CA        66.1040   76.8260   23.7340 C.3    14  LEU14       0.1693
     21  C         64.7950   76.2410   24.2680 C.2    14  LEU14       0.2592
     22  O         63.8840   76.9850   24.6340 O.2    14  LEU14      -0.2718
     23  CB        66.2970   76.4870   22.2270 C.3    14  LEU14       0.0284
     24  CG        65.1930   76.9870   21.2850 C.3    14  LEU14       0.0019
     25  CD1       65.3720   78.5110   21.1230 C.3    14  LEU14       0.0001
     26  CD2       65.1770   76.2750   19.9320 C.3    14  LEU14       0.0001
     27  N         64.7210   74.9050   24.3370 N.am   15  TYR15      -0.1976
     28  CA        63.4850   74.2020   24.7150 C.3    15  TYR15       0.1639
     29  C         63.1580   74.3480   26.2100 C.2    15  TYR15       0.2290
     30  O         61.9930   74.2480   26.5810 O.2    15  TYR15      -0.2864
     31  CB        63.5110   72.6930   24.2850 C.3    15  TYR15       0.0560
     32  CG        63.2300   72.5710   22.8070 C.ar   15  TYR15      -0.0198
     33  CD1       64.2440   72.3700   21.9030 C.ar   15  TYR15      -0.0009
     34  CD2       61.9480   72.7850   22.3010 C.ar   15  TYR15      -0.0009
     35  CE1       63.9730   72.3160   20.5380 C.ar   15  TYR15       0.0417
     36  CE2       61.6790   72.7500   20.9260 C.ar   15  TYR15       0.0417
     37  CZ        62.6930   72.5180   20.0580 C.ar   15  TYR15       0.1957
     38  OH        62.4490   72.4740   18.6850 O.3    15  TYR15      -0.2866
     39  N         59.1560   78.1890   21.5540 N.3    50  ASN50      -0.1240
     40  CA        59.7650   76.8530   21.5660 C.3    50  ASN50       0.1653
     41  C         59.6490   76.1670   22.9600 C.2    50  ASN50       0.2266
     42  O         59.3680   74.9660   23.0310 O.2    50  ASN50      -0.2867
     43  CB        61.1800   76.8290   20.9450 C.3    50  ASN50       0.1155
     44  CG        61.1410   76.8710   19.3960 C.2    50  ASN50       0.2627
     45  OD1       61.2210   75.8370   18.7260 O.2    50  ASN50      -0.2716
     46  ND2       60.9810   78.0620   18.8390 N.am   50  ASN50      -0.0877
     47  N         56.0400   74.8800   23.2140 N.3    53  LYS53      -0.1245
     48  CA        55.9660   73.6690   22.4310 C.3    53  LYS53       0.1561
     49  C         56.4760   72.4810   23.2450 C.2    53  LYS53       0.2260
     50  O         55.7360   71.5060   23.4110 O.2    53  LYS53      -0.2867
     51  CB        56.7260   73.8030   21.1000 C.3    53  LYS53       0.0271
     52  CG        56.9590   72.4690   20.3680 C.3    53  LYS53       0.0035
     53  CD        57.3090   72.6650   18.8720 C.3    53  LYS53       0.0206
     54  CE        58.5070   73.5720   18.6140 C.3    53  LYS53       0.1093
     55  NZ        58.7780   73.8150   17.1780 N.3    53  LYS53      -0.1314
     56  N         70.4510   68.3880   14.7000 N.3    78  VAL78      -0.1245
     57  CA        70.1350   67.9900   16.0740 C.3    78  VAL78       0.1561
     58  C         68.7430   67.3610   16.1170 C.2    78  VAL78       0.2260
     59  O         67.7880   67.9730   15.6110 O.2    78  VAL78      -0.2867
     60  CB        70.1170   69.1530   17.0300 C.3    78  VAL78       0.0252
     61  CG1       69.8900   68.5910   18.4990 C.3    78  VAL78       0.0019
     62  CG2       71.4400   69.9360   16.9320 C.3    78  VAL78       0.0019
     63  N         65.7410   66.1410   18.6140 N.3    80  VAL80      -0.1245
     64  CA        65.1400   66.2280   19.9450 C.3    80  VAL80       0.1561
     65  C         64.0390   65.1930   20.0490 C.2    80  VAL80       0.2260
     66  O         63.1620   65.0930   19.1840 O.2    80  VAL80      -0.2867
     67  CB        64.5390   67.6000   20.2150 C.3    80  VAL80       0.0252
     68  CG1       63.9130   67.6450   21.6510 C.3    80  VAL80       0.0019
     69  CG2       65.6340   68.6530   20.0620 C.3    80  VAL80       0.0019
     70  N         61.6870   65.7020   16.7100 N.3    88  GLN88      -0.1231
     71  CA        61.8870   66.7040   15.6690 C.3    88  GLN88       0.1698
     72  C         63.3720   66.9800   15.4590 C.2    88  GLN88       0.2593
     73  O         64.1270   67.0660   16.4350 O.2    88  GLN88      -0.2718
     74  CB        61.2500   68.0010   16.0770 C.3    88  GLN88       0.0381
     75  CG        59.8020   67.8500   16.4570 C.3    88  GLN88       0.0905
     76  CD        59.1250   69.1650   16.6940 C.2    88  GLN88       0.2608
     77  OE1       59.7740   70.1710   16.9030 O.2    88  GLN88      -0.2717
     78  NE2       57.8050   69.1540   16.6950 N.am   88  GLN88      -0.0878
     79  N         63.7640   67.1670   14.1980 N.am   89  SER89      -0.1938
     80  CA        65.1340   67.5290   13.8880 C.3    89  SER89       0.2055
     81  C         65.2120   68.7510   12.9790 C.2    89  SER89       0.2644
     82  O         64.2820   69.0360   12.2030 O.2    89  SER89      -0.2714
     83  CB        65.8880   66.3770   13.2590 C.3    89  SER89       0.2130
     84  OG        65.4480   66.2380   11.9200 O.3    89  SER89      -0.2179
     85  N         66.3170   69.4890   13.1250 N.am   90  SER90      -0.1935
     86  CA        66.6370   70.6090   12.2630 C.3    90  SER90       0.2055
     87  C         68.1430   70.9030   12.3860 C.2    90  SER90       0.2643
     88  O         68.7880   70.4210   13.3010 O.2    90  SER90      -0.2714
     89  CB        65.8370   71.8600   12.6410 C.3    90  SER90       0.2130
     90  OG        66.3170   72.3380   13.8770 O.3    90  SER90      -0.2179
     91  N         68.6620   71.7100   11.4720 N.am   91  ASN91      -0.1957
     92  CA        70.0850   72.0330   11.4490 C.3    91  ASN91       0.1819
     93  C         70.4360   73.1890   12.3340 C.2    91  ASN91       0.2621
     94  O         69.7300   74.1720   12.3440 O.2    91  ASN91      -0.2715
     95  CB        70.5120   72.3850   10.0270 C.3    91  ASN91       0.1195
     96  CG        70.5350   71.1850    9.1430 C.2    91  ASN91       0.2630
     97  OD1       71.1170   70.1920    9.4980 O.2    91  ASN91      -0.2716
     98  ND2       69.8700   71.2570    7.9980 N.am   91  ASN91      -0.0877
     99  N         71.5390   73.0890   13.0600 N.am   92  VAL92      -0.1977
    100  CA        72.1450   74.2370   13.6980 C.3    92  VAL92       0.1596
    101  C         73.4520   74.5920   12.9750 C.2    92  VAL92       0.2287
    102  O         74.3120   73.6990   12.7780 O.2    92  VAL92      -0.2864
    103  CB        72.4310   73.9050   15.1370 C.3    92  VAL92       0.0276
    104  CG1       73.1360   75.0690   15.8270 C.3    92  VAL92       0.0022
    105  CG2       71.1340   73.5010   15.8170 C.3    92  VAL92       0.0022
    106  N         70.1030   81.7560   11.1050 N.3   106  LYS106     -0.1245
    107  CA        70.2300   81.0750    9.7860 C.3   106  LYS106      0.1561
    108  C         69.4530   81.7360    8.6240 C.2   106  LYS106      0.2260
    109  O         69.7430   81.4440    7.4440 O.2   106  LYS106     -0.2867
    110  CB        69.8220   79.5950    9.9080 C.3   106  LYS106      0.0271
    111  CG        68.3930   79.3680   10.3900 C.3   106  LYS106      0.0035
    112  CD        68.1830   77.9220   10.7200 C.3   106  LYS106      0.0206
    113  CE        66.7090   77.6450   10.9550 C.3   106  LYS106      0.1093
    114  NZ        66.4190   76.2270   11.2870 N.3   106  LYS106     -0.1314
@<TRIPOS>BOND
     1   109   108    2
     2    98    96   am
     3   108   107    1
     4    96    97    2
     5    96    95    1
     6   107   110    1
     7   107   106    1
     8   110   111    1
     9    95    92    1
    10   111   112    1
    11   112   113    1
    12   113   114    1
    13    92    91    1
    14    92    93    1
    15    91    87   am
    16    84    83    1
    17    82    81    2
    18    86    87    1
    19    86    89    1
    20    86    85    1
    21    93    94    2
    22    93    99   am
    23    87    88    2
    24    89    90    1
    25   102   101    2
    26   101   100    1
    27    81    85   am
    28    81    80    1
    29    99   100    1
    30    83    80    1
    31   100   103    1
    32    80    79    1
    33    79    72   am
    34    56    57    1
    35   103   105    1
    36   103   104    1
    37    72    71    1
    38    72    73    2
    39    59    58    2
    40    71    74    1
    41    71    70    1
    42    57    58    1
    43    57    60    1
    44    74    75    1
    45    75    76    1
    46    76    78   am
    47    76    77    2
    48    62    60    1
    49    60    61    1
    50    55    54    1
    51    54    53    1
    52    63    64    1
    53    38    37    1
    54    10    11   ar
    55    10     8   ar
    56    45    44    2
    57    46    44   am
    58    53    52    1
    59    11     9   ar
    60    66    65    2
    61    44    43    1
    62     8     6   ar
    63    17    16    1
    64    26    24    1
    65    64    65    1
    66    64    67    1
    67     9     7   ar
    68    37    35   ar
    69    37    36   ar
    70    69    67    1
    71    67    68    1
    72    52    51    1
    73     6     7   ar
    74     6     5    1
    75    35    33   ar
    76    18    16    1
    77    36    34   ar
    78    43    40    1
    79    16    13    1
    80    51    48    1
    81    25    24    1
    82     5     2    1
    83    24    23    1
    84    39    40    1
    85    40    41    1
    86    13    12    1
    87    13    14    1
    88    33    32   ar
    89    12     3   am
    90    23    20    1
    91    34    32   ar
    92    48    47    1
    93    48    49    1
    94     3     2    1
    95     3     4    2
    96     2     1    1
    97    32    31    1
    98    41    42    2
    99    14    15    2
   100    49    50    2
   101    20    21    1
   102    20    19    1
   103    21    27   am
   104    21    22    2
   105    31    28    1
   106    27    28    1
   107    28    29    1
   108    29    30    2
