@<TRIPOS>MOLECULE
tmp/3k7fA00.pdb
 197 185 0 0 0
SMALL
GASTEIGER

@<TRIPOS>ATOM
      1  N        -29.6690   32.2990    1.3620 N.3   111  LYS111     -0.1245
      2  CA       -30.2140   33.6490    1.2220 C.3   111  LYS111      0.1561
      3  C        -29.0400   34.6580    1.2190 C.2   111  LYS111      0.2260
      4  O        -28.0230   34.4310    1.8680 O.2   111  LYS111     -0.2867
      5  CB       -31.1770   33.9320    2.3680 C.3   111  LYS111      0.0271
      6  CG       -31.9180   35.2650    2.3160 C.3   111  LYS111      0.0035
      7  CD       -32.9650   35.3200    3.4550 C.3   111  LYS111      0.0206
      8  CE       -33.7110   36.6520    3.5540 C.3   111  LYS111      0.1093
      9  NZ       -34.8090   36.5700    4.5840 N.3   111  LYS111     -0.1314
     10  N        -34.7630   43.3650    2.4400 N.3   160  MET160     -0.1230
     11  CA       -35.3780   42.1950    3.1040 C.3   160  MET160      0.1702
     12  C        -36.6810   42.4820    3.8740 C.2   160  MET160      0.2592
     13  O        -37.3320   41.5640    4.3660 O.2   160  MET160     -0.2718
     14  CB       -34.3680   41.4840    4.0220 C.3   160  MET160      0.0401
     15  CG       -33.1730   40.8780    3.2600 C.3   160  MET160      0.0596
     16  SD       -32.1280   39.8460    4.3590 S.3   160  MET160     -0.1393
     17  CE       -31.5240   41.0520    5.5540 C.3   160  MET160      0.0692
     18  N        -37.0760   43.7410    3.9830 N.am  161  PHE161     -0.1962
     19  CA       -38.2540   44.0540    4.7940 C.3   161  PHE161      0.1771
     20  C        -39.5220   44.0010    3.9200 C.2   161  PHE161      0.2620
     21  O        -40.1520   45.0280    3.6440 O.2   161  PHE161     -0.2715
     22  CB       -38.0970   45.4260    5.4370 C.3   161  PHE161      0.0574
     23  CG       -38.7040   45.5240    6.8170 C.ar  161  PHE161     -0.0200
     24  CD1      -38.2340   46.4580    7.7300 C.ar  161  PHE161     -0.0042
     25  CD2      -39.7010   44.6520    7.2110 C.ar  161  PHE161     -0.0042
     26  CE1      -38.7720   46.5330    9.0060 C.ar  161  PHE161     -0.0003
     27  CE2      -40.2560   44.7220    8.4780 C.ar  161  PHE161     -0.0003
     28  CZ       -39.7970   45.6640    9.3700 C.ar  161  PHE161     -0.0000
     29  N        -39.8960   42.7980    3.4950 N.am  162  SER162     -0.1936
     30  CA       -40.9390   42.6220    2.4840 C.3   162  SER162      0.2055
     31  C        -41.2110   41.1390    2.3370 C.2   162  SER162      0.2643
     32  O        -40.3050   40.3420    2.5510 O.2   162  SER162     -0.2714
     33  CB       -40.4190   43.1540    1.1410 C.3   162  SER162      0.2130
     34  OG       -41.1510   42.6620    0.0170 O.3   162  SER162     -0.2179
     35  N        -42.4320   40.7680    1.9490 N.am  163  TYR163     -0.1973
     36  CA       -42.7260   39.3800    1.6140 C.3   163  TYR163      0.1639
     37  C        -42.8990   39.1660    0.1010 C.2   163  TYR163      0.2290
     38  O        -43.4740   38.1760   -0.3340 O.2   163  TYR163     -0.2864
     39  CB       -43.8500   38.7230    2.5000 C.3   163  TYR163      0.0560
     40  CG       -45.3120   39.1490    2.3130 C.ar  163  TYR163     -0.0198
     41  CD1      -46.1960   38.3430    1.5990 C.ar  163  TYR163     -0.0009
     42  CD2      -45.8210   40.3240    2.9010 C.ar  163  TYR163     -0.0009
     43  CE1      -47.5410   38.6880    1.4310 C.ar  163  TYR163      0.0417
     44  CE2      -47.1810   40.6790    2.7440 C.ar  163  TYR163      0.0417
     45  CZ       -48.0290   39.8450    2.0060 C.ar  163  TYR163      0.1957
     46  OH       -49.3440   40.1790    1.8170 O.3   163  TYR163     -0.2866
     47  N        -39.0910   37.3710    2.6600 N.3   186  SER186     -0.1217
     48  CA       -37.9590   37.8660    1.8830 C.3   186  SER186      0.1889
     49  C        -37.0080   36.7680    1.4040 C.2   186  SER186      0.2288
     50  O        -36.1340   37.0330    0.5750 O.2   186  SER186     -0.2866
     51  CB       -37.1890   38.9320    2.6910 C.3   186  SER186      0.2089
     52  OG       -36.5670   38.3690    3.8450 O.3   186  SER186     -0.2183
     53  N        -34.0150   33.7320    6.6650 N.3   205  THR205     -0.1218
     54  CA       -34.2290   34.4460    7.9410 C.3   205  THR205      0.1862
     55  C        -35.6850   34.9440    7.9370 C.2   205  THR205      0.2287
     56  O        -36.3270   34.9470    6.8910 O.2   205  THR205     -0.2866
     57  CB       -33.2750   35.6460    8.1010 C.3   205  THR205      0.1770
     58  OG1      -33.5580   36.6040    7.0600 O.3   205  THR205     -0.2211
     59  CG2      -31.7950   35.1850    8.0100 C.3   205  THR205      0.0375
     60  N        -38.3920   37.7090   10.1470 N.3   207  ILE207     -0.1231
     61  CA       -38.7860   38.6400   11.2080 C.3   207  ILE207      0.1692
     62  C        -40.3030   38.9230   11.2250 C.2   207  ILE207      0.2592
     63  O        -40.8390   39.4100   12.2240 O.2   207  ILE207     -0.2718
     64  CB       -38.0180   39.9820   11.1220 C.3   207  ILE207      0.0266
     65  CG1      -37.6850   40.4980   12.5410 C.3   207  ILE207      0.0019
     66  CG2      -38.8110   41.0060   10.2990 C.3   207  ILE207      0.0020
     67  CD1      -36.7210   41.6810   12.5620 C.3   207  ILE207      0.0001
     68  N        -40.9860   38.6390   10.1110 N.am  208  GLY208     -0.1957
     69  CA       -42.4410   38.7750   10.0530 C.3   208  GLY208      0.1869
     70  C        -43.0940   37.6860    9.2290 C.2   208  GLY208      0.2309
     71  O        -44.2980   37.7580    8.9230 O.2   208  GLY208     -0.2863
     72  N        -40.6730   35.7770    6.8510 N.3   210  SER210     -0.1217
     73  CA       -39.8080   35.6770    5.6600 C.3   210  SER210      0.1889
     74  C        -39.2460   34.2940    5.2950 C.2   210  SER210      0.2288
     75  O        -38.6930   34.1130    4.2170 O.2   210  SER210     -0.2866
     76  CB       -38.6930   36.7180    5.7220 C.3   210  SER210      0.2089
     77  OG       -39.2100   37.9990    5.4380 O.3   210  SER210     -0.2183
     78  N        -43.5700   32.5960    4.3640 N.3   213  PHE213     -0.1241
     79  CA       -44.1990   33.0480    3.1150 C.3   213  PHE213      0.1605
     80  C        -43.6300   32.3290    1.8730 C.2   213  PHE213      0.2264
     81  O        -44.3890   31.7570    1.0880 O.2   213  PHE213     -0.2867
     82  CB       -44.0390   34.5530    2.9060 C.3   213  PHE213      0.0534
     83  CG       -44.8330   35.3940    3.8530 C.ar  213  PHE213     -0.0203
     84  CD1      -46.2150   35.3300    3.8630 C.ar  213  PHE213     -0.0042
     85  CD2      -44.2010   36.2910    4.6920 C.ar  213  PHE213     -0.0042
     86  CE1      -46.9630   36.1320    4.7340 C.ar  213  PHE213     -0.0003
     87  CE2      -44.9490   37.1060    5.5610 C.ar  213  PHE213     -0.0003
     88  CZ       -46.3280   37.0170    5.5740 C.ar  213  PHE213     -0.0000
     89  N        -25.4380   39.6250    7.3970 N.3   236  LYS236     -0.1231
     90  CA       -25.6010   40.9920    6.9350 C.3   236  LYS236      0.1693
     91  C        -27.0290   41.4510    7.2250 C.2   236  LYS236      0.2593
     92  O        -27.9630   40.7330    6.9110 O.2   236  LYS236     -0.2718
     93  CB       -25.3900   41.0390    5.4200 C.3   236  LYS236      0.0285
     94  CG       -25.4960   42.4690    4.8350 C.3   236  LYS236      0.0035
     95  CD       -24.2800   43.2920    5.2840 C.3   236  LYS236      0.0206
     96  CE       -24.1230   44.6190    4.5370 C.3   236  LYS236      0.1093
     97  NZ       -22.6810   44.7910    4.0980 N.3   236  LYS236     -0.1314
     98  N        -27.2150   42.6510    7.7790 N.am  237  GLY237     -0.1942
     99  CA       -28.5620   43.1360    8.0800 C.3   237  GLY237      0.2014
    100  C        -28.7760   44.5720    7.6490 C.2   237  GLY237      0.2639
    101  O        -27.8950   45.1660    7.0170 O.2   237  GLY237     -0.2714
    102  N        -29.9300   45.1520    7.9800 N.am  238  CYS238     -0.1953
    103  CA       -30.1630   46.5500    7.5860 C.3   238  CYS238      0.1843
    104  C        -30.6240   47.4360    8.7360 C.2   238  CYS238      0.2625
    105  O        -30.5710   48.6580    8.6420 O.2   238  CYS238     -0.2714
    106  CB       -31.1340   46.6450    6.3920 C.3   238  CYS238      0.0997
    107  SG       -32.7590   46.0380    6.7790 S.3   238  CYS238     -0.0797
    108  N        -31.0510   46.8200    9.8330 N.am  239  VAL239     -0.1977
    109  CA       -31.3810   47.5550   11.0540 C.3   239  VAL239      0.1596
    110  C        -30.5910   46.9210   12.1980 C.2   239  VAL239      0.2287
    111  O        -30.5460   45.6970   12.3320 O.2   239  VAL239     -0.2864
    112  CB       -32.8920   47.4660   11.3710 C.3   239  VAL239      0.0276
    113  CG1      -33.2110   48.0690   12.7530 C.3   239  VAL239      0.0022
    114  CG2      -33.7180   48.1760   10.2410 C.3   239  VAL239      0.0022
    115  N        -34.9180   38.8060   15.0310 N.3   247  LEU247     -0.1245
    116  CA       -34.7860   38.0510   13.7840 C.3   247  LEU247      0.1561
    117  C        -34.4920   36.5890   14.1090 C.2   247  LEU247      0.2260
    118  O        -33.8020   36.2870   15.0780 O.2   247  LEU247     -0.2867
    119  CB       -33.6190   38.6110   12.9530 C.3   247  LEU247      0.0270
    120  CG       -33.4220   37.9750   11.5870 C.3   247  LEU247      0.0019
    121  CD1      -34.5900   38.3480   10.6440 C.3   247  LEU247      0.0001
    122  CD2      -32.1020   38.4250   10.9900 C.3   247  LEU247      0.0001
    123  N        -45.5430   46.0480   15.1480 N.3   346  THR346     -0.1218
    124  CA       -45.2670   47.2440   14.3630 C.3   346  THR346      0.1862
    125  C        -44.4400   48.2430   15.1750 C.2   346  THR346      0.2287
    126  O        -43.4630   48.8020   14.6810 O.2   346  THR346     -0.2866
    127  CB       -46.5770   47.9230   13.9240 C.3   346  THR346      0.1770
    128  OG1      -47.3080   47.0270   13.0780 O.3   346  THR346     -0.2211
    129  CG2      -46.2680   49.1800   13.1670 C.3   346  THR346      0.0375
    130  N        -40.8560   46.9420   15.5410 N.3   349  LEU349     -0.1231
    131  CA       -40.1080   46.9400   14.2900 C.3   349  LEU349      0.1693
    132  C        -39.7480   48.3810   13.9040 C.2   349  LEU349      0.2592
    133  O        -38.7180   48.6230   13.2780 O.2   349  LEU349     -0.2718
    134  CB       -40.9440   46.2650   13.1870 C.3   349  LEU349      0.0284
    135  CG       -41.0690   44.7400   13.3580 C.3   349  LEU349      0.0019
    136  CD1      -42.0600   44.1850   12.3320 C.3   349  LEU349      0.0001
    137  CD2      -39.6910   44.0470   13.1830 C.3   349  LEU349      0.0001
    138  N        -40.5850   49.3310   14.3210 N.am  350  PHE350     -0.1976
    139  CA       -40.4380   50.7270   13.9030 C.3   350  PHE350      0.1639
    140  C        -40.3880   51.7100   15.0660 C.2   350  PHE350      0.2290
    141  O        -40.8650   52.8420   14.9370 O.2   350  PHE350     -0.2864
    142  CB       -41.5510   51.1100   12.9210 C.3   350  PHE350      0.0560
    143  CG       -41.4720   50.3600   11.6140 C.ar  350  PHE350     -0.0200
    144  CD1      -40.4420   50.6220   10.7190 C.ar  350  PHE350     -0.0042
    145  CD2      -42.4050   49.3880   11.2950 C.ar  350  PHE350     -0.0042
    146  CE1      -40.3430   49.9240    9.5210 C.ar  350  PHE350     -0.0003
    147  CE2      -42.3200   48.6850   10.0970 C.ar  350  PHE350     -0.0003
    148  CZ       -41.2820   48.9520    9.2120 C.ar  350  PHE350     -0.0000
    149  N        -44.1310   51.9230    1.4410 N.3   373  LEU373     -0.1245
    150  CA       -43.5510   51.7770    2.7790 C.3   373  LEU373      0.1561
    151  C        -42.5090   52.8650    3.0570 C.2   373  LEU373      0.2260
    152  O        -42.5270   53.5180    4.1040 O.2   373  LEU373     -0.2867
    153  CB       -42.9270   50.3850    2.9780 C.3   373  LEU373      0.0270
    154  CG       -42.1880   50.2160    4.3180 C.3   373  LEU373      0.0019
    155  CD1      -43.1580   50.4960    5.4820 C.3   373  LEU373      0.0001
    156  CD2      -41.5690   48.8280    4.4640 C.3   373  LEU373      0.0001
    157  N        -51.7640   50.9540   12.2590 N.3   401  PHE401     -0.1241
    158  CA       -50.3950   50.6790   11.8450 C.3   401  PHE401      0.1605
    159  C        -49.6250   51.9930   11.7550 C.2   401  PHE401      0.2264
    160  O        -48.4910   52.1300   12.2520 O.2   401  PHE401     -0.2867
    161  CB       -50.3540   49.9390   10.5020 C.3   401  PHE401      0.0534
    162  CG       -50.3390   48.4500   10.6250 C.ar  401  PHE401     -0.0203
    163  CD1      -49.1660   47.7390   10.4030 C.ar  401  PHE401     -0.0042
    164  CD2      -51.5000   47.7510   10.9410 C.ar  401  PHE401     -0.0042
    165  CE1      -49.1330   46.3500   10.5010 C.ar  401  PHE401     -0.0003
    166  CE2      -51.4830   46.3690   11.0440 C.ar  401  PHE401     -0.0003
    167  CZ       -50.2920   45.6600   10.8160 C.ar  401  PHE401     -0.0000
    168  N        -46.1190   53.4880   13.9010 N.3   405  MET405     -0.1245
    169  CA       -44.8580   53.5400   13.1700 C.3   405  MET405      0.1570
    170  C        -44.1550   54.8790   13.4010 C.2   405  MET405      0.2261
    171  O        -43.3100   55.2890   12.6170 O.2   405  MET405     -0.2867
    172  CB       -45.1290   53.3300   11.6840 C.3   405  MET405      0.0387
    173  CG       -45.4950   51.8940   11.3450 C.3   405  MET405      0.0595
    174  SD       -46.3490   51.7800    9.7300 S.3   405  MET405     -0.1393
    175  CE       -44.9570   51.6230    8.6120 C.3   405  MET405      0.0692
    176  N        -50.2760   44.6880    3.5270 N.3   457  THR457     -0.1218
    177  CA       -49.5010   44.5220    4.7580 C.3   457  THR457      0.1862
    178  C        -50.2760   43.7300    5.8110 C.2   457  THR457      0.2287
    179  O        -49.6930   42.9590    6.5670 O.2   457  THR457     -0.2866
    180  CB       -49.0320   45.8720    5.3430 C.3   457  THR457      0.1770
    181  OG1      -48.0860   46.4860    4.4500 O.3   457  THR457     -0.2211
    182  CG2      -48.3650   45.6360    6.7050 C.3   457  THR457      0.0375
    183  N        -49.7420   39.8350    6.8010 N.3   460  VAL460     -0.1245
    184  CA       -48.6790   39.2340    7.6180 C.3   460  VAL460      0.1561
    185  C        -49.2070   38.7110    8.9560 C.2   460  VAL460      0.2260
    186  O        -48.4440   38.1460    9.7610 O.2   460  VAL460     -0.2867
    187  CB       -47.4860   40.1940    7.8850 C.3   460  VAL460      0.0252
    188  CG1      -46.8950   40.7070    6.5590 C.3   460  VAL460      0.0019
    189  CG2      -47.9050   41.3680    8.8010 C.3   460  VAL460      0.0019
    190  N        -46.5640   37.0160   11.5330 N.3   464  MET464     -0.1245
    191  CA       -45.8370   37.9630   12.3900 C.3   464  MET464      0.1570
    192  C        -46.2370   37.7880   13.8460 C.2   464  MET464      0.2261
    193  O        -45.4870   38.1420   14.7620 O.2   464  MET464     -0.2867
    194  CB       -46.1120   39.4150   11.9760 C.3   464  MET464      0.0387
    195  CG       -45.1370   40.4350   12.6420 C.3   464  MET464      0.0595
    196  SD       -45.2900   42.0310   11.8240 S.3   464  MET464     -0.1393
    197  CE       -46.9840   42.5240   12.1460 C.3   464  MET464      0.0692
@<TRIPOS>BOND
     1    38    37    2
     2    34    33    1
     3    37    36    1
     4    50    49    2
     5    81    80    2
     6    33    30    1
     7     3     2    1
     8     3     4    2
     9     2     1    1
    10     2     5    1
    11    49    48    1
    12    43    41   ar
    13    43    45   ar
    14   149   150    1
    15    41    40   ar
    16    36    35    1
    17    36    39    1
    18    46    45    1
    19    80    79    1
    20    48    47    1
    21    48    51    1
    22    35    31   am
    23    45    44   ar
    24    40    39    1
    25    40    42   ar
    26     6     5    1
    27     6     7    1
    28    31    30    1
    29    31    32    2
    30    10    11    1
    31    30    29    1
    32    51    52    1
    33    44    42   ar
    34   150   153    1
    35   150   151    1
    36    82    79    1
    37    82    83    1
    38   153   154    1
    39   151   152    2
    40    11    12    1
    41    11    14    1
    42    79    78    1
    43    15    14    1
    44    15    16    1
    45     7     8    1
    46    29    20   am
    47   176   177    1
    48     8     9    1
    49    21    20    2
    50    83    84   ar
    51    83    85   ar
    52    84    86   ar
    53    12    18   am
    54    12    13    2
    55    20    19    1
    56    18    19    1
    57    97    96    1
    58    75    74    2
    59   154   156    1
    60   154   155    1
    61    16    17    1
    62   181   180    1
    63    96    95    1
    64    85    87   ar
    65    86    88   ar
    66   177   180    1
    67   177   178    1
    68    19    22    1
    69    94    95    1
    70    94    93    1
    71    74    73    1
    72   180   182    1
    73    93    90    1
    74    22    23    1
    75    77    76    1
    76    87    88   ar
    77    73    76    1
    78    73    72    1
    79   178   179    2
    80   106   107    1
    81   106   103    1
    82   188   187    1
    83    53    54    1
    84   183   184    1
    85    23    25   ar
    86    23    24   ar
    87    56    55    2
    88    92    91    2
    89    90    91    1
    90    90    89    1
    91   101   100    2
    92    58    57    1
    93    25    27   ar
    94    91    98   am
    95   103   102    1
    96   103   104    1
    97   184   187    1
    98   184   185    1
    99   100   102   am
   100   100    99    1
   101    24    26   ar
   102    98    99    1
   103   187   189    1
   104    55    54    1
   105    54    57    1
   106    59    57    1
   107    27    28   ar
   108   175   174    1
   109   105   104    2
   110   104   108   am
   111    71    70    2
   112   185   186    2
   113    26    28   ar
   114   148   146   ar
   115   148   147   ar
   116    70    69    1
   117   146   144   ar
   118   174   173    1
   119   108   109    1
   120    69    68    1
   121   147   145   ar
   122    68    62   am
   123    60    61    1
   124   114   112    1
   125    66    64    1
   126   163   165   ar
   127   163   162   ar
   128   165   167   ar
   129   161   162    1
   130   161   158    1
   131   162   164   ar
   132   121   120    1
   133   144   143   ar
   134   167   166   ar
   135   164   166   ar
   136   122   120    1
   137   109   112    1
   138   109   110    1
   139    64    61    1
   140    64    65    1
   141    61    62    1
   142    62    63    2
   143   145   143   ar
   144   173   172    1
   145   112   113    1
   146   190   191    1
   147   120   119    1
   148   143   142    1
   149   172   169    1
   150   159   158    1
   151   159   160    2
   152   196   197    1
   153   196   195    1
   154   158   157    1
   155   194   191    1
   156   194   195    1
   157   110   111    2
   158   136   135    1
   159   191   192    1
   160    65    67    1
   161   171   170    2
   162   142   139    1
   163   119   116    1
   164   128   127    1
   165   129   127    1
   166   169   170    1
   167   169   168    1
   168   137   135    1
   169   134   135    1
   170   134   131    1
   171   133   132    2
   172   116   117    1
   173   116   115    1
   174   192   193    2
   175   139   138    1
   176   139   140    1
   177   132   131    1
   178   132   138   am
   179   127   124    1
   180   117   118    2
   181   131   130    1
   182   124   123    1
   183   124   125    1
   184   126   125    2
   185   141   140    2
