@<TRIPOS>MOLECULE
tmp/3k7sA00.pdb
 71 69 0 0 0
SMALL
GASTEIGER

@<TRIPOS>ATOM
      1  N          8.7580   35.9840   37.9400 N.3    10  ASP10      -0.1225
      2  CA         9.0220   37.3640   38.3090 C.3    10  ASP10       0.1805
      3  C          8.5420   38.2490   37.1500 C.2    10  ASP10       0.2598
      4  O          7.7460   37.7940   36.3270 O.2    10  ASP10      -0.2718
      5  CB        10.4890   37.5830   38.6940 C.3    10  ASP10       0.1424
      6  CG        11.4410   37.3640   37.5430 C.2    10  ASP10       0.3668
      7  OD1       11.0230   36.8290   36.4940 O.co2  10  ASP10      -0.2456
      8  OD2       12.6200   37.7350   37.6990 O.co2  10  ASP10      -0.2456
      9  N          9.0030   39.4940   37.0850 N.am   11  HIS11      -0.1962
     10  CA         8.4770   40.4660   36.1150 C.3    11  HIS11       0.1772
     11  C          8.7360   40.1630   34.6190 C.2    11  HIS11       0.2462
     12  O          7.8010   40.2480   33.8240 O.2    11  HIS11      -0.2730
     13  CB         8.8950   41.8990   36.4930 C.3    11  HIS11       0.0785
     14  CG        10.3700   42.0620   36.6960 C.ar   11  HIS11       0.0821
     15  ND1       11.0310   41.5470   37.7910 N.ar   11  HIS11      -0.2267
     16  CD2       11.3140   42.6660   35.9350 C.ar   11  HIS11       0.1154
     17  CE1       12.3180   41.8300   37.6970 C.ar   11  HIS11       0.1986
     18  NE2       12.5170   42.5040   36.5790 N.ar   11  HIS11      -0.2212
     19  N          9.9830   39.8020   34.2180 N.am   12  PRO12      -0.2727
     20  CA        10.1300   39.5450   32.7750 C.3    12  PRO12       0.1402
     21  C          9.2890   38.3700   32.2710 C.2    12  PRO12       0.2269
     22  O          8.8670   38.3700   31.1150 O.2    12  PRO12      -0.2865
     23  CB        11.6260   39.2500   32.6110 C.3    12  PRO12       0.0296
     24  CG        12.1060   38.8730   33.9450 C.3    12  PRO12       0.0237
     25  CD        11.2620   39.6240   34.9310 C.3    12  PRO12       0.0939
     26  N          7.9920   45.2980   38.7610 N.3    43  SER43      -0.1217
     27  CA         9.2350   44.6520   39.1820 C.3    43  SER43       0.1889
     28  C          9.0330   43.9420   40.5200 C.2    43  SER43       0.2288
     29  O          8.5210   44.5270   41.4700 O.2    43  SER43      -0.2866
     30  CB        10.3600   45.6860   39.2870 C.3    43  SER43       0.2089
     31  OG        11.6090   45.0680   39.5370 O.3    43  SER43      -0.2183
     32  N         12.4810   37.7230   42.3880 N.3    46  TYR46      -0.1241
     33  CA        12.2300   36.3060   42.0650 C.3    46  TYR46       0.1605
     34  C         12.2410   35.3410   43.2670 C.2    46  TYR46       0.2264
     35  O         11.4380   34.4080   43.2890 O.2    46  TYR46      -0.2867
     36  CB        13.1480   35.7940   40.9270 C.3    46  TYR46       0.0534
     37  CG        14.6250   35.8150   41.2570 C.ar   46  TYR46      -0.0201
     38  CD1       15.2370   34.7290   41.8840 C.ar   46  TYR46      -0.0009
     39  CD2       15.4100   36.9270   40.9520 C.ar   46  TYR46      -0.0009
     40  CE1       16.6050   34.7550   42.2140 C.ar   46  TYR46       0.0417
     41  CE2       16.7770   36.9630   41.2750 C.ar   46  TYR46       0.0417
     42  CZ        17.3620   35.8740   41.9010 C.ar   46  TYR46       0.1957
     43  OH        18.6980   35.9060   42.2100 O.3    46  TYR46      -0.2866
     44  N         11.8570   32.9130   35.2490 N.3    69  CYS69      -0.1221
     45  CA        12.4470   34.2430   35.3630 C.3    69  CYS69       0.1808
     46  C         13.1640   34.5450   34.0520 C.2    69  CYS69       0.2602
     47  O         12.9400   33.8470   33.0540 O.2    69  CYS69      -0.2717
     48  CB        13.3660   34.3600   36.5940 C.3    69  CYS69       0.0970
     49  SG        14.8020   33.2620   36.6710 S.3    69  CYS69      -0.0800
     50  N         13.9930   35.5880   34.0330 N.am   70  GLY70      -0.1942
     51  CA        14.7210   35.9610   32.8270 C.3    70  GLY70       0.2014
     52  C         15.5310   34.8050   32.2660 C.2    70  GLY70       0.2639
     53  O         15.4150   34.4730   31.0880 O.2    70  GLY70      -0.2714
     54  N         16.3350   34.1740   33.1200 N.am   71  SER71      -0.1949
     55  CA        17.2420   33.1080   32.6840 C.3    71  SER71       0.1924
     56  C         16.8540   31.7320   33.2210 C.2    71  SER71       0.2314
     57  O         17.3480   30.7060   32.7340 O.2    71  SER71      -0.2863
     58  CB        18.6500   33.4240   33.1660 C.3    71  SER71       0.2116
     59  OG        18.6790   33.3510   34.5760 O.3    71  SER71      -0.2180
     60  N         17.7600   30.8960   36.1230 N.3    73  ILE73      -0.1231
     61  CA        18.8480   30.5760   37.0480 C.3    73  ILE73       0.1692
     62  C         18.4600   30.9340   38.4800 C.2    73  ILE73       0.2592
     63  O         18.5800   30.1050   39.3840 O.2    73  ILE73      -0.2718
     64  CB        20.1860   31.2570   36.6580 C.3    73  ILE73       0.0266
     65  CG1       20.7450   30.6560   35.3580 C.3    73  ILE73       0.0019
     66  CG2       21.2110   31.0990   37.7780 C.3    73  ILE73       0.0020
     67  CD1       21.7540   31.5530   34.6410 C.3    73  ILE73       0.0001
     68  N         17.9920   32.1650   38.6640 N.am   74  GLY74      -0.1957
     69  CA        17.5380   32.6420   39.9680 C.3    74  GLY74       0.1869
     70  C         16.4510   31.7740   40.5740 C.2    74  GLY74       0.2309
     71  O         16.5060   31.4390   41.7620 O.2    74  GLY74      -0.2863
@<TRIPOS>BOND
     1    53    52    2
     2    22    21    2
     3    52    51    1
     4    52    54   am
     5    21    20    1
     6    23    20    1
     7    23    24    1
     8    55    54    1
     9    55    58    1
    10    55    56    1
    11    57    56    2
    12    20    19    1
    13    51    50    1
    14    47    46    2
    15    58    59    1
    16    12    11    2
    17    24    25    1
    18    50    46   am
    19    46    45    1
    20    19    11   am
    21    19    25    1
    22    11    10    1
    23    67    65    1
    24    44    45    1
    25    65    64    1
    26    45    48    1
    27    16    18   ar
    28    16    14   ar
    29    10    13    1
    30    10     9    1
    31    60    61    1
    32     4     3    2
    33    13    14    1
    34     7     6   ar
    35    18    17   ar
    36    48    49    1
    37    64    61    1
    38    64    66    1
    39    14    15   ar
    40    61    62    1
    41     9     3   am
    42     3     2    1
    43     6     8   ar
    44     6     5    1
    45    17    15   ar
    46     1     2    1
    47     2     5    1
    48    62    68   am
    49    62    63    2
    50    68    69    1
    51    26    27    1
    52    27    30    1
    53    27    28    1
    54    30    31    1
    55    69    70    1
    56    28    29    2
    57    70    71    2
    58    36    37    1
    59    36    33    1
    60    39    37   ar
    61    39    41   ar
    62    37    38   ar
    63    41    42   ar
    64    38    40   ar
    65    42    43    1
    66    42    40   ar
    67    33    32    1
    68    33    34    1
    69    34    35    2
