@<TRIPOS>MOLECULE
tmp/3k7wB00.pdb
 188 185 0 0 0
SMALL
GASTEIGER

@<TRIPOS>ATOM
      1  N         36.2200  -37.0130  -36.8960 N.3    84  ARG84      -0.1245
      2  CA        36.5920  -37.7110  -35.6610 C.3    84  ARG84       0.1563
      3  C         37.4270  -36.8940  -34.6770 C.2    84  ARG84       0.2260
      4  O         37.0660  -36.7580  -33.5110 O.2    84  ARG84      -0.2867
      5  CB        37.3110  -39.0160  -35.9740 C.3    84  ARG84       0.0307
      6  CG        36.4150  -40.0460  -36.6100 C.3    84  ARG84       0.0489
      7  CD        35.1640  -40.2420  -35.7910 C.3    84  ARG84       0.2205
      8  NE        34.3880  -41.3850  -36.2560 N.pl3  84  ARG84      -0.0865
      9  CZ        33.3340  -41.8820  -35.6130 C.cat  84  ARG84       0.5346
     10  NH1       32.9320  -41.3300  -34.4720 N.pl3  84  ARG84       0.1354
     11  NH2       32.6860  -42.9320  -36.1070 N.pl3  84  ARG84       0.1354
     12  N         38.9080  -41.1390  -48.1140 N.3   112  ASN112     -0.1225
     13  CA        37.4640  -41.2640  -48.2240 C.3   112  ASN112      0.1785
     14  C         36.7270  -40.1470  -47.5270 C.2   112  ASN112      0.2597
     15  O         35.5550  -39.9130  -47.7980 O.2   112  ASN112     -0.2718
     16  CB        37.0010  -42.6210  -47.6830 C.3   112  ASN112      0.1169
     17  CG        37.3920  -42.8510  -46.2270 C.2   112  ASN112      0.2627
     18  OD1       38.5930  -42.7150  -45.8510 O.2   112  ASN112     -0.2716
     19  ND2       36.4090  -43.2210  -45.4020 N.am  112  ASN112     -0.0877
     20  N         37.4270  -39.4420  -46.6480 N.am  113  HIS113     -0.1975
     21  CA        36.8310  -38.3490  -45.8870 C.3   113  HIS113      0.1656
     22  C         37.0190  -36.9660  -46.4960 C.2   113  HIS113      0.2291
     23  O         36.3890  -36.0120  -46.0500 O.2   113  HIS113     -0.2864
     24  CB        37.3680  -38.3480  -44.4530 C.3   113  HIS113      0.0771
     25  CG        36.7890  -39.4290  -43.5920 C.ar  113  HIS113      0.0820
     26  ND1       35.6700  -39.2390  -42.8100 N.ar  113  HIS113     -0.2267
     27  CD2       37.2070  -40.6950  -43.3460 C.ar  113  HIS113      0.1154
     28  CE1       35.4310  -40.3380  -42.1140 C.ar  113  HIS113      0.1986
     29  NE2       36.3480  -41.2380  -42.4220 N.ar  113  HIS113     -0.2212
     30  N         29.7450  -35.5040  -48.4560 N.3   117  GLN117     -0.1231
     31  CA        28.6850  -36.1450  -47.6950 C.3   117  GLN117      0.1698
     32  C         29.1520  -36.7260  -46.3550 C.2   117  GLN117      0.2592
     33  O         28.4510  -36.6240  -45.3350 O.2   117  GLN117     -0.2718
     34  CB        28.0370  -37.2320  -48.5360 C.3   117  GLN117      0.0381
     35  CG        26.5870  -37.4750  -48.1920 C.3   117  GLN117      0.0905
     36  CD        25.9810  -38.5880  -49.0210 C.2   117  GLN117      0.2608
     37  OE1       26.0700  -38.5770  -50.2620 O.2   117  GLN117     -0.2717
     38  NE2       25.3540  -39.5600  -48.3460 N.am  117  GLN117     -0.0878
     39  N         30.3390  -37.3240  -46.3490 N.am  118  ILE118     -0.1980
     40  CA        30.8510  -37.9050  -45.1200 C.3   118  ILE118      0.1595
     41  C         31.3030  -36.8470  -44.0980 C.2   118  ILE118      0.2287
     42  O         31.2630  -37.1010  -42.8900 O.2   118  ILE118     -0.2864
     43  CB        32.0130  -38.8920  -45.4050 C.3   118  ILE118      0.0276
     44  CG1       32.2710  -39.7440  -44.1690 C.3   118  ILE118      0.0022
     45  CG2       33.2880  -38.1370  -45.7690 C.3   118  ILE118      0.0022
     46  CD1       33.3560  -40.7330  -44.3560 C.3   118  ILE118      0.0001
     47  N         28.6130  -35.8450  -41.5790 N.3   121  VAL121     -0.1231
     48  CA        28.1490  -36.8890  -40.6740 C.3   121  VAL121      0.1692
     49  C         29.1780  -37.1120  -39.5740 C.2   121  VAL121      0.2592
     50  O         28.8250  -37.5090  -38.4740 O.2   121  VAL121     -0.2718
     51  CB        27.9710  -38.2480  -41.4290 C.3   121  VAL121      0.0266
     52  CG1       27.7370  -39.3920  -40.4380 C.3   121  VAL121      0.0020
     53  CG2       26.8600  -38.1340  -42.4500 C.3   121  VAL121      0.0020
     54  N         30.4480  -36.8460  -39.8670 N.am  122  TYR122     -0.1976
     55  CA        31.4860  -37.1200  -38.8930 C.3   122  TYR122      0.1639
     56  C         32.3060  -35.9870  -38.2870 C.2   122  TYR122      0.2290
     57  O         33.4200  -36.2100  -37.8240 O.2   122  TYR122     -0.2864
     58  CB        32.4160  -38.1800  -39.4720 C.3   122  TYR122      0.0560
     59  CG        31.7590  -39.5320  -39.5850 C.ar  122  TYR122     -0.0198
     60  CD1       31.4830  -40.2850  -38.4420 C.ar  122  TYR122     -0.0009
     61  CD2       31.3850  -40.0570  -40.8380 C.ar  122  TYR122     -0.0009
     62  CE1       30.8570  -41.5200  -38.5320 C.ar  122  TYR122      0.0417
     63  CE2       30.7510  -41.3010  -40.9430 C.ar  122  TYR122      0.0417
     64  CZ        30.4910  -42.0240  -39.7830 C.ar  122  TYR122      0.1957
     65  OH        29.8580  -43.2440  -39.8540 O.3   122  TYR122     -0.2866
     66  N         33.3670  -37.5050  -54.5230 N.3   184  VAL184     -0.1231
     67  CA        33.6410  -38.9380  -54.6270 C.3   184  VAL184      0.1678
     68  C         32.3350  -39.6970  -54.8810 C.2   184  VAL184      0.2434
     69  O         31.3730  -39.5440  -54.1290 O.2   184  VAL184     -0.2733
     70  CB        34.3260  -39.5010  -53.3350 C.3   184  VAL184      0.0265
     71  CG1       34.2590  -41.0330  -53.3200 C.3   184  VAL184      0.0020
     72  CG2       35.7920  -39.0590  -53.2800 C.3   184  VAL184      0.0020
     73  N         32.2830  -40.4950  -55.9680 N.am  185  PRO185     -0.2718
     74  CA        31.1430  -41.3160  -56.4030 C.3   185  PRO185      0.1535
     75  C         30.8140  -42.4230  -55.4070 C.2   185  PRO185      0.2598
     76  O         31.6780  -42.8290  -54.6170 O.2   185  PRO185     -0.2715
     77  CB        31.6130  -41.8850  -57.7300 C.3   185  PRO185      0.0310
     78  CG        32.5020  -40.8170  -58.2460 C.3   185  PRO185      0.0237
     79  CD        33.2990  -40.4350  -57.0340 C.3   185  PRO185      0.0939
     80  N         29.5780  -42.9200  -55.4600 N.am  186  HIS186     -0.1974
     81  CA        29.1100  -43.9660  -54.5470 C.3   186  HIS186      0.1656
     82  C         29.5130  -45.3770  -55.0070 C.2   186  HIS186      0.2291
     83  O         29.4070  -46.3470  -54.2480 O.2   186  HIS186     -0.2864
     84  CB        27.5870  -43.8820  -54.4190 C.3   186  HIS186      0.0771
     85  CG        26.8590  -44.2630  -55.6750 C.ar  186  HIS186      0.0820
     86  ND1       27.0070  -43.5700  -56.8610 N.ar  186  HIS186     -0.2267
     87  CD2       26.0360  -45.3060  -55.9480 C.ar  186  HIS186      0.1154
     88  CE1       26.3090  -44.1730  -57.8090 C.ar  186  HIS186      0.1986
     89  NE2       25.7130  -45.2290  -57.2820 N.ar  186  HIS186     -0.2212
     90  N         35.8380  -44.4370  -56.4320 N.3   191  CYS191     -0.1235
     91  CA        35.2970  -44.7960  -55.1130 C.3   191  CYS191      0.1677
     92  C         36.0960  -45.9320  -54.4270 C.2   191  CYS191      0.2270
     93  O         36.5290  -45.7890  -53.2840 O.2   191  CYS191     -0.2867
     94  CB        33.8170  -45.1960  -55.2440 C.3   191  CYS191      0.0956
     95  SG        32.9900  -45.8150  -53.7300 S.3   191  CYS191     -0.0801
     96  N         37.9960  -46.5190  -50.8520 N.3   195  TRP195     -0.1241
     97  CA        37.2620  -47.2670  -49.8250 C.3   195  TRP195      0.1605
     98  C         37.6350  -48.7150  -49.5410 C.2   195  TRP195      0.2264
     99  O         37.3790  -49.2060  -48.4480 O.2   195  TRP195     -0.2867
    100  CB        35.7470  -47.2340  -50.1060 C.3   195  TRP195      0.0550
    101  CG        35.0840  -45.9240  -49.8100 C.ar  195  TRP195      0.0003
    102  CD1       35.0100  -44.8280  -50.6270 C.ar  195  TRP195      0.0946
    103  CD2       34.4490  -45.5510  -48.5870 C.ar  195  TRP195      0.0152
    104  NE1       34.3690  -43.7980  -49.9840 N.ar  195  TRP195     -0.2442
    105  CE2       34.0140  -44.2180  -48.7310 C.ar  195  TRP195      0.0810
    106  CE3       34.2090  -46.2140  -47.3750 C.ar  195  TRP195      0.0012
    107  CZ2       33.3520  -43.5440  -47.7150 C.ar  195  TRP195      0.0191
    108  CZ3       33.5520  -45.5420  -46.3660 C.ar  195  TRP195      0.0001
    109  CH2       33.1300  -44.2260  -46.5420 C.ar  195  TRP195      0.0015
    110  N         32.7280  -54.7700  -45.5620 N.3   208  PRO208     -0.2102
    111  CA        31.8080  -54.4900  -44.4630 C.3   208  PRO208      0.1504
    112  C         31.5400  -52.9860  -44.3350 C.2   208  PRO208      0.2576
    113  O         30.6210  -52.5660  -43.6340 O.2   208  PRO208     -0.2718
    114  CB        32.5290  -55.0820  -43.2590 C.3   208  PRO208      0.0282
    115  CG        33.9870  -55.0010  -43.6540 C.3   208  PRO208      0.0208
    116  CD        33.9390  -55.4520  -45.0760 C.3   208  PRO208      0.0893
    117  N         32.3280  -52.1810  -45.0390 N.am  209  ARG209     -0.1966
    118  CA        32.1470  -50.7390  -44.9770 C.3   209  ARG209      0.1729
    119  C         30.8920  -50.2610  -45.6900 C.2   209  ARG209      0.2617
    120  O         30.3210  -49.2350  -45.3210 O.2   209  ARG209     -0.2715
    121  CB        33.3650  -50.0160  -45.5600 C.3   209  ARG209      0.0348
    122  CG        34.6280  -50.1320  -44.7070 C.3   209  ARG209      0.0492
    123  CD        35.7850  -49.3890  -45.3430 C.3   209  ARG209      0.2205
    124  NE        37.0570  -49.5850  -44.6520 N.pl3 209  ARG209     -0.0865
    125  CZ        37.4930  -48.8350  -43.6420 C.cat 209  ARG209      0.5346
    126  NH1       36.7500  -47.8270  -43.1980 N.pl3 209  ARG209      0.1354
    127  NH2       38.6760  -49.0870  -43.0820 N.pl3 209  ARG209      0.1354
    128  N         30.4560  -51.0010  -46.7030 N.am  210  GLY210     -0.1940
    129  CA        29.2870  -50.5780  -47.4550 C.3   210  GLY210      0.2014
    130  C         29.6790  -49.8570  -48.7490 C.2   210  GLY210      0.2638
    131  O         28.8280  -49.3510  -49.4910 O.2   210  GLY210     -0.2714
    132  N         30.9800  -49.8040  -49.0160 N.am  211  ALA211     -0.1977
    133  CA        31.5020  -49.1750  -50.2150 C.3   211  ALA211      0.1597
    134  C         32.8130  -49.8710  -50.5070 C.2   211  ALA211      0.2287
    135  O         33.4840  -50.3560  -49.5810 O.2   211  ALA211     -0.2864
    136  CB        31.7410  -47.6970  -49.9830 C.3   211  ALA211      0.0319
    137  N         42.7290  -47.9330  -42.7150 N.3   237  GLN237     -0.1231
    138  CA        42.3680  -48.8900  -41.6590 C.3   237  GLN237      0.1698
    139  C         43.1150  -48.8020  -40.3440 C.2   237  GLN237      0.2592
    140  O         44.3370  -48.7190  -40.3140 O.2   237  GLN237     -0.2718
    141  CB        42.5340  -50.3330  -42.1410 C.3   237  GLN237      0.0381
    142  CG        41.3370  -50.9320  -42.8700 C.3   237  GLN237      0.0905
    143  CD        41.3580  -52.4490  -42.8530 C.2   237  GLN237      0.2608
    144  OE1       42.3240  -53.0790  -43.2940 O.2   237  GLN237     -0.2717
    145  NE2       40.2930  -53.0440  -42.3330 N.am  237  GLN237     -0.0878
    146  N         42.3730  -48.8800  -39.2480 N.am  238  LEU238     -0.1980
    147  CA        42.9850  -48.8470  -37.9340 C.3   238  LEU238      0.1596
    148  C         43.8820  -50.0680  -37.7590 C.2   238  LEU238      0.2287
    149  O         43.4490  -51.2100  -37.9500 O.2   238  LEU238     -0.2864
    150  CB        41.9110  -48.8610  -36.8390 C.3   238  LEU238      0.0297
    151  CG        42.3890  -49.0620  -35.3850 C.3   238  LEU238      0.0022
    152  CD1       43.1330  -47.8240  -34.9310 C.3   238  LEU238      0.0001
    153  CD2       41.2070  -49.3340  -34.4570 C.3   238  LEU238      0.0001
    154  N         43.0010  -43.5980  -31.8640 N.3   260  TYR260     -0.1227
    155  CA        41.9040  -43.1270  -32.7100 C.3   260  TYR260      0.1736
    156  C         40.6020  -42.7910  -31.9490 C.2   260  TYR260      0.2595
    157  O         40.1210  -43.5780  -31.1040 O.2   260  TYR260     -0.2718
    158  CB        41.6300  -44.1860  -33.7810 C.3   260  TYR260      0.0548
    159  CG        40.7270  -43.7390  -34.8870 C.ar  260  TYR260     -0.0200
    160  CD1       39.8150  -44.6250  -35.4490 C.ar  260  TYR260     -0.0009
    161  CD2       40.8050  -42.4410  -35.3990 C.ar  260  TYR260     -0.0009
    162  CE1       38.9920  -44.2330  -36.5020 C.ar  260  TYR260      0.0417
    163  CE2       39.9930  -42.0370  -36.4530 C.ar  260  TYR260      0.0417
    164  CZ        39.0860  -42.9410  -36.9980 C.ar  260  TYR260      0.1957
    165  OH        38.2570  -42.5620  -38.0210 O.3   260  TYR260     -0.2866
    166  N         40.0330  -41.6270  -32.2770 N.am  261  CYS261     -0.1970
    167  CA        38.8110  -41.1340  -31.6280 C.3   261  CYS261      0.1712
    168  C         39.0130  -40.8980  -30.1160 C.2   261  CYS261      0.2296
    169  O         38.0530  -40.6020  -29.3730 O.2   261  CYS261     -0.2864
    170  CB        37.6520  -42.1160  -31.8460 C.3   261  CYS261      0.0983
    171  SG        37.0780  -42.1550  -33.5380 S.3   261  CYS261     -0.0798
    172  N         39.8370  -43.1720  -28.1370 N.3   263  ARG263     -0.1231
    173  CA        39.2730  -44.3450  -27.4630 C.3   263  ARG263      0.1694
    174  C         39.9490  -45.6580  -27.8500 C.2   263  ARG263      0.2592
    175  O         39.9290  -46.6140  -27.0760 O.2   263  ARG263     -0.2718
    176  CB        37.7750  -44.5200  -27.7830 C.3   263  ARG263      0.0321
    177  CG        37.0240  -43.2940  -28.2530 C.3   263  ARG263      0.0489
    178  CD        35.6910  -43.6900  -28.8730 C.3   263  ARG263      0.2205
    179  NE        34.8970  -42.5220  -29.2480 N.pl3 263  ARG263     -0.0865
    180  CZ        33.7300  -42.5900  -29.8850 C.cat 263  ARG263      0.5346
    181  NH1       33.2410  -43.7800  -30.2150 N.pl3 263  ARG263      0.1354
    182  NH2       33.0430  -41.4830  -30.1760 N.pl3 263  ARG263      0.1354
    183  N         40.5410  -45.7150  -29.0390 N.am  264  CYS264     -0.1970
    184  CA        41.1340  -46.9630  -29.5150 C.3   264  CYS264      0.1712
    185  C         42.3920  -47.5060  -28.8410 C.2   264  CYS264      0.2296
    186  O         42.5960  -48.7180  -28.8140 O.2   264  CYS264     -0.2864
    187  CB        41.3400  -46.8760  -31.0290 C.3   264  CYS264      0.0983
    188  SG        39.7750  -46.7130  -31.9710 S.3   264  CYS264     -0.0798
@<TRIPOS>BOND
     1    78    77    1
     2    78    79    1
     3    88    89   ar
     4    88    86   ar
     5    77    74    1
     6    89    87   ar
     7    79    73    1
     8    86    85   ar
     9    90    91    1
    10    74    73    1
    11    74    75    1
    12    73    68   am
    13    87    85   ar
    14    85    84    1
    15    80    75   am
    16    80    81    1
    17    75    76    2
    18    94    91    1
    19    94    95    1
    20    91    92    1
    21    82    81    1
    22    82    83    2
    23    68    67    1
    24    68    69    2
    25    67    66    1
    26    67    70    1
    27    81    84    1
    28    92    93    2
    29    70    71    1
    30    70    72    1
    31    96    97    1
    32   102   104   ar
    33   102   101   ar
    34   134   133    1
    35   134   135    2
    36    37    36    2
    37   133   136    1
    38   133   132    1
    39   100    97    1
    40   100   101    1
    41   104   105   ar
    42    97    98    1
    43   101   103   ar
    44    98    99    2
    45   131   130    2
    46    36    38   am
    47    36    35    1
    48   132   130   am
    49   130   129    1
    50   105   103   ar
    51   105   107   ar
    52   103   106   ar
    53    34    35    1
    54    34    31    1
    55    30    31    1
    56    13    12    1
    57    13    16    1
    58    13    14    1
    59    15    14    2
    60   107   109   ar
    61    31    32    1
    62    16    17    1
    63    14    20   am
    64   129   128    1
    65   106   108   ar
    66   128   119   am
    67    20    21    1
    68   109   108   ar
    69    22    23    2
    70    22    21    1
    71    32    39   am
    72    32    33    2
    73    39    40    1
    74    17    18    2
    75    17    19   am
    76    21    24    1
    77    45    43    1
    78   119   120    2
    79   119   118    1
    80   110   116    1
    81   110   111    1
    82   121   118    1
    83   121   122    1
    84    43    40    1
    85    43    44    1
    86   123   122    1
    87   123   124    1
    88    40    41    1
    89   116   115    1
    90   117   118    1
    91   117   112   am
    92   124   125    2
    93   111   112    1
    94   111   114    1
    95    24    25    1
    96    46    44    1
    97   112   113    2
    98    41    42    2
    99   115   114    1
   100   125   126    1
   101   125   127    1
   102    25    27   ar
   103    25    26   ar
   104    27    29   ar
   105   144   143    2
   106   142   143    1
   107   142   141    1
   108   143   145   am
   109    26    28   ar
   110   137   138    1
   111    53    51    1
   112    29    28   ar
   113   141   138    1
   114   138   139    1
   115    47    48    1
   116    51    48    1
   117    51    52    1
   118    63    61   ar
   119    63    64   ar
   120    61    59   ar
   121    48    49    1
   122   139   140    2
   123   139   146   am
   124    54    49   am
   125    54    55    1
   126    65    64    1
   127    64    62   ar
   128    59    58    1
   129    59    60   ar
   130    49    50    2
   131    58    55    1
   132   146   147    1
   133    55    56    1
   134    62    60   ar
   135    56    57    2
   136   165   164    1
   137   149   148    2
   138   147   148    1
   139   147   150    1
   140   164   162   ar
   141   164   163   ar
   142     1     2    1
   143   150   151    1
   144     6     5    1
   145     6     7    1
   146   162   160   ar
   147   163   161   ar
   148     8     7    1
   149     8     9    2
   150    11     9    1
   151     5     2    1
   152     2     3    1
   153     9    10    1
   154   160   159   ar
   155   161   159   ar
   156   151   152    1
   157   151   153    1
   158   159   158    1
   159     3     4    2
   160   158   155    1
   161   171   170    1
   162   155   156    1
   163   155   154    1
   164   166   156   am
   165   166   167    1
   166   188   187    1
   167   156   157    2
   168   170   167    1
   169   167   168    1
   170   187   184    1
   171   181   180    1
   172   182   180    1
   173   168   169    2
   174   180   179    2
   175   184   183    1
   176   184   185    1
   177   179   178    1
   178   183   174   am
   179   178   177    1
   180   185   186    2
   181   177   176    1
   182   172   173    1
   183   174   173    1
   184   174   175    2
   185   176   173    1
