@<TRIPOS>MOLECULE
tmp/3k7yA00.pdb
 109 101 0 0 0
SMALL
GASTEIGER

@<TRIPOS>ATOM
      1  N         15.7730   30.1030   33.1000 N.3   105  GLY105     -0.1210
      2  CA        16.3860   30.4340   31.8270 C.3   105  GLY105      0.1956
      3  C         16.5710   29.1920   30.9810 C.2   105  GLY105      0.2612
      4  O         16.1780   28.0890   31.3980 O.2   105  GLY105     -0.2717
      5  N         17.1680   29.3610   29.7990 N.am  106  GLY106     -0.1942
      6  CA        17.4530   28.2310   28.9170 C.3   106  GLY106      0.2014
      7  C         18.3880   27.2190   29.5580 C.2   106  GLY106      0.2639
      8  O         18.1480   26.0170   29.4840 O.2   106  GLY106     -0.2714
      9  N         19.4500   27.7220   30.2010 N.am  107  THR107     -0.1950
     10  CA        20.4160   26.9120   30.9860 C.3   107  THR107      0.1897
     11  C         19.6560   26.0490   31.9620 C.2   107  THR107      0.2313
     12  O         19.9040   24.8410   32.0760 O.2   107  THR107     -0.2863
     13  CB        21.3710   27.8120   31.8360 C.3   107  THR107      0.1794
     14  OG1       21.9630   28.8230   31.0190 O.3   107  THR107     -0.2208
     15  CG2       22.4640   27.0030   32.5030 C.3   107  THR107      0.0378
     16  N         17.9110   23.2990   30.1050 N.3   110  ILE110     -0.1245
     17  CA        18.8340   22.3170   29.5620 C.3   110  ILE110      0.1561
     18  C         19.1850   21.3820   30.6970 C.2   110  ILE110      0.2260
     19  O         18.9300   20.1760   30.6230 O.2   110  ILE110     -0.2867
     20  CB        20.1150   22.9560   28.9630 C.3   110  ILE110      0.0252
     21  CG1       19.7850   23.7440   27.6920 C.3   110  ILE110      0.0019
     22  CG2       21.1750   21.8920   28.6500 C.3   110  ILE110      0.0019
     23  CD1       20.7750   24.9250   27.4280 C.3   110  ILE110      0.0001
     24  N         27.6240   24.8970   21.1800 N.3   132  TYR132     -0.1241
     25  CA        27.5440   25.9100   22.2140 C.3   132  TYR132      0.1605
     26  C         28.3880   25.4190   23.3960 C.2   132  TYR132      0.2264
     27  O         28.1160   24.3460   23.9380 O.2   132  TYR132     -0.2867
     28  CB        26.0930   26.1050   22.6180 C.3   132  TYR132      0.0534
     29  CG        25.9090   26.9950   23.8150 C.ar  132  TYR132     -0.0201
     30  CD1       25.0480   26.6270   24.8320 C.ar  132  TYR132     -0.0009
     31  CD2       26.6080   28.1920   23.9440 C.ar  132  TYR132     -0.0009
     32  CE1       24.8720   27.4260   25.9370 C.ar  132  TYR132      0.0417
     33  CE2       26.4460   28.9940   25.0470 C.ar  132  TYR132      0.0417
     34  CZ        25.5760   28.6040   26.0360 C.ar  132  TYR132      0.1957
     35  OH        25.3850   29.3770   27.1500 O.3   132  TYR132     -0.2866
     36  N         20.5820   23.0990   17.2910 N.3   180  GLN180     -0.1245
     37  CA        20.2980   24.5180   17.1700 C.3   180  GLN180      0.1566
     38  C         19.9820   24.7240   15.7020 C.2   180  GLN180      0.2260
     39  O         20.8690   24.6250   14.8460 O.2   180  GLN180     -0.2867
     40  CB        21.5120   25.3620   17.5480 C.3   180  GLN180      0.0367
     41  CG        22.0100   25.2050   18.9360 C.3   180  GLN180      0.0905
     42  CD        23.0970   26.2120   19.2440 C.2   180  GLN180      0.2608
     43  OE1       24.2490   25.8470   19.4970 O.2   180  GLN180     -0.2717
     44  NE2       22.7370   27.4990   19.2240 N.am  180  GLN180     -0.0878
     45  N         24.6550   29.3350   17.8580 N.3   185  ASN185     -0.1240
     46  CA        25.7070   29.8620   18.7250 C.3   185  ASN185      0.1653
     47  C         26.8350   28.8370   18.8970 C.2   185  ASN185      0.2266
     48  O         26.6380   27.8130   19.5380 O.2   185  ASN185     -0.2867
     49  CB        25.1110   30.2370   20.0820 C.3   185  ASN185      0.1155
     50  CG        26.1310   30.8320   21.0320 C.2   185  ASN185      0.2627
     51  OD1       27.3390   30.6600   20.8670 O.2   185  ASN185     -0.2716
     52  ND2       25.6450   31.5380   22.0410 N.am  185  ASN185     -0.0877
     53  N         17.3520   23.3830   20.8400 N.3   213  ASP213     -0.1239
     54  CA        17.7340   24.5270   21.6570 C.3   213  ASP213      0.1674
     55  C         17.3060   25.8520   21.0180 C.2   213  ASP213      0.2266
     56  O         17.8410   26.2720   19.9810 O.2   213  ASP213     -0.2867
     57  CB        19.2280   24.5430   21.9690 C.3   213  ASP213      0.1410
     58  CG        19.5720   25.4530   23.1590 C.2   213  ASP213      0.3668
     59  OD1       18.6680   26.1670   23.6920 O.co2 213  ASP213     -0.2456
     60  OD2       20.7550   25.4490   23.5730 O.co2 213  ASP213     -0.2456
     61  N         17.1750   29.6060   21.9020 N.3   215  ALA215     -0.1231
     62  CA        17.5080   30.7910   22.6790 C.3   215  ALA215      0.1694
     63  C         17.1380   32.1170   22.0220 C.2   215  ALA215      0.2592
     64  O         17.0670   33.1440   22.7090 O.2   215  ALA215     -0.2718
     65  CB        18.9470   30.7840   23.0140 C.3   215  ALA215      0.0304
     66  N         16.9050   32.1100   20.7080 N.am  216  TYR216     -0.1976
     67  CA        16.6520   33.3610   19.9800 C.3   216  TYR216      0.1639
     68  C         15.5240   33.2920   18.9470 C.2   216  TYR216      0.2290
     69  O         15.7640   33.5080   17.7510 O.2   216  TYR216     -0.2864
     70  CB        17.9230   33.8430   19.2640 C.3   216  TYR216      0.0560
     71  CG        19.1930   33.7230   20.0530 C.ar  216  TYR216     -0.0198
     72  CD1       19.5870   34.7330   20.9170 C.ar  216  TYR216     -0.0009
     73  CD2       20.0150   32.6060   19.9180 C.ar  216  TYR216     -0.0009
     74  CE1       20.7580   34.6290   21.6410 C.ar  216  TYR216      0.0417
     75  CE2       21.1860   32.4920   20.6470 C.ar  216  TYR216      0.0417
     76  CZ        21.5510   33.5100   21.5050 C.ar  216  TYR216      0.1957
     77  OH        22.7050   33.4180   22.2420 O.3   216  TYR216     -0.2866
     78  N         14.6360   29.7960   25.9220 N.3   246  SER246     -0.1217
     79  CA        15.0770   30.9310   26.7200 C.3   246  SER246      0.1889
     80  C         14.4260   32.1970   26.2270 C.2   246  SER246      0.2288
     81  O         14.1780   32.3450   25.0280 O.2   246  SER246     -0.2866
     82  CB        16.5880   31.1040   26.6300 C.3   246  SER246      0.2089
     83  OG        16.9830   32.3330   27.2300 O.3   246  SER246     -0.2183
     84  N         15.8450   35.0550   27.4600 N.3   248  SER248     -0.1202
     85  CA        16.8480   35.9900   27.9100 C.3   248  SER248      0.2020
     86  C         17.1040   37.0560   26.8780 C.2   248  SER248      0.2618
     87  O         17.3210   38.2100   27.2520 O.2   248  SER248     -0.2717
     88  CB        18.1340   35.3010   28.3170 C.3   248  SER248      0.2103
     89  OG        18.1080   35.0550   29.7140 O.3   248  SER248     -0.2182
     90  N         17.0350   36.6850   25.5950 N.am  249  LYS249     -0.1979
     91  CA        17.2250   37.6490   24.4980 C.3   249  LYS249      0.1596
     92  C         15.9360   38.1170   23.7900 C.2   249  LYS249      0.2287
     93  O         15.8100   39.2890   23.4390 O.2   249  LYS249     -0.2864
     94  CB        18.2490   37.1300   23.5010 C.3   249  LYS249      0.0298
     95  CG        19.6800   37.1900   24.0220 C.3   249  LYS249      0.0038
     96  CD        20.1010   35.9230   24.7860 C.3   249  LYS249      0.0206
     97  CE        21.5660   36.0110   25.2200 C.3   249  LYS249      0.1093
     98  NZ        22.0160   34.8570   26.0490 N.3   249  LYS249     -0.1314
     99  N         16.1970   35.3750   34.3910 N.3   257  ARG257     -0.1245
    100  CA        16.3850   33.9430   34.1250 C.3   257  ARG257      0.1563
    101  C         15.0890   33.2790   33.6830 C.2   257  ARG257      0.2260
    102  O         14.6890   32.2580   34.2560 O.2   257  ARG257     -0.2867
    103  CB        16.9890   33.2150   35.3250 C.3   257  ARG257      0.0307
    104  CG        18.0650   33.9930   36.0590 C.3   257  ARG257      0.0489
    105  CD        19.2770   34.2900   35.1870 C.3   257  ARG257      0.2205
    106  NE        19.8780   33.0610   34.6820 N.pl3 257  ARG257     -0.0865
    107  CZ        19.7850   32.6250   33.4270 C.cat 257  ARG257      0.5346
    108  NH1       19.1280   33.3320   32.4930 N.pl3 257  ARG257      0.1354
    109  NH2       20.3660   31.4760   33.1060 N.pl3 257  ARG257      0.1354
@<TRIPOS>BOND
     1    39    38    2
     2    38    37    1
     3    37    36    1
     4    37    40    1
     5    40    41    1
     6    69    68    2
     7    45    46    1
     8    46    47    1
     9    46    49    1
    10    47    48    2
    11    41    42    1
    12    68    67    1
    13    44    42   am
    14    42    43    2
    15    70    67    1
    16    70    71    1
    17    73    71   ar
    18    73    75   ar
    19    67    66    1
    20    56    55    2
    21    71    72   ar
    22    49    50    1
    23    75    76   ar
    24    66    63   am
    25    53    54    1
    26    51    50    2
    27    72    74   ar
    28    55    54    1
    29    50    52   am
    30    24    25    1
    31    76    74   ar
    32    76    77    1
    33    54    57    1
    34    61    62    1
    35    57    58    1
    36    63    62    1
    37    63    64    2
    38    25    28    1
    39    25    26    1
    40    28    29    1
    41    62    65    1
    42    58    60   ar
    43    58    59   ar
    44    26    27    2
    45    93    92    2
    46    94    95    1
    47    94    91    1
    48    92    91    1
    49    29    31   ar
    50    29    30   ar
    51    31    33   ar
    52    95    96    1
    53    91    90    1
    54    96    97    1
    55    30    32   ar
    56    81    80    2
    57    33    34   ar
    58    97    98    1
    59    90    86   am
    60    78    79    1
    61    32    34   ar
    62    34    35    1
    63    80    79    1
    64    82    79    1
    65    82    83    1
    66    86    87    2
    67    86    85    1
    68    23    21    1
    69    84    85    1
    70    21    20    1
    71    85    88    1
    72    88    89    1
    73    22    20    1
    74     6     7    1
    75     6     5    1
    76    20    17    1
    77     8     7    2
    78     7     9   am
    79    17    16    1
    80    17    18    1
    81     5     3   am
    82     9    10    1
    83    19    18    2
    84     3     4    2
    85     3     2    1
    86    10    13    1
    87    10    11    1
    88    14    13    1
    89     2     1    1
    90    13    15    1
    91    11    12    2
    92   108   107    1
    93   109   107    1
    94   107   106    2
    95   101   100    1
    96   101   102    2
    97   100    99    1
    98   100   103    1
    99   106   105    1
   100   105   104    1
   101   103   104    1
