@<TRIPOS>MOLECULE
tmp/3k83B00.pdb
 197 185 0 0 0
SMALL
GASTEIGER

@<TRIPOS>ATOM
      1  N         48.6480  -11.0060  -48.9010 N.3   110  LYS110     -0.1245
      2  CA        49.8880  -10.2590  -48.7620 C.3   110  LYS110      0.1561
      3  C         51.0070  -11.2910  -48.5650 C.2   110  LYS110      0.2260
      4  O         50.8170  -12.3250  -47.8930 O.2   110  LYS110     -0.2867
      5  CB        49.7860   -9.2670  -47.5930 C.3   110  LYS110      0.0271
      6  CG        51.0020   -8.3680  -47.3210 C.3   110  LYS110      0.0035
      7  CD        50.6790   -7.4720  -46.1260 C.3   110  LYS110      0.0206
      8  CE        51.8110   -6.5300  -45.7780 C.3   110  LYS110      0.1093
      9  NZ        51.4220   -5.6430  -44.6300 N.3   110  LYS110     -0.1314
     10  N         58.4010   -4.3800  -45.3450 N.3   159  MET159     -0.1230
     11  CA        57.0400   -3.9980  -44.9060 C.3   159  MET159      0.1702
     12  C         56.9600   -2.7190  -44.0410 C.2   159  MET159      0.2592
     13  O         55.8640   -2.2160  -43.7780 O.2   159  MET159     -0.2718
     14  CB        56.2870   -5.1490  -44.2110 C.3   159  MET159      0.0401
     15  CG        56.1350   -6.4260  -45.0390 C.3   159  MET159      0.0596
     16  SD        54.9920   -7.5950  -44.2390 S.3   159  MET159     -0.1393
     17  CE        55.9600   -8.1250  -42.8160 C.3   159  MET159      0.0692
     18  N         58.0990   -2.1930  -43.6020 N.am  160  PHE160     -0.1962
     19  CA        58.0880   -0.9870  -42.7600 C.3   160  PHE160      0.1771
     20  C         57.9790    0.2760  -43.6270 C.2   160  PHE160      0.2620
     21  O         58.8790    1.1280  -43.6490 O.2   160  PHE160     -0.2715
     22  CB        59.3590   -0.9160  -41.8970 C.3   160  PHE160      0.0574
     23  CG        59.1050   -0.6050  -40.4610 C.ar  160  PHE160     -0.0200
     24  CD1       59.7900   -1.2710  -39.4670 C.ar  160  PHE160     -0.0042
     25  CD2       58.1550    0.3280  -40.0960 C.ar  160  PHE160     -0.0042
     26  CE1       59.5500   -0.9910  -38.1360 C.ar  160  PHE160     -0.0003
     27  CE2       57.9070    0.6120  -38.7660 C.ar  160  PHE160     -0.0003
     28  CZ        58.5950   -0.0430  -37.7920 C.ar  160  PHE160     -0.0000
     29  N         56.8680    0.4030  -44.3360 N.am  161  SER161     -0.1936
     30  CA        56.7190    1.4560  -45.3190 C.3   161  SER161      0.2055
     31  C         55.2480    1.5540  -45.7000 C.2   161  SER161      0.2643
     32  O         54.5350    0.5410  -45.6420 O.2   161  SER161     -0.2714
     33  CB        57.5440    1.0940  -46.5680 C.3   161  SER161      0.2130
     34  OG        57.1550    1.8970  -47.6670 O.3   161  SER161     -0.2179
     35  N         54.7840    2.7410  -46.1100 N.am  162  TYR162     -0.1973
     36  CA        53.4590    2.8080  -46.7080 C.3   162  TYR162      0.1639
     37  C         53.4940    3.0580  -48.2190 C.2   162  TYR162      0.2290
     38  O         52.4890    3.4700  -48.8310 O.2   162  TYR162     -0.2864
     39  CB        52.4500    3.6960  -45.9380 C.3   162  TYR162      0.0560
     40  CG        52.7170    5.1860  -45.9310 C.ar  162  TYR162     -0.0198
     41  CD1       52.0160    6.0390  -46.7890 C.ar  162  TYR162     -0.0009
     42  CD2       53.6530    5.7420  -45.0630 C.ar  162  TYR162     -0.0009
     43  CE1       52.2410    7.3930  -46.7900 C.ar  162  TYR162      0.0417
     44  CE2       53.8990    7.1190  -45.0530 C.ar  162  TYR162      0.0417
     45  CZ        53.1850    7.9420  -45.9130 C.ar  162  TYR162      0.1957
     46  OH        53.4130    9.3130  -45.9300 O.3   162  TYR162     -0.2866
     47  N         51.9510   -1.1020  -46.1410 N.3   185  SER185     -0.1217
     48  CA        52.6830   -2.1450  -46.8590 C.3   185  SER185      0.1889
     49  C         51.8300   -3.1960  -47.5750 C.2   185  SER185      0.2288
     50  O         52.3650   -3.9840  -48.3520 O.2   185  SER185     -0.2866
     51  CB        53.7040   -2.8270  -45.9390 C.3   185  SER185      0.2089
     52  OG        53.0750   -3.5500  -44.8800 O.3   185  SER185     -0.2183
     53  N         48.3350   -6.9380  -43.2720 N.3   204  THR204     -0.1218
     54  CA        48.7780   -6.6890  -41.8960 C.3   204  THR204      0.1862
     55  C         49.0070   -5.1910  -41.7000 C.2   204  THR204      0.2287
     56  O         49.0830   -4.4370  -42.6630 O.2   204  THR204     -0.2866
     57  CB        50.0480   -7.5010  -41.5190 C.3   204  THR204      0.1770
     58  OG1       51.1330   -7.1240  -42.3620 O.3   204  THR204     -0.2211
     59  CG2       49.7910   -9.0430  -41.6840 C.3   204  THR204      0.0375
     60  N         50.8270   -2.3270  -38.7920 N.3   206  ILE206     -0.1231
     61  CA        51.4770   -1.8990  -37.5390 C.3   206  ILE206      0.1692
     62  C         51.4620   -0.3800  -37.3760 C.2   206  ILE206      0.2592
     63  O         51.6170    0.1190  -36.2710 O.2   206  ILE206     -0.2718
     64  CB        52.9250   -2.4810  -37.3460 C.3   206  ILE206      0.0266
     65  CG1       53.1440   -2.8720  -35.8690 C.3   206  ILE206      0.0019
     66  CG2       54.0020   -1.4960  -37.8050 C.3   206  ILE206      0.0020
     67  CD1       54.4670   -3.5670  -35.5880 C.3   206  ILE206      0.0001
     68  N         51.2350    0.3410  -38.4770 N.am  207  GLY207     -0.1957
     69  CA        51.1070    1.7830  -38.4350 C.3   207  GLY207      0.1869
     70  C         50.1520    2.3390  -39.4770 C.2   207  GLY207      0.2309
     71  O         50.1600    3.5460  -39.7150 O.2   207  GLY207     -0.2863
     72  N         49.2160   -0.1540  -42.3510 N.3   209  SER209     -0.1217
     73  CA        49.4840   -0.9460  -43.5630 C.3   209  SER209      0.1889
     74  C         48.2970   -1.6980  -44.2020 C.2   209  SER209      0.2288
     75  O         48.4220   -2.1860  -45.3060 O.2   209  SER209     -0.2866
     76  CB        50.6790   -1.8950  -43.3690 C.3   209  SER209      0.2089
     77  OG        51.8960   -1.1770  -43.3410 O.3   209  SER209     -0.2183
     78  N         46.2560    2.3440  -45.3380 N.3   212  PHE212     -0.1241
     79  CA        46.8450    3.1260  -46.4210 C.3   212  PHE212      0.1605
     80  C         46.4420    2.5590  -47.7730 C.2   212  PHE212      0.2264
     81  O         45.8620    3.2900  -48.5950 O.2   212  PHE212     -0.2867
     82  CB        48.3890    3.2250  -46.3220 C.3   212  PHE212      0.0534
     83  CG        48.8990    4.0260  -45.1170 C.ar  212  PHE212     -0.0203
     84  CD1       48.5570    5.3540  -44.9470 C.ar  212  PHE212     -0.0042
     85  CD2       49.7530    3.4360  -44.1810 C.ar  212  PHE212     -0.0042
     86  CE1       49.0460    6.0940  -43.8490 C.ar  212  PHE212     -0.0003
     87  CE2       50.2460    4.1470  -43.0940 C.ar  212  PHE212     -0.0003
     88  CZ        49.9020    5.4840  -42.9170 C.ar  212  PHE212     -0.0000
     89  N         55.1220  -14.4560  -41.5840 N.3   235  LYS235     -0.1231
     90  CA        56.5230  -14.0890  -41.7830 C.3   235  LYS235      0.1693
     91  C         56.7180  -12.6420  -41.3690 C.2   235  LYS235      0.2593
     92  O         55.9560  -11.7650  -41.7650 O.2   235  LYS235     -0.2718
     93  CB        56.9460  -14.2540  -43.2450 C.3   235  LYS235      0.0285
     94  CG        58.3940  -13.8620  -43.5270 C.3   235  LYS235      0.0035
     95  CD        59.3680  -14.8490  -42.8850 C.3   235  LYS235      0.0206
     96  CE        60.7920  -14.6810  -43.4180 C.3   235  LYS235      0.1093
     97  NZ        61.0950  -15.7250  -44.4860 N.3   235  LYS235     -0.1314
     98  N         57.7460  -12.3960  -40.5760 N.am  236  GLY236     -0.1942
     99  CA        57.9910  -11.0660  -40.0500 C.3   236  GLY236      0.2014
    100  C         59.4270  -10.6460  -40.2600 C.2   236  GLY236      0.2639
    101  O         60.2110  -11.3720  -40.8700 O.2   236  GLY236     -0.2714
    102  N         59.7760   -9.4620  -39.7710 N.am  237  CYS237     -0.1953
    103  CA        61.1580   -8.9990  -39.8680 C.3   237  CYS237      0.1843
    104  C         61.6300   -8.4560  -38.5270 C.2   237  CYS237      0.2625
    105  O         62.8120   -8.2190  -38.3350 O.2   237  CYS237     -0.2714
    106  CB        61.3280   -7.9260  -40.9600 C.3   237  CYS237      0.0997
    107  SG        60.4850   -6.4120  -40.5980 S.3   237  CYS237     -0.0797
    108  N         60.6960   -8.2390  -37.6080 N.am  238  VAL238     -0.1977
    109  CA        61.0470   -7.8570  -36.2360 C.3   238  VAL238      0.1596
    110  C         60.2120   -8.6990  -35.2910 C.2   238  VAL238      0.2287
    111  O         58.9900   -8.7340  -35.3810 O.2   238  VAL238     -0.2864
    112  CB        60.8200   -6.3380  -35.9250 C.3   238  VAL238      0.0276
    113  CG1       61.0630   -6.0660  -34.4440 C.3   238  VAL238      0.0022
    114  CG2       61.7440   -5.4540  -36.7730 C.3   238  VAL238      0.0022
    115  N         50.9730   -5.2730  -33.7260 N.3   246  LEU246     -0.1245
    116  CA        50.7410   -5.7080  -35.1080 C.3   246  LEU246      0.1561
    117  C         49.3870   -6.3860  -35.2610 C.2   246  LEU246      0.2260
    118  O         49.0300   -7.2730  -34.4890 O.2   246  LEU246     -0.2867
    119  CB        51.8130   -6.6820  -35.5780 C.3   246  LEU246      0.0270
    120  CG        51.6000   -7.1630  -37.0320 C.3   246  LEU246      0.0019
    121  CD1       51.8430   -6.0400  -38.0680 C.3   246  LEU246      0.0001
    122  CD2       52.4420   -8.3860  -37.3810 C.3   246  LEU246      0.0001
    123  N         56.6750    5.6270  -31.8880 N.3   345  THR345     -0.1218
    124  CA        58.0190    5.5730  -32.4450 C.3   345  THR345      0.1862
    125  C         58.9860    4.8500  -31.4890 C.2   345  THR345      0.2287
    126  O         59.7070    3.9360  -31.9010 O.2   345  THR345     -0.2866
    127  CB        58.5200    6.9920  -32.8120 C.3   345  THR345      0.1770
    128  OG1       57.6240    7.5670  -33.7640 O.3   345  THR345     -0.2211
    129  CG2       59.9420    6.9640  -33.4170 C.3   345  THR345      0.0375
    130  N         58.0860    1.0380  -31.6030 N.3   348  LEU348     -0.1231
    131  CA        58.5970    0.4130  -32.8180 C.3   348  LEU348      0.1693
    132  C         60.1220    0.3500  -32.8880 C.2   348  LEU348      0.2592
    133  O         60.6780   -0.5750  -33.4890 O.2   348  LEU348     -0.2718
    134  CB        58.0610    1.1560  -34.0430 C.3   348  LEU348      0.0284
    135  CG        56.5440    1.0480  -34.1130 C.3   348  LEU348      0.0019
    136  CD1       56.0190    2.0580  -35.1100 C.3   348  LEU348      0.0001
    137  CD2       56.1340   -0.4180  -34.4560 C.3   348  LEU348      0.0001
    138  N         60.7970    1.3110  -32.2550 N.am  349  PHE349     -0.1976
    139  CA        62.2500    1.4350  -32.3880 C.3   349  PHE349      0.1639
    140  C         63.0270    1.4040  -31.0700 C.2   349  PHE349      0.2290
    141  O         64.0530    2.0620  -30.9420 O.2   349  PHE349     -0.2864
    142  CB        62.5880    2.7020  -33.1870 C.3   349  PHE349      0.0560
    143  CG        62.1450    2.6280  -34.6200 C.ar  349  PHE349     -0.0200
    144  CD1       62.8540    1.8550  -35.5360 C.ar  349  PHE349     -0.0042
    145  CD2       61.0070    3.2920  -35.0460 C.ar  349  PHE349     -0.0042
    146  CE1       62.4510    1.7640  -36.8320 C.ar  349  PHE349     -0.0003
    147  CE2       60.6020    3.2160  -36.3640 C.ar  349  PHE349     -0.0003
    148  CZ        61.3210    2.4530  -37.2590 C.ar  349  PHE349     -0.0000
    149  N         65.4040    6.0420  -44.2140 N.3   372  LEU372     -0.1245
    150  CA        65.1620    5.2980  -42.9730 C.3   372  LEU372      0.1561
    151  C         66.3740    4.4400  -42.5060 C.2   372  LEU372      0.2260
    152  O         66.7910    4.4960  -41.3520 O.2   372  LEU372     -0.2867
    153  CB        63.9090    4.4200  -43.1210 C.3   372  LEU372      0.0270
    154  CG        63.5600    3.5300  -41.9230 C.3   372  LEU372      0.0019
    155  CD1       63.3710    4.3650  -40.6390 C.3   372  LEU372      0.0001
    156  CD2       62.3170    2.6960  -42.2150 C.3   372  LEU372      0.0001
    157  N         61.3400   12.5260  -33.5020 N.3   400  PHE400     -0.1241
    158  CA        61.3830   11.1610  -34.0600 C.3   400  PHE400      0.1605
    159  C         62.7920   10.5920  -33.8940 C.2   400  PHE400      0.2264
    160  O         62.9560    9.4680  -33.4150 O.2   400  PHE400     -0.2867
    161  CB        60.9450   11.1040  -35.5270 C.3   400  PHE400      0.0534
    162  CG        59.4600   10.8500  -35.7210 C.ar  400  PHE400     -0.0203
    163  CD1       59.0130    9.6650  -36.2890 C.ar  400  PHE400     -0.0042
    164  CD2       58.5100   11.8010  -35.3390 C.ar  400  PHE400     -0.0042
    165  CE1       57.6410    9.4260  -36.4800 C.ar  400  PHE400     -0.0003
    166  CE2       57.1450   11.5610  -35.5180 C.ar  400  PHE400     -0.0003
    167  CZ        56.7150   10.3730  -36.0930 C.ar  400  PHE400     -0.0000
    168  N         64.2350    7.1230  -31.5390 N.3   404  MET404     -0.1245
    169  CA        64.5750    5.9700  -32.3570 C.3   404  MET404      0.1570
    170  C         65.9190    5.4520  -31.8940 C.2   404  MET404      0.2261
    171  O         66.5840    4.6900  -32.6020 O.2   404  MET404     -0.2867
    172  CB        64.6140    6.3630  -33.8470 C.3   404  MET404      0.0387
    173  CG        63.2340    6.4850  -34.4740 C.3   404  MET404      0.0595
    174  SD        63.1240    7.4060  -36.0200 S.3   404  MET404     -0.1393
    175  CE        63.5940    6.1260  -37.1980 C.3   404  MET404      0.0692
    176  N         57.1400   10.6250  -43.3120 N.3   456  THR456     -0.1218
    177  CA        56.8460    9.7180  -42.1920 C.3   456  THR456      0.1862
    178  C         55.7650   10.2820  -41.2720 C.2   456  THR456      0.2287
    179  O         54.9610    9.5300  -40.6910 O.2   456  THR456     -0.2866
    180  CB        58.1350    9.4340  -41.3970 C.3   456  THR456      0.1770
    181  OG1       59.0970    8.8720  -42.2890 O.3   456  THR456     -0.2211
    182  CG2       57.8940    8.4630  -40.2460 C.3   456  THR456      0.0375
    183  N         51.8570    9.2400  -41.1030 N.3   459  VAL459     -0.1245
    184  CA        51.3350    8.0120  -40.5180 C.3   459  VAL459      0.1561
    185  C         50.5050    8.3590  -39.2650 C.2   459  VAL459      0.2260
    186  O         49.8650    7.4920  -38.6570 O.2   459  VAL459     -0.2867
    187  CB        52.4370    6.9530  -40.1600 C.3   459  VAL459      0.0252
    188  CG1       53.3220    6.6100  -41.3610 C.3   459  VAL459      0.0019
    189  CG2       53.2810    7.3980  -38.9300 C.3   459  VAL459      0.0019
    190  N         48.5880    5.3830  -37.2640 N.3   463  MET463     -0.1245
    191  CA        49.4680    4.7530  -36.2730 C.3   463  MET463      0.1570
    192  C         48.9370    4.9800  -34.8550 C.2   463  MET463      0.2261
    193  O         49.2180    4.1990  -33.9340 O.2   463  MET463     -0.2867
    194  CB        50.9160    5.2800  -36.3560 C.3   463  MET463      0.0387
    195  CG        51.9090    4.4090  -35.5200 C.3   463  MET463      0.0595
    196  SD        53.6020    4.7340  -35.9650 S.3   463  MET463     -0.1393
    197  CE        53.7080    6.4430  -35.5020 C.3   463  MET463      0.0692
@<TRIPOS>BOND
     1     1     2    1
     2    38    37    2
     3     2     3    1
     4     2     5    1
     5    81    80    2
     6     3     4    2
     7    50    49    2
     8    37    36    1
     9    80    79    1
    10    34    33    1
    11     5     6    1
    12    49    48    1
    13     6     7    1
    14    48    47    1
    15    48    51    1
    16    43    41   ar
    17    43    45   ar
    18    41    40   ar
    19    36    35    1
    20    36    39    1
    21    33    30    1
    22    79    82    1
    23    79    78    1
    24    82    83    1
    25     7     8    1
    26    35    31   am
    27    51    52    1
    28    39    40    1
    29    40    42   ar
    30    46    45    1
    31    45    44   ar
    32     8     9    1
    33    31    32    2
    34    31    30    1
    35    10    11    1
    36    30    29    1
    37    75    74    2
    38    83    84   ar
    39    83    85   ar
    40    42    44   ar
    41    15    16    1
    42    15    14    1
    43    84    86   ar
    44    11    14    1
    45    11    12    1
    46    97    96    1
    47    29    20   am
    48    16    17    1
    49   149   150    1
    50    74    73    1
    51    85    87   ar
    52    12    13    2
    53    12    18   am
    54    86    88   ar
    55    21    20    2
    56    20    19    1
    57    18    19    1
    58    73    76    1
    59    73    72    1
    60    94    93    1
    61    94    95    1
    62    96    95    1
    63    76    77    1
    64   176   177    1
    65    53    54    1
    66    93    90    1
    67   153   150    1
    68   153   154    1
    69    87    88   ar
    70   150   151    1
    71    19    22    1
    72    56    55    2
    73   151   152    2
    74    58    57    1
    75   181   180    1
    76   156   154    1
    77   177   180    1
    78   177   178    1
    79   154   155    1
    80    22    23    1
    81    54    55    1
    82    54    57    1
    83    90    89    1
    84    90    91    1
    85    92    91    2
    86    59    57    1
    87   180   182    1
    88    91    98   am
    89   188   187    1
    90   178   179    2
    91   183   184    1
    92   106   107    1
    93   106   103    1
    94   101   100    2
    95    98    99    1
    96   184   187    1
    97   184   185    1
    98    23    25   ar
    99    23    24   ar
   100   100    99    1
   101   100   102   am
   102   187   189    1
   103    25    27   ar
   104   103   102    1
   105   103   104    1
   106    71    70    2
   107    70    69    1
   108    24    26   ar
   109   185   186    2
   110    60    61    1
   111    27    28   ar
   112   104   105    2
   113   104   108   am
   114    68    69    1
   115    68    62   am
   116    26    28   ar
   117   121   120    1
   118    66    64    1
   119   108   109    1
   120    61    62    1
   121    61    64    1
   122   122   120    1
   123    62    63    2
   124    64    65    1
   125   190   191    1
   126   148   146   ar
   127   148   147   ar
   128   175   174    1
   129   120   119    1
   130   146   144   ar
   131   114   112    1
   132   165   163   ar
   133   165   167   ar
   134   147   145   ar
   135   194   191    1
   136   194   195    1
   137   163   162   ar
   138   191   192    1
   139   109   112    1
   140   109   110    1
   141   167   166   ar
   142   174   173    1
   143   196   195    1
   144   196   197    1
   145   112   113    1
   146    65    67    1
   147   162   161    1
   148   162   164   ar
   149   119   116    1
   150   144   143   ar
   151   161   158    1
   152   166   164   ar
   153   111   110    2
   154   117   116    1
   155   117   118    2
   156   136   135    1
   157   116   115    1
   158   145   143   ar
   159   192   193    2
   160   143   142    1
   161   173   172    1
   162   137   135    1
   163   135   134    1
   164   158   159    1
   165   158   157    1
   166   134   131    1
   167   159   160    2
   168   172   169    1
   169   128   127    1
   170   133   132    2
   171   129   127    1
   172   142   139    1
   173   132   131    1
   174   132   138   am
   175   131   130    1
   176   127   124    1
   177   171   170    2
   178   124   123    1
   179   124   125    1
   180   139   138    1
   181   139   140    1
   182   169   170    1
   183   169   168    1
   184   126   125    2
   185   140   141    2
