@<TRIPOS>MOLECULE
tmp/3k87B00.pdb
 201 196 0 0 0
SMALL
GASTEIGER

@<TRIPOS>ATOM
      1  N         63.0850   62.6320    4.0210 N.3    20  VAL20      -0.1245
      2  CA        64.5060   62.5150    3.6940 C.3    20  VAL20       0.1561
      3  C         65.1710   61.7240    4.8280 C.2    20  VAL20       0.2260
      4  O         65.0870   62.1310    5.9830 O.2    20  VAL20      -0.2867
      5  CB        65.1920   63.8780    3.6190 C.3    20  VAL20       0.0252
      6  CG1       66.6510   63.7040    3.3480 C.3    20  VAL20       0.0019
      7  CG2       64.5450   64.7800    2.5450 C.3    20  VAL20       0.0019
      8  N         74.3180   57.0090    3.2780 N.3    34  LEU34      -0.1231
      9  CA        74.0110   57.8810    2.1690 C.3    34  LEU34       0.1693
     10  C         72.6330   58.4610    2.3840 C.2    34  LEU34       0.2593
     11  O         71.8750   57.9480    3.2070 O.2    34  LEU34      -0.2718
     12  CB        74.0880   57.1560    0.8170 C.3    34  LEU34       0.0284
     13  CG        72.8130   56.3790    0.5090 C.3    34  LEU34       0.0019
     14  CD1       72.7530   55.9630   -0.9560 C.3    34  LEU34       0.0001
     15  CD2       72.7260   55.1670    1.4620 C.3    34  LEU34       0.0001
     16  N         72.2850   59.5430    1.6860 N.am   35  THR35      -0.1939
     17  CA        70.8990   59.9820    1.8640 C.3    35  THR35       0.2028
     18  C         69.9360   59.3110    0.9090 C.2    35  THR35       0.2642
     19  O         70.2330   59.0800   -0.2680 O.2    35  THR35      -0.2714
     20  CB        70.6860   61.5170    2.1460 C.3    35  THR35       0.1808
     21  OG1       69.6130   62.0610    1.3530 O.3    35  THR35      -0.2208
     22  CG2       71.9220   62.2490    1.9770 C.3    35  THR35       0.0379
     23  N         68.8080   58.9110    1.4730 N.am   36  CYS36      -0.1953
     24  CA        67.9060   58.0100    0.7980 C.3    36  CYS36       0.1843
     25  C         66.5010   58.5040    1.0290 C.2    36  CYS36       0.2626
     26  O         66.1200   58.7800    2.1620 O.2    36  CYS36      -0.2714
     27  CB        68.1210   56.5940    1.3770 C.3    36  CYS36       0.0997
     28  SG        66.8620   55.3940    0.8250 S.3    36  CYS36      -0.0797
     29  N         65.7040   58.6360   -0.0250 N.am   37  SER37      -0.1936
     30  CA        64.2870   58.9520    0.2050 C.3    37  SER37       0.2055
     31  C         63.3870   57.8070   -0.1770 C.2    37  SER37       0.2642
     32  O         62.1930   57.8830    0.0650 O.2    37  SER37      -0.2714
     33  CB        63.8500   60.1730   -0.6170 C.3    37  SER37       0.2130
     34  OG        64.2890   59.9950   -1.9620 O.3    37  SER37      -0.2179
     35  N         63.9430   56.7690   -0.7940 N.am   38  ALA38      -0.1977
     36  CA        63.1270   55.6970   -1.3300 C.3    38  ALA38       0.1597
     37  C         63.0640   54.6400   -0.2390 C.2    38  ALA38       0.2287
     38  O         63.7840   53.6070   -0.2790 O.2    38  ALA38      -0.2864
     39  CB        63.7270   55.1480   -2.6520 C.3    38  ALA38       0.0319
     40  N         65.5590   51.5140   -1.0850 N.3    52  CYS52      -0.1221
     41  CA        66.0300   51.2540   -2.4360 C.3    52  CYS52       0.1808
     42  C         67.2290   52.0800   -2.6920 C.2    52  CYS52       0.2601
     43  O         67.1470   53.3250   -2.7380 O.2    52  CYS52      -0.2717
     44  CB        64.9610   51.6300   -3.4540 C.3    52  CYS52       0.0970
     45  SG        63.4680   50.6770   -3.1180 S.3    52  CYS52      -0.0800
     46  N         68.3530   51.4030   -2.8770 N.am   53  ILE53      -0.1965
     47  CA        69.5690   52.1360   -3.0820 C.3    53  ILE53       0.1727
     48  C         70.3470   51.7090   -4.2980 C.2    53  ILE53       0.2616
     49  O         70.4470   50.5120   -4.6370 O.2    53  ILE53      -0.2715
     50  CB        70.4190   52.2500   -1.7940 C.3    53  ILE53       0.0290
     51  CG1       71.5610   51.2990   -1.7730 C.3    53  ILE53       0.0022
     52  CG2       69.5860   52.1570   -0.4600 C.3    53  ILE53       0.0023
     53  CD1       72.7670   52.0540   -1.2260 C.3    53  ILE53       0.0001
     54  N         70.8610   52.7120   -5.0030 N.am   54  ASN54      -0.1972
     55  CA        71.5490   52.4640   -6.2530 C.3    54  ASN54       0.1688
     56  C         72.7770   51.6200   -5.9680 C.2    54  ASN54       0.2292
     57  O         73.5370   51.9490   -5.0570 O.2    54  ASN54      -0.2864
     58  CB        71.9030   53.7850   -6.9250 C.3    54  ASN54       0.1181
     59  CG        72.2900   53.6170   -8.3830 C.2    54  ASN54       0.2629
     60  OD1       73.0490   52.7070   -8.7390 O.2    54  ASN54      -0.2716
     61  ND2       71.7660   54.4960   -9.2410 N.am   54  ASN54      -0.0877
     62  N         75.3680   51.4390   -7.5660 N.3    56  LYS56      -0.1231
     63  CA        76.5470   52.2540   -7.8650 C.3    56  LYS56       0.1693
     64  C         77.0370   53.0120   -6.6110 C.2    56  LYS56       0.2593
     65  O         78.1910   53.4100   -6.5400 O.2    56  LYS56      -0.2718
     66  CB        76.2290   53.2740   -8.9770 C.3    56  LYS56       0.0285
     67  CG        76.3620   52.8260  -10.4220 C.3    56  LYS56       0.0035
     68  CD        75.8000   51.4230  -10.6940 C.3    56  LYS56       0.0206
     69  CE        76.8190   50.2910  -10.3810 C.3    56  LYS56       0.1093
     70  NZ        76.2180   48.9270  -10.5580 N.3    56  LYS56      -0.1314
     71  N         76.1650   53.2490   -5.6400 N.am   57  SER57      -0.1938
     72  CA        76.5910   53.9530   -4.4230 C.3    57  SER57       0.2055
     73  C         77.7930   53.2710   -3.7800 C.2    57  SER57       0.2643
     74  O         77.8520   52.0560   -3.6920 O.2    57  SER57      -0.2714
     75  CB        75.4340   54.0410   -3.4290 C.3    57  SER57       0.2130
     76  OG        75.8680   54.4030   -2.1340 O.3    57  SER57      -0.2179
     77  N         78.7740   54.0590   -3.3430 N.am   58  TYR58      -0.1959
     78  CA        79.8720   53.5020   -2.5720 C.3    58  TYR58       0.1771
     79  C         79.2810   52.8430   -1.3230 C.2    58  TYR58       0.2619
     80  O         79.7470   51.8180   -0.8420 O.2    58  TYR58      -0.2715
     81  CB        80.8700   54.5910   -2.1690 C.3    58  TYR58       0.0574
     82  CG        82.0150   54.0050   -1.3890 C.ar   58  TYR58      -0.0198
     83  CD1       82.9680   53.2240   -2.0270 C.ar   58  TYR58      -0.0009
     84  CD2       82.1150   54.1810   -0.0110 C.ar   58  TYR58      -0.0009
     85  CE1       84.0080   52.6420   -1.3230 C.ar   58  TYR58       0.0417
     86  CE2       83.1590   53.6120    0.7040 C.ar   58  TYR58       0.0417
     87  CZ        84.0960   52.8320    0.0380 C.ar   58  TYR58       0.1957
     88  OH        85.1360   52.2440    0.7200 O.3    58  TYR58      -0.2866
     89  N         78.2160   53.4080   -0.7930 N.am   59  ALA59      -0.1977
     90  CA        77.7230   52.8650    0.4680 C.3    59  ALA59       0.1597
     91  C         76.9680   51.5230    0.3050 C.2    59  ALA59       0.2287
     92  O         76.8380   50.7870    1.2760 O.2    59  ALA59      -0.2864
     93  CB        76.8730   53.9010    1.1850 C.3    59  ALA59       0.0319
     94  N         71.5820   65.9390    5.3920 N.3    82  SER82      -0.1202
     95  CA        71.1550   65.3880    4.1060 C.3    82  SER82       0.2020
     96  C         72.2090   65.7230    3.0570 C.2    82  SER82       0.2618
     97  O         72.5730   64.8770    2.2200 O.2    82  SER82      -0.2717
     98  CB        69.7690   65.9410    3.7070 C.3    82  SER82       0.2103
     99  OG        69.4090   65.5130    2.4000 O.3    82  SER82      -0.2182
    100  N         72.7070   66.9560    3.0800 N.am   83  GLN83      -0.1979
    101  CA        73.6400   67.3850    2.0350 C.3    83  GLN83       0.1601
    102  C         74.9720   66.6180    2.1280 C.2    83  GLN83       0.2287
    103  O         75.5670   66.2130    1.1170 O.2    83  GLN83      -0.2864
    104  CB        73.8750   68.9210    2.1250 C.3    83  GLN83       0.0394
    105  CG        72.7140   69.7460    1.5900 C.3    83  GLN83       0.0908
    106  CD        72.6160   69.6860    0.0590 C.2    83  GLN83       0.2608
    107  OE1       71.7320   69.0360   -0.5090 O.2    83  GLN83      -0.2717
    108  NE2       73.5440   70.3600   -0.6170 N.am   83  GLN83      -0.0878
    109  N         75.5140   63.6310    3.4610 N.3    85  PHE85      -0.1227
    110  CA        75.3100   62.2450    3.0700 C.3    85  PHE85       0.1736
    111  C         74.8820   62.0560    1.6090 C.2    85  PHE85       0.2595
    112  O         74.9310   60.9340    1.1030 O.2    85  PHE85      -0.2718
    113  CB        74.3890   61.5520    4.0830 C.3    85  PHE85       0.0547
    114  CG        75.1050   61.1820    5.3580 C.ar   85  PHE85      -0.0202
    115  CD1       75.8000   59.9820    5.4410 C.ar   85  PHE85      -0.0042
    116  CD2       75.1430   62.0570    6.4360 C.ar   85  PHE85      -0.0042
    117  CE1       76.4840   59.6360    6.6170 C.ar   85  PHE85      -0.0003
    118  CE2       75.8230   61.7200    7.6150 C.ar   85  PHE85      -0.0003
    119  CZ        76.4870   60.5040    7.7010 C.ar   85  PHE85      -0.0000
    120  N         74.5110   63.1290    0.9110 N.am   86  ALA86      -0.1966
    121  CA        74.3120   63.0180   -0.5530 C.3    86  ALA86       0.1728
    122  C         75.6170   63.2610   -1.3020 C.2    86  ALA86       0.2616
    123  O         75.6360   63.2990   -2.5340 O.2    86  ALA86      -0.2715
    124  CB        73.2840   64.0000   -1.0310 C.3    86  ALA86       0.0334
    125  N         76.6970   63.4860   -0.5560 N.am   87  GLY87      -0.1955
    126  CA        78.0270   63.6770   -1.1450 C.3    87  GLY87       0.1869
    127  C         78.4850   65.1170   -1.4010 C.2    87  GLY87       0.2309
    128  O         79.5180   65.3460   -2.0570 O.2    87  GLY87      -0.2863
    129  N         81.9650   66.2760   -0.6200 N.3    90  SER90      -0.1202
    130  CA        82.6260   64.9760   -0.6800 C.3    90  SER90       0.2020
    131  C         83.3000   64.6210    0.6490 C.2    90  SER90       0.2619
    132  O         84.5080   64.3290    0.7050 O.2    90  SER90      -0.2717
    133  CB        83.6210   64.9030   -1.8640 C.3    90  SER90       0.2103
    134  OG        83.1630   65.6300   -3.0120 O.3    90  SER90      -0.2182
    135  N         82.5230   64.6400    1.7280 N.am   91  VAL91      -0.1966
    136  CA        83.0830   64.2800    3.0280 C.3    91  VAL91       0.1712
    137  C         83.4090   62.7850    3.1320 C.2    91  VAL91       0.2458
    138  O         82.5850   61.9330    2.8210 O.2    91  VAL91      -0.2730
    139  CB        82.1630   64.7180    4.1560 C.3    91  VAL91       0.0289
    140  CG1       82.7540   64.3130    5.5090 C.3    91  VAL91       0.0023
    141  CG2       81.9510   66.2480    4.0810 C.3    91  VAL91       0.0023
    142  N         84.6270   62.4470    3.5720 N.am   92  PRO92      -0.2716
    143  CA        84.9070   61.0040    3.6760 C.3    92  PRO92       0.1536
    144  C         83.9300   60.2720    4.6120 C.2    92  PRO92       0.2598
    145  O         83.4580   60.8510    5.6040 O.2    92  PRO92      -0.2715
    146  CB        86.3390   60.9740    4.2360 C.3    92  PRO92       0.0310
    147  CG        86.9520   62.2890    3.7450 C.3    92  PRO92       0.0237
    148  CD        85.8220   63.2820    3.8130 C.3    92  PRO92       0.0939
    149  N         83.6410   59.0120    4.3150 N.am   93  MET93      -0.1978
    150  CA        82.6580   58.2650    5.1060 C.3    93  MET93       0.1605
    151  C         82.9150   58.3420    6.5990 C.2    93  MET93       0.2287
    152  O         82.0850   58.8460    7.3220 O.2    93  MET93      -0.2864
    153  CB        82.5400   56.8010    4.6860 C.3    93  MET93       0.0413
    154  CG        81.8250   56.5450    3.3390 C.3    93  MET93       0.0598
    155  SD        80.1920   57.3000    3.0810 S.3    93  MET93      -0.1393
    156  CE        79.7530   57.8830    4.7070 C.3    93  MET93       0.0692
    157  N         82.0530   61.4270    8.2460 N.3    96  ARG96      -0.1245
    158  CA        80.6350   61.7480    8.3330 C.3    96  ARG96       0.1563
    159  C         80.0380   61.3980    9.6980 C.2    96  ARG96       0.2260
    160  O         79.0610   62.0180   10.1290 O.2    96  ARG96      -0.2867
    161  CB        79.8620   61.0300    7.2210 C.3    96  ARG96       0.0307
    162  CG        80.3130   61.4450    5.7940 C.3    96  ARG96       0.0489
    163  CD        79.3750   60.9260    4.7410 C.3    96  ARG96       0.2205
    164  NE        79.8650   61.2390    3.3960 N.pl3  96  ARG96      -0.0865
    165  CZ        79.2580   60.8630    2.2650 C.cat  96  ARG96       0.5346
    166  NH1       78.1240   60.1570    2.3050 N.pl3  96  ARG96       0.1354
    167  NH2       79.7840   61.1780    1.0890 N.pl3  96  ARG96       0.1354
    168  N         68.8820   49.1870   -8.7350 N.3   132  HIS132     -0.1241
    169  CA        68.8140   49.2850   -7.2870 C.3   132  HIS132      0.1621
    170  C         68.6700   47.9430   -6.5300 C.2   132  HIS132      0.2264
    171  O         68.0450   46.9960   -7.0080 O.2   132  HIS132     -0.2867
    172  CB        67.6350   50.2210   -6.9040 C.3   132  HIS132      0.0745
    173  CG        67.9180   51.6870   -7.0990 C.ar  132  HIS132      0.0817
    174  ND1       68.2610   52.2370   -8.3180 N.ar  132  HIS132     -0.2268
    175  CD2       67.8620   52.7190   -6.2240 C.ar  132  HIS132      0.1154
    176  CE1       68.4010   53.5420   -8.1820 C.ar  132  HIS132      0.1986
    177  NE2       68.1520   53.8610   -6.9210 N.ar  132  HIS132     -0.2212
    178  N         61.4840   66.5460    0.9160 N.3   153  TYR153     -0.1241
    179  CA        62.0990   66.8780   -0.3830 C.3   153  TYR153      0.1605
    180  C         61.0310   66.9440   -1.4780 C.2   153  TYR153      0.2264
    181  O         60.1430   66.0990   -1.5370 O.2   153  TYR153     -0.2867
    182  CB        63.1380   65.8380   -0.7910 C.3   153  TYR153      0.0534
    183  CG        64.1790   66.3680   -1.7380 C.ar  153  TYR153     -0.0201
    184  CD1       65.1260   67.3020   -1.3060 C.ar  153  TYR153     -0.0009
    185  CD2       64.2580   65.9130   -3.0650 C.ar  153  TYR153     -0.0009
    186  CE1       66.1180   67.7850   -2.1640 C.ar  153  TYR153      0.0417
    187  CE2       65.2600   66.3980   -3.9380 C.ar  153  TYR153      0.0417
    188  CZ        66.1810   67.3200   -3.4780 C.ar  153  TYR153      0.1957
    189  OH        67.1440   67.8120   -4.3150 O.3   153  TYR153     -0.2866
    190  N         64.4730   71.2800   -0.4380 N.3   158  TYR158     -0.1241
    191  CA        64.1040   70.9520    0.9260 C.3   158  TYR158      0.1605
    192  C         62.9010   71.7520    1.3810 C.2   158  TYR158      0.2264
    193  O         62.6800   72.8940    0.9780 O.2   158  TYR158     -0.2867
    194  CB        65.2960   71.1670    1.8610 C.3   158  TYR158      0.0534
    195  CG        66.4410   70.2090    1.5630 C.ar  158  TYR158     -0.0201
    196  CD1       66.3050   68.8380    1.8120 C.ar  158  TYR158     -0.0009
    197  CD2       67.6470   70.6660    1.0370 C.ar  158  TYR158     -0.0009
    198  CE1       67.3490   67.9500    1.5650 C.ar  158  TYR158      0.0417
    199  CE2       68.7070   69.7760    0.7740 C.ar  158  TYR158      0.0417
    200  CZ        68.5350   68.4160    1.0520 C.ar  158  TYR158      0.1957
    201  OH        69.5480   67.5040    0.8070 O.3   158  TYR158     -0.2866
@<TRIPOS>BOND
     1    68    67    1
     2    68    69    1
     3    70    69    1
     4    67    66    1
     5    61    59   am
     6    66    63    1
     7    60    59    2
     8   168   169    1
     9    59    58    1
    10   174   176   ar
    11   174   173   ar
    12   176   177   ar
    13    63    62    1
    14    63    64    1
    15   169   172    1
    16   169   170    1
    17   173   172    1
    18   173   175   ar
    19   171   170    2
    20    58    55    1
    21   177   175   ar
    22    64    65    2
    23    64    71   am
    24    55    56    1
    25    55    54    1
    26    56    57    2
    27    71    72    1
    28    54    48   am
    29    49    48    2
    30    72    73    1
    31    72    75    1
    32   189   188    1
    33    48    47    1
    34   187   188   ar
    35   187   185   ar
    36    73    74    2
    37    73    77   am
    38   188   186   ar
    39    44    45    1
    40    44    41    1
    41    75    76    1
    42    77    78    1
    43    47    46    1
    44    47    50    1
    45   185   183   ar
    46   134   133    1
    47    46    42   am
    48    43    42    2
    49    42    41    1
    50    39    36    1
    51    78    81    1
    52    78    79    1
    53   123   122    2
    54    41    40    1
    55    81    82    1
    56   186   184   ar
    57   128   127    2
    58    83    82   ar
    59    83    85   ar
    60    34    33    1
    61   133   130    1
    62    50    51    1
    63    50    52    1
    64    51    53    1
    65   183   184   ar
    66   183   182    1
    67   181   180    2
    68   180   179    1
    69   127   126    1
    70    82    84   ar
    71    36    35    1
    72    36    37    1
    73    79    80    2
    74    79    89   am
    75    85    87   ar
    76   122   125   am
    77   122   121    1
    78   126   125    1
    79   124   121    1
    80    14    13    1
    81    35    31   am
    82    89    90    1
    83   182   179    1
    84   130   129    1
    85   130   131    1
    86    33    30    1
    87   108   106   am
    88   121   120    1
    89   107   106    2
    90   190   191    1
    91   179   178    1
    92    38    37    2
    93    19    18    2
    94    31    32    2
    95    31    30    1
    96    29    30    1
    97    29    25   am
    98    84    86   ar
    99    87    86   ar
   100    87    88    1
   101   106   105    1
   102    91    90    1
   103    91    92    2
   104    90    93    1
   105    13    12    1
   106    13    15    1
   107   131   132    2
   108   131   135   am
   109   199   197   ar
   110   199   200   ar
   111    24    25    1
   112    24    27    1
   113    24    23    1
   114   201   200    1
   115    12     9    1
   116    28    27    1
   117    18    23   am
   118    18    17    1
   119   120   111   am
   120   191   192    1
   121   191   194    1
   122   193   192    2
   123    25    26    2
   124   197   195   ar
   125   200   198   ar
   126   167   165    1
   127   112   111    2
   128   103   102    2
   129    21    20    1
   130   195   196   ar
   131   195   194    1
   132   198   196   ar
   133   105   104    1
   134   111   110    1
   135    16    17    1
   136    16    10   am
   137   135   136    1
   138    17    20    1
   139    22    20    1
   140   101   104    1
   141   101   102    1
   142   101   100    1
   143     9    10    1
   144     9     8    1
   145    97    96    2
   146   165   166    1
   147   165   164    2
   148    10    11    2
   149    99    98    1
   150     7     5    1
   151   138   137    2
   152   136   137    1
   153   136   139    1
   154    96   100   am
   155    96    95    1
   156   110   109    1
   157   110   113    1
   158   155   154    1
   159   155   156    1
   160   137   142   am
   161   154   153    1
   162     6     5    1
   163   164   163    1
   164   142   143    1
   165   142   148    1
   166     5     2    1
   167   143   146    1
   168   143   144    1
   169     2     1    1
   170     2     3    1
   171    98    95    1
   172   147   148    1
   173   147   146    1
   174   141   139    1
   175   113   114    1
   176    95    94    1
   177   139   140    1
   178   149   144   am
   179   149   150    1
   180   144   145    2
   181   153   150    1
   182   163   162    1
   183     3     4    2
   184   150   151    1
   185   114   115   ar
   186   114   116   ar
   187   115   117   ar
   188   162   161    1
   189   116   118   ar
   190   151   152    2
   191   117   119   ar
   192   161   158    1
   193   118   119   ar
   194   157   158    1
   195   158   159    1
   196   159   160    2
