@<TRIPOS>MOLECULE
tmp/3k88A01.pdb
 124 118 0 0 0
SMALL
GASTEIGER

@<TRIPOS>ATOM
      1  N         71.3940   42.5460  -22.3710 N.3     9  PHE9       -0.1227
      2  CA        71.4500   43.0100  -20.9780 C.3     9  PHE9        0.1736
      3  C         72.8210   42.6770  -20.3050 C.2     9  PHE9        0.2595
      4  O         73.4780   43.5300  -19.7050 O.2     9  PHE9       -0.2718
      5  CB        70.2860   42.3400  -20.2220 C.3     9  PHE9        0.0547
      6  CG        70.3060   42.5430  -18.7270 C.ar    9  PHE9       -0.0202
      7  CD1       69.8430   43.7510  -18.1590 C.ar    9  PHE9       -0.0042
      8  CD2       70.7090   41.5100  -17.8780 C.ar    9  PHE9       -0.0042
      9  CE1       69.8040   43.9320  -16.7750 C.ar    9  PHE9       -0.0003
     10  CE2       70.6590   41.6640  -16.5030 C.ar    9  PHE9       -0.0003
     11  CZ        70.2280   42.8480  -15.9330 C.ar    9  PHE9       -0.0000
     12  N         73.2520   41.4180  -20.4420 N.am   10  ARG10      -0.1980
     13  CA        74.5640   40.9870  -19.9750 C.3    10  ARG10       0.1597
     14  C         75.6650   41.7550  -20.6930 C.2    10  ARG10       0.2287
     15  O         76.6140   42.2440  -20.0800 O.2    10  ARG10      -0.2864
     16  CB        74.7220   39.4730  -20.1700 C.3    10  ARG10       0.0334
     17  CG        73.7970   38.6520  -19.2880 C.3    10  ARG10       0.0492
     18  CD        74.1610   37.1370  -19.2760 C.3    10  ARG10       0.2205
     19  NE        74.2780   36.6290  -20.6510 N.pl3  10  ARG10      -0.0865
     20  CZ        73.3130   35.9960  -21.3240 C.cat  10  ARG10       0.5346
     21  NH1       72.1350   35.7480  -20.7680 N.pl3  10  ARG10       0.1354
     22  NH2       73.5210   35.6100  -22.5750 N.pl3  10  ARG10       0.1354
     23  N         75.8980   45.1880  -19.2470 N.3    13  LEU13      -0.1231
     24  CA        76.3640   45.1460  -17.8600 C.3    13  LEU13       0.1693
     25  C         77.8820   44.9120  -17.7720 C.2    13  LEU13       0.2592
     26  O         78.5040   45.2960  -16.7950 O.2    13  LEU13      -0.2718
     27  CB        75.6010   44.0880  -17.0450 C.3    13  LEU13       0.0284
     28  CG        74.2210   44.5730  -16.5620 C.3    13  LEU13       0.0019
     29  CD1       73.5360   43.4290  -15.8260 C.3    13  LEU13       0.0001
     30  CD2       74.3640   45.8560  -15.6920 C.3    13  LEU13       0.0001
     31  N         78.4600   44.2510  -18.7750 N.am   14  SER14      -0.1952
     32  CA        79.9080   44.0900  -18.7880 C.3    14  SER14       0.1924
     33  C         80.5800   45.4560  -18.8300 C.2    14  SER14       0.2314
     34  O         81.7120   45.6060  -18.3790 O.2    14  SER14      -0.2863
     35  CB        80.3640   43.1740  -19.9470 C.3    14  SER14       0.2116
     36  OG        80.2240   43.7940  -21.2170 O.3    14  SER14      -0.2180
     37  N         81.6400   46.6680  -10.8180 N.3    18  THR18      -0.1218
     38  CA        81.0980   46.1990   -9.5530 C.3    18  THR18       0.1862
     39  C         82.2100   45.9050   -8.5560 C.2    18  THR18       0.2287
     40  O         83.3360   45.6570   -8.9260 O.2    18  THR18      -0.2866
     41  CB        80.3760   44.8050   -9.7120 C.3    18  THR18       0.1770
     42  OG1       81.2920   43.8110  -10.2480 O.3    18  THR18      -0.2211
     43  CG2       79.1420   44.9230  -10.5940 C.3    18  THR18       0.0375
     44  N         79.0010   39.5350   -7.0570 N.3    37  SER37      -0.1202
     45  CA        79.1980   40.9660   -7.2750 C.3    37  SER37       0.2020
     46  C         77.8630   41.7180   -7.0840 C.2    37  SER37       0.2618
     47  O         77.8610   42.9230   -6.9490 O.2    37  SER37      -0.2717
     48  CB        79.7970   41.2510   -8.6490 C.3    37  SER37       0.2103
     49  OG        78.9410   40.7600   -9.6950 O.3    37  SER37      -0.2182
     50  N         76.7360   41.0100   -7.0340 N.am   38  ALA38      -0.1979
     51  CA        75.4280   41.7020   -7.0140 C.3    38  ALA38       0.1597
     52  C         75.0380   41.8570   -5.5470 C.2    38  ALA38       0.2287
     53  O         74.2360   41.1010   -4.9800 O.2    38  ALA38      -0.2864
     54  CB        74.3350   40.8860   -7.8730 C.3    38  ALA38       0.0319
     55  N         72.3470   39.0610   -4.4330 N.3    52  CYS52      -0.1221
     56  CA        71.5140   38.2790   -5.3470 C.3    52  CYS52       0.1808
     57  C         72.2920   37.0750   -5.8520 C.2    52  CYS52       0.2601
     58  O         73.3260   37.2320   -6.5600 O.2    52  CYS52      -0.2717
     59  CB        71.1360   39.1460   -6.5260 C.3    52  CYS52       0.0970
     60  SG        70.4670   40.7480   -5.9860 S.3    52  CYS52      -0.0800
     61  N         71.7840   35.8750   -5.5610 N.am   53  ILE53      -0.1965
     62  CA        72.4750   34.6320   -6.0050 C.3    53  ILE53       0.1727
     63  C         71.5760   33.6410   -6.6960 C.2    53  ILE53       0.2616
     64  O         70.4140   33.5050   -6.3430 O.2    53  ILE53      -0.2715
     65  CB        73.2030   33.9610   -4.8310 C.3    53  ILE53       0.0290
     66  CG1       72.2560   33.5130   -3.7750 C.3    53  ILE53       0.0022
     67  CG2       74.1890   34.9610   -4.1680 C.3    53  ILE53       0.0023
     68  CD1       73.1070   32.8120   -2.6720 C.3    53  ILE53       0.0001
     69  N         72.0890   33.0150   -7.7470 N.am   54  ASN54      -0.1972
     70  CA        71.3140   32.0390   -8.4560 C.3    54  ASN54       0.1688
     71  C         70.8870   30.8460   -7.5470 C.2    54  ASN54       0.2292
     72  O         71.7080   30.2420   -6.8620 O.2    54  ASN54      -0.2864
     73  CB        72.1130   31.4970   -9.6160 C.3    54  ASN54       0.1181
     74  CG        71.2030   30.8550  -10.6600 C.2    54  ASN54       0.2629
     75  OD1       70.2820   30.0310  -10.3620 O.2    54  ASN54      -0.2716
     76  ND2       71.4330   31.2490  -11.8880 N.am   54  ASN54      -0.0877
     77  N         70.0970   27.9610   -8.1890 N.3    56  LYS56      -0.1245
     78  CA        70.5910   26.6400   -8.6370 C.3    56  LYS56       0.1561
     79  C         71.9480   26.2540   -8.0470 C.2    56  LYS56       0.2260
     80  O         72.3780   25.1240   -8.2300 O.2    56  LYS56      -0.2867
     81  CB        70.6260   26.4490  -10.1550 C.3    56  LYS56       0.0271
     82  CG        71.6200   27.2630  -10.9820 C.3    56  LYS56       0.0035
     83  CD        72.8090   27.4870  -10.2110 C.3    56  LYS56       0.0206
     84  CE        73.4930   28.8670  -10.5190 C.3    56  LYS56       0.1093
     85  NZ        75.0140   28.8040  -10.6350 N.3    56  LYS56      -0.1314
     86  N         65.6630   33.7360  -11.8280 N.3   131  SER131     -0.1202
     87  CA        66.4250   32.5760  -11.3840 C.3   131  SER131      0.2020
     88  C         67.1460   32.8570  -10.0720 C.2   131  SER131      0.2618
     89  O         67.8880   31.9870   -9.5790 O.2   131  SER131     -0.2717
     90  CB        67.5000   32.2760  -12.4310 C.3   131  SER131      0.2103
     91  OG        68.2560   33.4880  -12.6920 O.3   131  SER131     -0.2182
     92  N         66.9640   34.0560   -9.5030 N.am  132  HIS132     -0.1975
     93  CA        67.7940   34.4640   -8.3710 C.3   132  HIS132      0.1656
     94  C         67.0290   34.6400   -7.0420 C.2   132  HIS132      0.2291
     95  O         65.8600   35.0260   -7.0260 O.2   132  HIS132     -0.2864
     96  CB        68.4970   35.8020   -8.7270 C.3   132  HIS132      0.0771
     97  CG        69.7770   35.6460   -9.4830 C.ar  132  HIS132      0.0820
     98  ND1       69.8290   35.1010  -10.7470 N.ar  132  HIS132     -0.2267
     99  CD2       71.0570   36.0000   -9.1680 C.ar  132  HIS132      0.1154
    100  CE1       71.0670   35.1560  -11.1990 C.ar  132  HIS132      0.1986
    101  NE2       71.8330   35.6890  -10.2550 N.ar  132  HIS132     -0.2212
    102  N         85.4650   44.5830  -10.6020 N.3   153  TYR153     -0.1241
    103  CA        85.3240   43.8410  -11.8750 C.3   153  TYR153      0.1605
    104  C         84.6680   44.8060  -12.8910 C.2   153  TYR153      0.2264
    105  O         83.6560   45.4530  -12.5650 O.2   153  TYR153     -0.2867
    106  CB        84.4100   42.6210  -11.6920 C.3   153  TYR153      0.0534
    107  CG        84.5540   41.5010  -12.7130 C.ar  153  TYR153     -0.0201
    108  CD1       85.6690   40.6950  -12.7280 C.ar  153  TYR153     -0.0009
    109  CD2       83.5160   41.1970  -13.5880 C.ar  153  TYR153     -0.0009
    110  CE1       85.7960   39.6200  -13.6360 C.ar  153  TYR153      0.0417
    111  CE2       83.6270   40.1350  -14.4880 C.ar  153  TYR153      0.0417
    112  CZ        84.7820   39.3640  -14.5090 C.ar  153  TYR153      0.1957
    113  OH        84.8370   38.3270  -15.4080 O.3   153  TYR153     -0.2866
    114  N         84.8750   42.3390  -17.8510 N.3   156  ARG156     -0.1245
    115  CA        85.2840   40.9490  -17.7740 C.3   156  ARG156      0.1563
    116  C         86.7220   40.7460  -17.2880 C.2   156  ARG156      0.2260
    117  O         87.3090   39.6830  -17.4920 O.2   156  ARG156     -0.2867
    118  CB        85.0210   40.2220  -19.1080 C.3   156  ARG156      0.0307
    119  CG        83.5390   40.2890  -19.5660 C.3   156  ARG156      0.0489
    120  CD        83.2480   39.3870  -20.7870 C.3   156  ARG156      0.2205
    121  NE        81.8240   39.3640  -21.1200 N.pl3 156  ARG156     -0.0865
    122  CZ        81.2340   40.1790  -21.9930 C.cat 156  ARG156      0.5346
    123  NH1       81.9320   41.0860  -22.6630 N.pl3 156  ARG156      0.1354
    124  NH2       79.9350   40.0810  -22.2060 N.pl3 156  ARG156      0.1354
@<TRIPOS>BOND
     1   123   122    1
     2    22    20    1
     3     1     2    1
     4   124   122    1
     5   122   121    2
     6    20    21    1
     7    20    19    2
     8    36    35    1
     9   121   120    1
    10     2     3    1
    11     2     5    1
    12   120   119    1
    13    14    15    2
    14    14    13    1
    15    19    18    1
    16    12     3   am
    17    12    13    1
    18     3     4    2
    19     5     6    1
    20    16    13    1
    21    16    17    1
    22    35    32    1
    23   119   118    1
    24    17    18    1
    25    23    24    1
    26   118   115    1
    27    33    32    1
    28    33    34    2
    29    32    31    1
    30    31    25   am
    31     6     7   ar
    32     6     8   ar
    33     7     9   ar
    34     8    10   ar
    35    24    25    1
    36    24    27    1
    37   114   115    1
    38   115   116    1
    39    25    26    2
    40   117   116    2
    41    27    28    1
    42     9    11   ar
    43    28    29    1
    44    28    30    1
    45    10    11   ar
    46   113   112    1
    47   112   111   ar
    48   112   110   ar
    49   111   109   ar
    50   110   108   ar
    51   109   107   ar
    52   104   105    2
    53   104   103    1
    54   108   107   ar
    55   107   106    1
    56    91    90    1
    57    90    87    1
    58    76    74   am
    59   103   106    1
    60   103   102    1
    61    86    87    1
    62    87    88    1
    63   100    98   ar
    64   100   101   ar
    65    82    83    1
    66    82    81    1
    67    37    38    1
    68    98    97   ar
    69    74    75    2
    70    74    73    1
    71    85    84    1
    72    43    41    1
    73    84    83    1
    74   101    99   ar
    75    42    41    1
    76    81    78    1
    77    88    89    2
    78    88    92   am
    79    41    38    1
    80    49    48    1
    81    73    70    1
    82    38    39    1
    83    92    93    1
    84    97    99   ar
    85    97    96    1
    86    40    39    2
    87    96    93    1
    88    48    45    1
    89    78    77    1
    90    78    79    1
    91    70    69    1
    92    70    71    1
    93    93    94    1
    94    80    79    2
    95    54    51    1
    96    69    63   am
    97    71    72    2
    98    45    46    1
    99    45    44    1
   100    46    50   am
   101    46    47    2
   102    94    95    2
   103    50    51    1
   104    51    52    1
   105    63    64    2
   106    63    62    1
   107    58    57    2
   108    59    60    1
   109    59    56    1
   110    62    61    1
   111    62    65    1
   112    57    61   am
   113    57    56    1
   114    52    53    2
   115    56    55    1
   116    65    67    1
   117    65    66    1
   118    66    68    1
