@<TRIPOS>MOLECULE
tmp/3k88A00.pdb
 169 163 0 0 0
SMALL
GASTEIGER

@<TRIPOS>ATOM
      1  N         73.2520   41.4180  -20.4420 N.3    10  ARG10      -0.1245
      2  CA        74.5640   40.9870  -19.9750 C.3    10  ARG10       0.1563
      3  C         75.6650   41.7550  -20.6930 C.2    10  ARG10       0.2260
      4  O         76.6140   42.2440  -20.0800 O.2    10  ARG10      -0.2867
      5  CB        74.7220   39.4730  -20.1700 C.3    10  ARG10       0.0307
      6  CG        73.7970   38.6520  -19.2880 C.3    10  ARG10       0.0489
      7  CD        74.1610   37.1370  -19.2760 C.3    10  ARG10       0.2205
      8  NE        74.2780   36.6290  -20.6510 N.pl3  10  ARG10      -0.0865
      9  CZ        73.3130   35.9960  -21.3240 C.cat  10  ARG10       0.5346
     10  NH1       72.1350   35.7480  -20.7680 N.pl3  10  ARG10       0.1354
     11  NH2       73.5210   35.6100  -22.5750 N.pl3  10  ARG10       0.1354
     12  N         83.7640   43.1240   -5.8230 N.3    20  VAL20      -0.1245
     13  CA        83.8390   41.6740   -5.8940 C.3    20  VAL20       0.1561
     14  C         83.7840   41.1770   -4.4780 C.2    20  VAL20       0.2260
     15  O         84.6140   41.5640   -3.6930 O.2    20  VAL20      -0.2867
     16  CB        85.1150   41.1730   -6.6210 C.3    20  VAL20       0.0252
     17  CG1       85.0500   39.6570   -6.7920 C.3    20  VAL20       0.0019
     18  CG2       85.2080   41.8090   -7.9980 C.3    20  VAL20       0.0019
     19  N         80.6370   31.3630   -2.5780 N.3    34  LEU34      -0.1231
     20  CA        80.7990   31.6360   -4.0000 C.3    34  LEU34       0.1693
     21  C         81.0750   33.1200   -4.1300 C.2    34  LEU34       0.2593
     22  O         80.7970   33.9300   -3.2280 O.2    34  LEU34      -0.2718
     23  CB        79.5240   31.2520   -4.8140 C.3    34  LEU34       0.0284
     24  CG        78.3210   32.2630   -4.6790 C.3    34  LEU34       0.0019
     25  CD1       77.1690   31.9340   -5.6580 C.3    34  LEU34       0.0001
     26  CD2       77.6980   32.3870   -3.2480 C.3    34  LEU34       0.0001
     27  N         81.5770   33.4850   -5.2930 N.am   35  THR35      -0.1939
     28  CA        81.8980   34.8760   -5.6470 C.3    35  THR35       0.2028
     29  C         80.6290   35.6140   -6.0940 C.2    35  THR35       0.2642
     30  O         79.8400   35.0700   -6.8490 O.2    35  THR35      -0.2714
     31  CB        82.8980   34.8250   -6.7400 C.3    35  THR35       0.1808
     32  OG1       84.0810   34.2490   -6.1560 O.3    35  THR35      -0.2208
     33  CG2       83.1610   36.2030   -7.2730 C.3    35  THR35       0.0379
     34  N         80.3940   36.7890   -5.5380 N.am   36  CYS36      -0.1953
     35  CA        79.1260   37.4790   -5.7720 C.3    36  CYS36       0.1843
     36  C         79.4490   38.9690   -5.9620 C.2    36  CYS36       0.2626
     37  O         80.2220   39.5740   -5.2020 O.2    36  CYS36      -0.2714
     38  CB        78.1390   37.1450   -4.6270 C.3    36  CYS36       0.0997
     39  SG        76.6090   38.2300   -4.6100 S.3    36  CYS36      -0.0797
     40  N         79.0010   39.5350   -7.0570 N.am   37  SER37      -0.1936
     41  CA        79.1980   40.9660   -7.2750 C.3    37  SER37       0.2055
     42  C         77.8630   41.7180   -7.0840 C.2    37  SER37       0.2642
     43  O         77.8610   42.9230   -6.9490 O.2    37  SER37      -0.2714
     44  CB        79.7970   41.2510   -8.6490 C.3    37  SER37       0.2130
     45  OG        78.9410   40.7600   -9.6950 O.3    37  SER37      -0.2179
     46  N         76.7360   41.0100   -7.0340 N.am   38  ALA38      -0.1977
     47  CA        75.4280   41.7020   -7.0140 C.3    38  ALA38       0.1597
     48  C         75.0380   41.8570   -5.5470 C.2    38  ALA38       0.2287
     49  O         74.2360   41.1010   -4.9800 O.2    38  ALA38      -0.2864
     50  CB        74.3350   40.8860   -7.8730 C.3    38  ALA38       0.0319
     51  N         72.3470   39.0610   -4.4330 N.3    52  CYS52      -0.1221
     52  CA        71.5140   38.2790   -5.3470 C.3    52  CYS52       0.1808
     53  C         72.2920   37.0750   -5.8520 C.2    52  CYS52       0.2601
     54  O         73.3260   37.2320   -6.5600 O.2    52  CYS52      -0.2717
     55  CB        71.1360   39.1460   -6.5260 C.3    52  CYS52       0.0970
     56  SG        70.4670   40.7480   -5.9860 S.3    52  CYS52      -0.0800
     57  N         71.7840   35.8750   -5.5610 N.am   53  ILE53      -0.1965
     58  CA        72.4750   34.6320   -6.0050 C.3    53  ILE53       0.1727
     59  C         71.5760   33.6410   -6.6960 C.2    53  ILE53       0.2616
     60  O         70.4140   33.5050   -6.3430 O.2    53  ILE53      -0.2715
     61  CB        73.2030   33.9610   -4.8310 C.3    53  ILE53       0.0290
     62  CG1       72.2560   33.5130   -3.7750 C.3    53  ILE53       0.0022
     63  CG2       74.1890   34.9610   -4.1680 C.3    53  ILE53       0.0023
     64  CD1       73.1070   32.8120   -2.6720 C.3    53  ILE53       0.0001
     65  N         72.0890   33.0150   -7.7470 N.am   54  ASN54      -0.1972
     66  CA        71.3140   32.0390   -8.4560 C.3    54  ASN54       0.1688
     67  C         70.8870   30.8460   -7.5470 C.2    54  ASN54       0.2292
     68  O         71.7080   30.2420   -6.8620 O.2    54  ASN54      -0.2864
     69  CB        72.1130   31.4970   -9.6160 C.3    54  ASN54       0.1181
     70  CG        71.2030   30.8550  -10.6600 C.2    54  ASN54       0.2629
     71  OD1       70.2820   30.0310  -10.3620 O.2    54  ASN54      -0.2716
     72  ND2       71.4330   31.2490  -11.8880 N.am   54  ASN54      -0.0877
     73  N         70.0970   27.9610   -8.1890 N.3    56  LYS56      -0.1231
     74  CA        70.5910   26.6400   -8.6370 C.3    56  LYS56       0.1693
     75  C         71.9480   26.2540   -8.0470 C.2    56  LYS56       0.2592
     76  O         72.3780   25.1240   -8.2300 O.2    56  LYS56      -0.2718
     77  CB        70.6260   26.4490  -10.1550 C.3    56  LYS56       0.0285
     78  CG        71.6200   27.2630  -10.9820 C.3    56  LYS56       0.0035
     79  CD        72.8090   27.4870  -10.2110 C.3    56  LYS56       0.0206
     80  CE        73.4930   28.8670  -10.5190 C.3    56  LYS56       0.1093
     81  NZ        75.0140   28.8040  -10.6350 N.3    56  LYS56      -0.1314
     82  N         72.6400   27.1670   -7.3610 N.am   57  SER57      -0.1952
     83  CA        74.0260   26.8420   -6.9770 C.3    57  SER57       0.1924
     84  C         74.1140   26.0380   -5.6940 C.2    57  SER57       0.2314
     85  O         73.2590   26.1210   -4.8300 O.2    57  SER57      -0.2863
     86  CB        74.8880   28.0910   -6.8230 C.3    57  SER57       0.2116
     87  OG        74.4920   28.7210   -5.6230 O.3    57  SER57      -0.2180
     88  N         88.6030   35.3520   -5.4220 N.3    82  SER82      -0.1202
     89  CA        87.4810   35.5080   -6.3480 C.3    82  SER82       0.2020
     90  C         87.4410   34.3820   -7.4050 C.2    82  SER82       0.2618
     91  O         86.3910   33.7730   -7.6530 O.2    82  SER82      -0.2717
     92  CB        87.6020   36.8540   -7.0710 C.3    82  SER82       0.2103
     93  OG        86.5160   37.0160   -7.9580 O.3    82  SER82      -0.2182
     94  N         88.5830   34.0840   -8.0260 N.am   83  GLN83      -0.1979
     95  CA        88.6260   32.9910   -9.0480 C.3    83  GLN83       0.1601
     96  C         88.2320   31.6390   -8.4730 C.2    83  GLN83       0.2287
     97  O         87.4110   30.9370   -9.0400 O.2    83  GLN83      -0.2864
     98  CB        89.9860   32.9210   -9.7380 C.3    83  GLN83       0.0394
     99  CG        90.2660   34.2220  -10.5750 C.3    83  GLN83       0.0908
    100  CD        89.4280   34.3410  -11.9060 C.2    83  GLN83       0.2608
    101  OE1       88.2730   34.8450  -11.9280 O.2    83  GLN83      -0.2717
    102  NE2       90.0430   33.8840  -13.0390 N.am   83  GLN83      -0.0878
    103  N         86.4260   30.9790   -5.8170 N.3    85  PHE85      -0.1227
    104  CA        85.0160   30.9030   -5.4070 C.3    85  PHE85       0.1736
    105  C         84.0410   31.0850   -6.5800 C.2    85  PHE85       0.2595
    106  O         82.8250   30.9130   -6.4070 O.2    85  PHE85      -0.2718
    107  CB        84.7410   31.8580   -4.2220 C.3    85  PHE85       0.0547
    108  CG        85.1920   31.3060   -2.9100 C.ar   85  PHE85      -0.0202
    109  CD1       84.3460   30.4550   -2.1820 C.ar   85  PHE85      -0.0042
    110  CD2       86.4740   31.5710   -2.4250 C.ar   85  PHE85      -0.0042
    111  CE1       84.7550   29.9180   -0.9760 C.ar   85  PHE85      -0.0003
    112  CE2       86.8960   31.0430   -1.2290 C.ar   85  PHE85      -0.0003
    113  CZ        86.0460   30.2340   -0.4850 C.ar   85  PHE85      -0.0000
    114  N         84.5520   31.4540   -7.7640 N.am   86  ALA86      -0.1966
    115  CA        83.7240   31.4390   -9.0030 C.3    86  ALA86       0.1728
    116  C         83.8080   30.1060   -9.7050 C.2    86  ALA86       0.2617
    117  O         83.1930   29.9170  -10.7560 O.2    86  ALA86      -0.2715
    118  CB        84.1890   32.5810  -10.0050 C.3    86  ALA86       0.0334
    119  N         84.6300   29.1950   -9.1830 N.am   87  GLY87      -0.1940
    120  CA        84.7790   27.8900   -9.8180 C.3    87  GLY87       0.2014
    121  C         85.9650   27.7740  -10.7860 C.2    87  GLY87       0.2638
    122  O         86.1760   26.7040  -11.3300 O.2    87  GLY87      -0.2714
    123  N         86.7570   28.8360  -10.9700 N.am   88  VAL88      -0.1977
    124  CA        87.9600   28.7630  -11.8250 C.3    88  VAL88       0.1596
    125  C         88.9380   27.7500  -11.2410 C.2    88  VAL88       0.2287
    126  O         89.2350   27.7710  -10.0440 O.2    88  VAL88      -0.2864
    127  CB        88.6240   30.1560  -12.0170 C.3    88  VAL88       0.0276
    128  CG1       89.9770   30.0380  -12.8050 C.3    88  VAL88       0.0022
    129  CG2       87.6560   31.1040  -12.7090 C.3    88  VAL88       0.0022
    130  N         65.6630   33.7360  -11.8280 N.3   131  SER131     -0.1202
    131  CA        66.4250   32.5760  -11.3840 C.3   131  SER131      0.2020
    132  C         67.1460   32.8570  -10.0720 C.2   131  SER131      0.2618
    133  O         67.8880   31.9870   -9.5790 O.2   131  SER131     -0.2717
    134  CB        67.5000   32.2760  -12.4310 C.3   131  SER131      0.2103
    135  OG        68.2560   33.4880  -12.6920 O.3   131  SER131     -0.2182
    136  N         66.9640   34.0560   -9.5030 N.am  132  HIS132     -0.1975
    137  CA        67.7940   34.4640   -8.3710 C.3   132  HIS132      0.1656
    138  C         67.0290   34.6400   -7.0420 C.2   132  HIS132      0.2291
    139  O         65.8600   35.0260   -7.0260 O.2   132  HIS132     -0.2864
    140  CB        68.4970   35.8020   -8.7270 C.3   132  HIS132      0.0771
    141  CG        69.7770   35.6460   -9.4830 C.ar  132  HIS132      0.0820
    142  ND1       69.8290   35.1010  -10.7470 N.ar  132  HIS132     -0.2267
    143  CD2       71.0570   36.0000   -9.1680 C.ar  132  HIS132      0.1154
    144  CE1       71.0670   35.1560  -11.1990 C.ar  132  HIS132      0.1986
    145  NE2       71.8330   35.6890  -10.2550 N.ar  132  HIS132     -0.2212
    146  N         85.4650   44.5830  -10.6020 N.3   153  TYR153     -0.1241
    147  CA        85.3240   43.8410  -11.8750 C.3   153  TYR153      0.1605
    148  C         84.6680   44.8060  -12.8910 C.2   153  TYR153      0.2264
    149  O         83.6560   45.4530  -12.5650 O.2   153  TYR153     -0.2867
    150  CB        84.4100   42.6210  -11.6920 C.3   153  TYR153      0.0534
    151  CG        84.5540   41.5010  -12.7130 C.ar  153  TYR153     -0.0201
    152  CD1       85.6690   40.6950  -12.7280 C.ar  153  TYR153     -0.0009
    153  CD2       83.5160   41.1970  -13.5880 C.ar  153  TYR153     -0.0009
    154  CE1       85.7960   39.6200  -13.6360 C.ar  153  TYR153      0.0417
    155  CE2       83.6270   40.1350  -14.4880 C.ar  153  TYR153      0.0417
    156  CZ        84.7820   39.3640  -14.5090 C.ar  153  TYR153      0.1957
    157  OH        84.8370   38.3270  -15.4080 O.3   153  TYR153     -0.2866
    158  N         89.5020   41.8220  -13.7750 N.3   158  TYR158     -0.1241
    159  CA        89.7390   42.3780  -12.4520 C.3   158  TYR158      0.1605
    160  C         90.4830   43.7090  -12.5770 C.2   158  TYR158      0.2264
    161  O         91.2160   43.9360  -13.5290 O.2   158  TYR158     -0.2867
    162  CB        90.5150   41.3560  -11.5640 C.3   158  TYR158      0.0534
    163  CG        89.6590   40.1350  -11.2460 C.ar  158  TYR158     -0.0201
    164  CD1       88.6020   40.2200  -10.3530 C.ar  158  TYR158     -0.0009
    165  CD2       89.8790   38.9010  -11.8850 C.ar  158  TYR158     -0.0009
    166  CE1       87.7850   39.0850  -10.0870 C.ar  158  TYR158      0.0417
    167  CE2       89.0800   37.7810  -11.6180 C.ar  158  TYR158      0.0417
    168  CZ        88.0350   37.8870  -10.7330 C.ar  158  TYR158      0.1957
    169  OH        87.2390   36.8000  -10.4890 O.3   158  TYR158     -0.2866
@<TRIPOS>BOND
     1    11     9    1
     2     9    10    1
     3     9     8    2
     4     3     4    2
     5     3     2    1
     6     8     7    1
     7     1     2    1
     8     5     2    1
     9     5     6    1
    10     6     7    1
    11   157   156    1
    12   156   155   ar
    13   156   154   ar
    14   155   153   ar
    15   158   159    1
    16   154   152   ar
    17   153   151   ar
    18   161   160    2
    19   102   100   am
    20   148   149    2
    21   148   147    1
    22   128   127    1
    23   152   151   ar
    24   151   150    1
    25   129   127    1
    26   135   134    1
    27   160   159    1
    28   159   162    1
    29   134   131    1
    30   127   124    1
    31   101   100    2
    32   100    99    1
    33    72    70   am
    34   165   167   ar
    35   165   163   ar
    36   147   150    1
    37   147   146    1
    38   130   131    1
    39   124   125    1
    40   124   123    1
    41   167   168   ar
    42   162   163    1
    43   131   132    1
    44   122   121    2
    45   163   164   ar
    46   125   126    2
    47   144   142   ar
    48   144   145   ar
    49    78    79    1
    50    78    77    1
    51   123   121   am
    52   121   120    1
    53   117   116    2
    54   142   141   ar
    55   168   169    1
    56   168   166   ar
    57    70    71    2
    58    70    69    1
    59    81    80    1
    60    99    98    1
    61    80    79    1
    62   164   166   ar
    63   145   143   ar
    64    77    74    1
    65   132   133    2
    66   132   136   am
    67   118   115    1
    68   120   119    1
    69    98    95    1
    70   116   119   am
    71   116   115    1
    72    45    44    1
    73    69    66    1
    74   136   137    1
    75   141   143   ar
    76   141   140    1
    77    95    96    1
    78    95    94    1
    79    97    96    2
    80   115   114    1
    81   140   137    1
    82    44    41    1
    83    74    73    1
    84    74    75    1
    85    66    65    1
    86    66    67    1
    87   137   138    1
    88    76    75    2
    89    75    82   am
    90    94    90   am
    91    18    16    1
    92    93    92    1
    93    50    47    1
    94   114   105   am
    95    65    59   am
    96    91    90    2
    97    67    68    2
    98    90    89    1
    99    82    83    1
   100    41    42    1
   101    41    40    1
   102    33    31    1
   103    42    46   am
   104    42    43    2
   105    92    89    1
   106    40    36   am
   107   138   139    2
   108    46    47    1
   109    47    48    1
   110    83    86    1
   111    83    84    1
   112    30    29    2
   113    86    87    1
   114    17    16    1
   115    31    32    1
   116    31    28    1
   117    59    60    2
   118    59    58    1
   119    16    13    1
   120   105   106    2
   121   105   104    1
   122    54    53    2
   123    55    56    1
   124    55    52    1
   125    89    88    1
   126    29    28    1
   127    29    34   am
   128    58    57    1
   129    58    61    1
   130    36    35    1
   131    36    37    2
   132    13    12    1
   133    13    14    1
   134    53    57   am
   135    53    52    1
   136   103   104    1
   137    35    34    1
   138    35    38    1
   139    84    85    2
   140    25    24    1
   141    28    27    1
   142    48    49    2
   143   104   107    1
   144    52    51    1
   145    27    21   am
   146    61    63    1
   147    61    62    1
   148    23    24    1
   149    23    20    1
   150    24    26    1
   151    38    39    1
   152    14    15    2
   153   107   108    1
   154    21    20    1
   155    21    22    2
   156    20    19    1
   157    62    64    1
   158   108   110   ar
   159   108   109   ar
   160   110   112   ar
   161   109   111   ar
   162   112   113   ar
   163   111   113   ar
