@<TRIPOS>MOLECULE
tmp/3k8cB01.pdb
 82 79 0 0 0
SMALL
GASTEIGER

@<TRIPOS>ATOM
      1  N         13.4020   15.8090   14.5750 N.3     9  ASP9       -0.1225
      2  CA        11.9630   16.0860   14.6710 C.3     9  ASP9        0.1805
      3  C         11.2700   15.5430   13.4100 C.2     9  ASP9        0.2598
      4  O         11.9020   14.8180   12.6450 O.2     9  ASP9       -0.2718
      5  CB        11.6510   17.5630   14.9580 C.3     9  ASP9        0.1424
      6  CG        12.2170   18.5120   13.9180 C.2     9  ASP9        0.3668
      7  OD1       12.8860   18.0420   12.9590 O.co2   9  ASP9       -0.2456
      8  OD2       11.9780   19.7400   14.0710 O.co2   9  ASP9       -0.2456
      9  N          9.9960   15.8920   13.2080 N.am   10  HIS10      -0.1962
     10  CA         9.1370   15.3530   12.1280 C.3    10  HIS10       0.1772
     11  C          9.5920   15.5090   10.6660 C.2    10  HIS10       0.2462
     12  O          9.4500   14.5540    9.9120 O.2    10  HIS10      -0.2730
     13  CB         7.7060   15.8700   12.2720 C.3    10  HIS10       0.0785
     14  CG         7.6310   17.3590   12.3790 C.ar   10  HIS10       0.0821
     15  ND1        8.0240   18.0400   13.5120 N.ar   10  HIS10      -0.2267
     16  CD2        7.2370   18.2980   11.4900 C.ar   10  HIS10       0.1154
     17  CE1        7.8640   19.3350   13.3180 C.ar   10  HIS10       0.1986
     18  NE2        7.3890   19.5180   12.1000 N.ar   10  HIS10      -0.2212
     19  N         10.1210   16.6940   10.2490 N.am   11  PRO11      -0.2727
     20  CA        10.6080   16.7450    8.8570 C.3    11  PRO11       0.1402
     21  C         11.7880   15.8020    8.5780 C.2    11  PRO11       0.2269
     22  O         11.9980   15.4110    7.4470 O.2    11  PRO11      -0.2865
     23  CB        11.0230   18.2120    8.6730 C.3    11  PRO11       0.0296
     24  CG        11.2130   18.7320   10.0020 C.3    11  PRO11       0.0237
     25  CD        10.3180   17.9940   10.9190 C.3    11  PRO11       0.0939
     26  N          4.0430   15.5030   14.1650 N.3    42  SER42      -0.1217
     27  CA         4.8250   16.6410   14.6260 C.3    42  SER42       0.1889
     28  C          5.3270   16.4190   16.0560 C.2    42  SER42       0.2288
     29  O          4.6030   15.8790   16.8990 O.2    42  SER42      -0.2866
     30  CB         3.9870   17.9180   14.5350 C.3    42  SER42       0.2089
     31  OG         4.7520   19.0710   14.8480 O.3    42  SER42      -0.2183
     32  N         11.5700   19.8630   18.3650 N.3    45  TYR45      -0.1241
     33  CA        13.0120   19.5860   18.2790 C.3    45  TYR45       0.1605
     34  C         13.8180   19.6760   19.6060 C.2    45  TYR45       0.2264
     35  O         14.7520   18.8870   19.7850 O.2    45  TYR45      -0.2867
     36  CB        13.6770   20.4260   17.1540 C.3    45  TYR45       0.0534
     37  CG        13.6170   21.9260   17.3630 C.ar   45  TYR45      -0.0201
     38  CD1       14.5810   22.5760   18.1440 C.ar   45  TYR45      -0.0009
     39  CD2       12.6020   22.6960   16.7970 C.ar   45  TYR45      -0.0009
     40  CE1       14.5360   23.9600   18.3690 C.ar   45  TYR45       0.0417
     41  CE2       12.5570   24.0890   17.0020 C.ar   45  TYR45       0.0417
     42  CZ        13.5400   24.7120   17.7900 C.ar   45  TYR45       0.1957
     43  OH        13.5300   26.0740   18.0180 O.3    45  TYR45      -0.2866
     44  N         16.6390   18.3030   11.6900 N.3    68  CYS68      -0.1221
     45  CA        15.3770   19.0080   11.7680 C.3    68  CYS68       0.1808
     46  C         15.1910   19.7260   10.4150 C.2    68  CYS68       0.2602
     47  O         15.9160   19.4160    9.4610 O.2    68  CYS68      -0.2717
     48  CB        15.3300   19.9450   13.0020 C.3    68  CYS68       0.0970
     49  SG        16.4660   21.3670   13.0490 S.3    68  CYS68      -0.0800
     50  N         14.2270   20.6460   10.3060 N.am   69  GLY69      -0.1942
     51  CA        13.9960   21.3510    9.0410 C.3    69  GLY69       0.2014
     52  C         15.2570   21.9400    8.4020 C.2    69  GLY69       0.2639
     53  O         15.6210   21.6200    7.2660 O.2    69  GLY69      -0.2714
     54  N         15.9350   22.7810    9.1650 N.am   70  SER70      -0.1949
     55  CA        17.0820   23.5690    8.7070 C.3    70  SER70       0.1924
     56  C         18.3480   23.2600    9.5140 C.2    70  SER70       0.2314
     57  O         19.4620   23.7190    9.1670 O.2    70  SER70      -0.2863
     58  CB        16.7530   25.0400    8.8930 C.3    70  SER70       0.2116
     59  OG        16.6540   25.3250   10.2900 O.3    70  SER70      -0.2180
     60  N         18.9860   24.4500   12.3270 N.3    72  ILE72      -0.1231
     61  CA        19.2200   25.6020   13.2170 C.3    72  ILE72       0.1692
     62  C         18.6850   25.3290   14.6360 C.2    72  ILE72       0.2592
     63  O         19.3970   25.5070   15.6230 O.2    72  ILE72      -0.2718
     64  CB        18.6600   26.9460   12.5600 C.3    72  ILE72       0.0266
     65  CG1       19.5250   27.3510   11.3510 C.3    72  ILE72       0.0019
     66  CG2       18.5260   28.1120   13.5750 C.3    72  ILE72       0.0020
     67  CD1       18.8500   28.2510   10.3790 C.3    72  ILE72       0.0001
     68  N         17.4450   24.8620   14.7260 N.am   73  GLY73      -0.1957
     69  CA        16.8080   24.5550   16.0080 C.3    73  GLY73       0.1869
     70  C         17.5750   23.5680   16.8520 C.2    73  GLY73       0.2309
     71  O         17.7330   23.7860   18.0560 O.2    73  GLY73      -0.2863
     72  N         15.2660   19.8470    4.9790 N.3   112  ARG112     -0.1245
     73  CA        14.6120   20.6580    3.9450 C.3   112  ARG112      0.1563
     74  C         15.6340   21.4990    3.2020 C.2   112  ARG112      0.2260
     75  O         15.3070   22.0960    2.1740 O.2   112  ARG112     -0.2867
     76  CB        13.5490   21.6020    4.5620 C.3   112  ARG112      0.0307
     77  CG        12.4170   20.9250    5.3250 C.3   112  ARG112      0.0489
     78  CD        11.6110   21.9350    6.1340 C.3   112  ARG112      0.2205
     79  NE        10.4160   21.3110    6.6920 N.pl3 112  ARG112     -0.0865
     80  CZ         9.7750   21.6890    7.7970 C.cat 112  ARG112      0.5346
     81  NH1       10.1930   22.7290    8.5190 N.pl3 112  ARG112      0.1354
     82  NH2        8.6980   21.0100    8.1840 N.pl3 112  ARG112      0.1354
@<TRIPOS>BOND
     1    75    74    2
     2    74    73    1
     3    73    76    1
     4    73    72    1
     5    76    77    1
     6    77    78    1
     7    78    79    1
     8    79    80    2
     9    53    52    2
    10    22    21    2
    11    80    82    1
    12    80    81    1
    13    52    51    1
    14    52    54   am
    15    21    20    1
    16    23    20    1
    17    23    24    1
    18    55    58    1
    19    55    54    1
    20    55    56    1
    21    20    19    1
    22    58    59    1
    23    51    50    1
    24    57    56    2
    25    47    46    2
    26    12    11    2
    27    24    25    1
    28    19    11   am
    29    19    25    1
    30    50    46   am
    31    67    65    1
    32    46    45    1
    33    11    10    1
    34    65    64    1
    35    16    18   ar
    36    16    14   ar
    37    44    45    1
    38    45    48    1
    39    18    17   ar
    40    10    13    1
    41    10     9    1
    42    13    14    1
    43    60    61    1
    44    14    15   ar
    45    64    61    1
    46    64    66    1
    47     4     3    2
    48     7     6   ar
    49    48    49    1
    50     9     3   am
    51    61    62    1
    52    17    15   ar
    53     3     2    1
    54     6     8   ar
    55     6     5    1
    56    26    27    1
    57    30    27    1
    58    30    31    1
    59     1     2    1
    60    27    28    1
    61    62    68   am
    62    62    63    2
    63     2     5    1
    64    68    69    1
    65    69    70    1
    66    28    29    2
    67    39    41   ar
    68    39    37   ar
    69    70    71    2
    70    41    42   ar
    71    36    37    1
    72    36    33    1
    73    37    38   ar
    74    42    43    1
    75    42    40   ar
    76    38    40   ar
    77    33    32    1
    78    33    34    1
    79    34    35    2
