@<TRIPOS>MOLECULE
tmp/3k8dC01.pdb
 168 161 0 0 0
SMALL
GASTEIGER

@<TRIPOS>ATOM
      1  N         19.6910  -17.0210  150.3300 N.3     7  PRO7       -0.2102
      2  CA        20.9820  -16.3330  150.2460 C.3     7  PRO7        0.1504
      3  C         21.1740  -15.4330  151.4570 C.2     7  PRO7        0.2576
      4  O         20.2940  -14.6300  151.7710 O.2     7  PRO7       -0.2718
      5  CB        20.8430  -15.4780  148.9830 C.3     7  PRO7        0.0282
      6  CG        19.3620  -15.2000  148.8690 C.3     7  PRO7        0.0208
      7  CD        18.6420  -16.3600  149.5260 C.3     7  PRO7        0.0893
      8  N         22.3110  -15.5480  152.1330 N.am    8  ALA8       -0.1966
      9  CA        22.5340  -14.7470  153.3320 C.3     8  ALA8        0.1728
     10  C         23.9960  -14.3890  153.5230 C.2     8  ALA8        0.2616
     11  O         24.6950  -15.0350  154.2920 O.2     8  ALA8       -0.2715
     12  CB        22.0030  -15.4770  154.5740 C.3     8  ALA8        0.0334
     13  N         24.4510  -13.3550  152.8250 N.am    9  ARG9       -0.1977
     14  CA        25.8110  -12.8700  152.9920 C.3     9  ARG9        0.1597
     15  C         25.9040  -12.0920  154.2960 C.2     9  ARG9        0.2287
     16  O         24.9110  -11.5520  154.7820 O.2     9  ARG9       -0.2864
     17  CB        26.2210  -11.9630  151.8340 C.3     9  ARG9        0.0334
     18  CG        25.5780  -10.5940  151.8870 C.3     9  ARG9        0.0492
     19  CD        26.4640   -9.5560  151.2600 C.3     9  ARG9        0.2205
     20  NE        25.7530   -8.3030  151.0420 N.pl3   9  ARG9       -0.0865
     21  CZ        26.2830   -7.2500  150.4340 C.cat   9  ARG9        0.5346
     22  NH1       25.5670   -6.1480  150.2690 N.pl3   9  ARG9        0.1354
     23  NH2       27.5340   -7.3050  149.9890 N.pl3   9  ARG9        0.1354
     24  N         25.9290   -6.9670  155.0160 N.3    12  SER12      -0.1202
     25  CA        24.9120   -6.0210  154.5690 C.3    12  SER12       0.2020
     26  C         25.3050   -4.6020  154.9880 C.2    12  SER12       0.2619
     27  O         25.9160   -4.4050  156.0400 O.2    12  SER12      -0.2717
     28  CB        23.5310   -6.4100  155.1200 C.3    12  SER12       0.2103
     29  OG        23.6290   -6.8510  156.4620 O.3    12  SER12      -0.2182
     30  N         24.9640   -3.6140  154.1700 N.am   13  THR13      -0.1938
     31  CA        25.4100   -2.2450  154.4220 C.3    13  THR13       0.2028
     32  C         24.4380   -1.4360  155.2720 C.2    13  THR13       0.2642
     33  O         24.8660   -0.6050  156.0630 O.2    13  THR13      -0.2714
     34  CB        25.6930   -1.4630  153.1200 C.3    13  THR13       0.1808
     35  OG1       24.4770   -1.3340  152.3650 O.3    13  THR13      -0.2208
     36  CG2       26.7600   -2.1620  152.2790 C.3    13  THR13       0.0379
     37  N         23.1360   -1.6700  155.1120 N.am   14  ARG14      -0.1963
     38  CA        22.1380   -0.9060  155.8670 C.3    14  ARG14       0.1729
     39  C         21.9280   -1.4580  157.2850 C.2    14  ARG14       0.2616
     40  O         21.4440   -0.7470  158.1770 O.2    14  ARG14      -0.2715
     41  CB        20.8040   -0.8670  155.1100 C.3    14  ARG14       0.0348
     42  CG        20.8370   -0.0190  153.8390 C.3    14  ARG14       0.0492
     43  CD        19.5680   -0.2130  153.0010 C.3    14  ARG14       0.2205
     44  NE        19.5000   -1.5590  152.4410 N.pl3  14  ARG14      -0.0865
     45  CZ        18.4560   -2.0440  151.7760 C.cat  14  ARG14       0.5346
     46  NH1       17.3770   -1.2920  151.5940 N.pl3  14  ARG14       0.1354
     47  NH2       18.4900   -3.2870  151.3010 N.pl3  14  ARG14       0.1354
     48  N         22.2810   -2.7240  157.4780 N.am   15  LEU15      -0.1977
     49  CA        22.1880   -3.3850  158.7840 C.3    15  LEU15       0.1596
     50  C         23.3000   -4.4270  158.8540 C.2    15  LEU15       0.2287
     51  O         23.0790   -5.5850  158.5180 O.2    15  LEU15      -0.2864
     52  CB        20.8400   -4.1020  158.9070 C.3    15  LEU15       0.0297
     53  CG        19.9330   -3.9590  160.1290 C.3    15  LEU15       0.0022
     54  CD1       18.9590   -5.1340  160.1710 C.3    15  LEU15       0.0001
     55  CD2       20.7130   -3.8580  161.4260 C.3    15  LEU15       0.0001
     56  N         23.5050   -8.7510  159.3710 N.3    18  LYS18      -0.1231
     57  CA        22.0920   -9.0070  159.6690 C.3    18  LYS18       0.1678
     58  C         21.6290  -10.4680  159.7190 C.2    18  LYS18       0.2434
     59  O         20.6680  -10.7640  160.4190 O.2    18  LYS18      -0.2733
     60  CB        21.1610   -8.1420  158.7960 C.3    18  LYS18       0.0284
     61  CG        21.0010   -8.5720  157.3420 C.3    18  LYS18       0.0035
     62  CD        20.0660   -7.5700  156.6310 C.3    18  LYS18       0.0206
     63  CE        19.6920   -7.9950  155.2090 C.3    18  LYS18       0.1093
     64  NZ        18.7430   -6.9720  154.6380 N.3    18  LYS18      -0.1314
     65  N         22.3060  -11.3970  159.0120 N.am   19  PRO19      -0.2729
     66  CA        21.7610  -12.7460  159.1720 C.3    19  PRO19       0.1401
     67  C         21.8940  -13.2240  160.6190 C.2    19  PRO19       0.2269
     68  O         21.1740  -14.1180  161.0550 O.2    19  PRO19      -0.2865
     69  CB        22.6610  -13.6050  158.2780 C.3    19  PRO19       0.0296
     70  CG        23.2300  -12.6600  157.2790 C.3    19  PRO19       0.0237
     71  CD        23.3930  -11.3510  158.0130 C.3    19  PRO19       0.0939
     72  N         29.9220  -12.4070  144.8640 N.3    71  HIS71      -0.1226
     73  CA        28.5630  -12.3050  144.3260 C.3    71  HIS71       0.1752
     74  C         27.9360  -10.9590  144.6970 C.2    71  HIS71       0.2596
     75  O         28.1170  -10.4720  145.8130 O.2    71  HIS71      -0.2718
     76  CB        27.6930  -13.4410  144.8620 C.3    71  HIS71       0.0759
     77  CG        28.0850  -14.7950  144.3620 C.ar   71  HIS71       0.0818
     78  ND1       28.0700  -15.1270  143.0260 N.ar   71  HIS71      -0.2268
     79  CD2       28.4840  -15.9100  145.0210 C.ar   71  HIS71       0.1154
     80  CE1       28.4460  -16.3840  142.8790 C.ar   71  HIS71       0.1986
     81  NE2       28.6990  -16.8840  144.0760 N.ar   71  HIS71      -0.2212
     82  N         27.1900  -10.3670  143.7670 N.am   72  GLN72      -0.1965
     83  CA        26.6450   -9.0240  143.9670 C.3    72  GLN72       0.1733
     84  C         25.1420   -9.0170  144.2800 C.2    72  GLN72       0.2617
     85  O         24.5400   -7.9540  144.4770 O.2    72  GLN72      -0.2715
     86  CB        26.9210   -8.1570  142.7430 C.3    72  GLN72       0.0408
     87  CG        28.3960   -8.0160  142.4150 C.3    72  GLN72       0.0908
     88  CD        29.1230   -7.1160  143.3910 C.2    72  GLN72       0.2608
     89  OE1       28.7660   -5.9500  143.5610 O.2    72  GLN72      -0.2717
     90  NE2       30.1530   -7.6510  144.0350 N.am   72  GLN72      -0.0878
     91  N         24.5380  -10.1990  144.3070 N.am   73  SER73      -0.1936
     92  CA        23.1450  -10.3220  144.7060 C.3    73  SER73       0.2055
     93  C         22.8550  -11.7530  145.1130 C.2    73  SER73       0.2643
     94  O         23.6380  -12.6670  144.8290 O.2    73  SER73      -0.2714
     95  CB        22.2200   -9.9330  143.5490 C.3    73  SER73       0.2130
     96  OG        22.1820  -10.9820  142.5970 O.3    73  SER73      -0.2179
     97  N         21.7210  -11.9500  145.7710 N.am   74  GLY74      -0.1954
     98  CA        21.2920  -13.2800  146.1520 C.3    74  GLY74       0.1869
     99  C         21.0630  -14.1660  144.9400 C.2    74  GLY74       0.2309
    100  O         21.3790  -15.3550  144.9580 O.2    74  GLY74      -0.2863
    101  N         24.3650  -15.4050  143.7670 N.3    77  ARG77      -0.1245
    102  CA        24.8400  -16.4120  144.7290 C.3    77  ARG77       0.1563
    103  C         24.1410  -17.7570  144.5130 C.2    77  ARG77       0.2260
    104  O         24.7740  -18.8180  144.5630 O.2    77  ARG77      -0.2867
    105  CB        24.6500  -15.9010  146.1750 C.3    77  ARG77       0.0307
    106  CG        25.2000  -16.8480  147.2710 C.3    77  ARG77       0.0489
    107  CD        25.1110  -16.2070  148.6780 C.3    77  ARG77       0.2205
    108  NE        25.4960  -14.8000  148.6360 N.pl3  77  ARG77      -0.0865
    109  CZ        26.7530  -14.3700  148.6290 C.cat  77  ARG77       0.5346
    110  NH1       27.7540  -15.2450  148.7040 N.pl3  77  ARG77       0.1354
    111  NH2       27.0130  -13.0670  148.5590 N.pl3  77  ARG77       0.1354
    112  N         14.5450  -14.7440  150.4740 N.3    97  GLN97      -0.1231
    113  CA        15.6420  -13.8870  150.9340 C.3    97  GLN97       0.1698
    114  C         15.8390  -13.9780  152.4420 C.2    97  GLN97       0.2593
    115  O         14.8800  -14.1570  153.1860 O.2    97  GLN97      -0.2718
    116  CB        15.4340  -12.4350  150.5040 C.3    97  GLN97       0.0381
    117  CG        15.6070  -12.2360  148.9790 C.3    97  GLN97       0.0905
    118  CD        15.4770  -10.7820  148.5500 C.2    97  GLN97       0.2608
    119  OE1       15.0150   -9.9300  149.3140 O.2    97  GLN97      -0.2717
    120  NE2       15.8840  -10.4940  147.3160 N.am   97  GLN97      -0.0878
    121  N         17.0920  -13.8580  152.8770 N.am   98  GLY98      -0.1942
    122  CA        17.4350  -13.9450  154.2870 C.3    98  GLY98       0.2014
    123  C         16.8740  -12.8020  155.1120 C.2    98  GLY98       0.2638
    124  O         16.9680  -12.8220  156.3390 O.2    98  GLY98      -0.2714
    125  N         16.3080  -11.7960  154.4490 N.am   99  ASP99      -0.1971
    126  CA        15.7130  -10.6640  155.1580 C.3    99  ASP99       0.1709
    127  C         14.1910  -10.7820  155.3420 C.2    99  ASP99       0.2293
    128  O         13.5320   -9.7980  155.6710 O.2    99  ASP99      -0.2864
    129  CB        16.0750   -9.3260  154.4920 C.3    99  ASP99       0.1436
    130  CG        15.3570   -9.1050  153.1610 C.2    99  ASP99       0.3671
    131  OD1       14.9440  -10.0860  152.5170 O.co2  99  ASP99      -0.2456
    132  OD2       15.2140   -7.9400  152.7460 O.co2  99  ASP99      -0.2456
    133  N         12.3300    1.8680  143.9960 N.3   156  ARG156     -0.1245
    134  CA        12.3260    2.4400  145.3340 C.3   156  ARG156      0.1563
    135  C         11.5890    3.7730  145.3500 C.2   156  ARG156      0.2260
    136  O         11.2540    4.2840  146.4160 O.2   156  ARG156     -0.2867
    137  CB        13.7580    2.6140  145.8330 C.3   156  ARG156      0.0307
    138  CG        14.5010    1.2760  145.9060 C.3   156  ARG156      0.0489
    139  CD        15.8960    1.4210  146.5030 C.3   156  ARG156      0.2205
    140  NE        16.5810    0.1240  146.5310 N.pl3 156  ARG156     -0.0865
    141  CZ        16.3750   -0.8070  147.4550 C.cat 156  ARG156      0.5346
    142  NH1       17.0400   -1.9540  147.3990 N.pl3 156  ARG156      0.1354
    143  NH2       15.5090   -0.5920  148.4420 N.pl3 156  ARG156      0.1354
    144  N         19.6610   -0.7050  142.8190 N.3   207  MET207     -0.1245
    145  CA        20.0520   -1.8140  143.7030 C.3   207  MET207      0.1570
    146  C         18.8930   -2.8050  143.8660 C.2   207  MET207      0.2261
    147  O         18.5140   -3.1880  144.9850 O.2   207  MET207     -0.2867
    148  CB        20.5610   -1.3020  145.0600 C.3   207  MET207      0.0387
    149  CG        21.8470   -0.4650  144.9430 C.3   207  MET207      0.0595
    150  SD        23.2210   -1.4180  144.2370 S.3   207  MET207     -0.1393
    151  CE        23.9060   -2.1460  145.7370 C.3   207  MET207      0.0692
    152  N         17.9760   -6.4320  142.0580 N.3   209  GLU209     -0.1245
    153  CA        18.5240   -7.4470  141.1490 C.3   209  GLU209      0.1567
    154  C         17.5300   -7.9030  140.0660 C.2   209  GLU209      0.2260
    155  O         17.9320   -8.3160  138.9700 O.2   209  GLU209     -0.2867
    156  CB        19.0190   -8.6560  141.9450 C.3   209  GLU209      0.0388
    157  CG        17.9030   -9.4740  142.5980 C.3   209  GLU209      0.1160
    158  CD        18.3860  -10.1680  143.8720 C.2   209  GLU209      0.3649
    159  OE1       18.5910   -9.4660  144.8840 O.co2 209  GLU209     -0.2457
    160  OE2       18.5620  -11.4050  143.8510 O.co2 209  GLU209     -0.2457
    161  N         15.6220   -4.7110  156.6260 N.3   234  ASP234     -0.1239
    162  CA        16.7250   -4.0730  155.9120 C.3   234  ASP234      0.1674
    163  C         17.3930   -2.9550  156.7090 C.2   234  ASP234      0.2266
    164  O         18.5320   -2.5890  156.4360 O.2   234  ASP234     -0.2867
    165  CB        16.2360   -3.5570  154.5590 C.3   234  ASP234      0.1410
    166  CG        15.6670   -4.6610  153.7120 C.2   234  ASP234      0.3668
    167  OD1       16.3150   -5.7230  153.6590 O.co2 234  ASP234     -0.2456
    168  OD2       14.5730   -4.4900  153.1310 O.co2 234  ASP234     -0.2456
@<TRIPOS>BOND
     1   155   154    2
     2   154   153    1
     3   153   156    1
     4   153   152    1
     5   156   157    1
     6    87    86    1
     7    87    88    1
     8    96    95    1
     9   157   158    1
    10    86    83    1
    11   144   145    1
    12    80    78   ar
    13    80    81   ar
    14    78    77   ar
    15    88    89    2
    16    88    90   am
    17    95    92    1
    18   145   146    1
    19   145   148    1
    20    82    83    1
    21    82    74   am
    22   101   102    1
    23   160   158   ar
    24   146   147    2
    25   158   159   ar
    26    83    84    1
    27   133   134    1
    28    81    79   ar
    29   150   149    1
    30   150   151    1
    31    84    91   am
    32    84    85    2
    33    91    92    1
    34    73    74    1
    35    73    76    1
    36    73    72    1
    37    77    76    1
    38    77    79   ar
    39   103   104    2
    40   103   102    1
    41    74    75    2
    42    92    93    1
    43   102   105    1
    44    94    93    2
    45    99   100    2
    46    99    98    1
    47   149   148    1
    48    93    97   am
    49   134   135    1
    50   134   137    1
    51   135   136    2
    52    97    98    1
    53   137   138    1
    54   138   139    1
    55   105   106    1
    56   139   140    1
    57   140   141    2
    58   106   107    1
    59   120   118   am
    60   142   141    1
    61   141   143    1
    62   118   117    1
    63   118   119    2
    64   111   109    1
    65   109   108    2
    66   109   110    1
    67   108   107    1
    68     6     5    1
    69     6     7    1
    70   117   116    1
    71     5     2    1
    72     7     1    1
    73    23    21    1
    74     2     1    1
    75     2     3    1
    76    22    21    1
    77    21    20    2
    78   112   113    1
    79   116   113    1
    80   113   114    1
    81    20    19    1
    82    19    18    1
    83    47    45    1
    84     3     4    2
    85     3     8   am
    86    46    45    1
    87    45    44    2
    88    17    18    1
    89    17    14    1
    90     8     9    1
    91    36    34    1
    92    35    34    1
    93    44    43    1
    94   114   121   am
    95   114   115    2
    96   131   130   ar
    97   132   130   ar
    98    13    14    1
    99    13    10   am
   100   121   122    1
   101    14    15    1
   102    43    42    1
   103    34    31    1
   104   168   166   ar
   105   130   129    1
   106     9    10    1
   107     9    12    1
   108    10    11    2
   109   167   166   ar
   110   166   165    1
   111    42    41    1
   112    30    31    1
   113    30    26   am
   114   122   123    1
   115    15    16    2
   116    31    32    1
   117   125   123   am
   118   125   126    1
   119   129   126    1
   120   165   162    1
   121    25    26    1
   122    25    24    1
   123    25    28    1
   124    64    63    1
   125    26    27    2
   126    41    38    1
   127   123   124    2
   128    37    32   am
   129    37    38    1
   130    28    29    1
   131   126   127    1
   132    63    62    1
   133    32    33    2
   134   127   128    2
   135    38    39    1
   136   162   161    1
   137   162   163    1
   138   164   163    2
   139    62    61    1
   140    70    71    1
   141    70    69    1
   142    39    48   am
   143    39    40    2
   144    61    60    1
   145    48    49    1
   146    71    65    1
   147    69    66    1
   148    51    50    2
   149    49    50    1
   150    49    52    1
   151    60    57    1
   152    52    53    1
   153    65    66    1
   154    65    58   am
   155    66    67    1
   156    56    57    1
   157    57    58    1
   158    58    59    2
   159    53    54    1
   160    53    55    1
   161    67    68    2
