@<TRIPOS>MOLECULE
tmp/3k8dC00.pdb
 137 127 0 0 0
SMALL
GASTEIGER

@<TRIPOS>ATOM
      1  N         23.1360   -1.6700  155.1120 N.3    14  ARG14      -0.1245
      2  CA        22.1380   -0.9060  155.8670 C.3    14  ARG14       0.1563
      3  C         21.9280   -1.4580  157.2850 C.2    14  ARG14       0.2260
      4  O         21.4440   -0.7470  158.1770 O.2    14  ARG14      -0.2867
      5  CB        20.8040   -0.8670  155.1100 C.3    14  ARG14       0.0307
      6  CG        20.8370   -0.0190  153.8390 C.3    14  ARG14       0.0489
      7  CD        19.5680   -0.2130  153.0010 C.3    14  ARG14       0.2205
      8  NE        19.5000   -1.5590  152.4410 N.pl3  14  ARG14      -0.0865
      9  CZ        18.4560   -2.0440  151.7760 C.cat  14  ARG14       0.5346
     10  NH1       17.3770   -1.2920  151.5940 N.pl3  14  ARG14       0.1354
     11  NH2       18.4900   -3.2870  151.3010 N.pl3  14  ARG14       0.1354
     12  N         24.5380  -10.1990  144.3070 N.3    73  SER73      -0.1217
     13  CA        23.1450  -10.3220  144.7060 C.3    73  SER73       0.1889
     14  C         22.8550  -11.7530  145.1130 C.2    73  SER73       0.2288
     15  O         23.6380  -12.6670  144.8290 O.2    73  SER73      -0.2866
     16  CB        22.2200   -9.9330  143.5490 C.3    73  SER73       0.2089
     17  OG        22.1820  -10.9820  142.5970 O.3    73  SER73      -0.2183
     18  N         14.5450  -14.7440  150.4740 N.3    97  GLN97      -0.1245
     19  CA        15.6420  -13.8870  150.9340 C.3    97  GLN97       0.1566
     20  C         15.8390  -13.9780  152.4420 C.2    97  GLN97       0.2260
     21  O         14.8800  -14.1570  153.1860 O.2    97  GLN97      -0.2867
     22  CB        15.4340  -12.4350  150.5040 C.3    97  GLN97       0.0367
     23  CG        15.6070  -12.2360  148.9790 C.3    97  GLN97       0.0905
     24  CD        15.4770  -10.7820  148.5500 C.2    97  GLN97       0.2608
     25  OE1       15.0150   -9.9300  149.3140 O.2    97  GLN97      -0.2717
     26  NE2       15.8840  -10.4940  147.3160 N.am   97  GLN97      -0.0878
     27  N         16.3080  -11.7960  154.4490 N.3    99  ASP99      -0.1225
     28  CA        15.7130  -10.6640  155.1580 C.3    99  ASP99       0.1805
     29  C         14.1910  -10.7820  155.3420 C.2    99  ASP99       0.2597
     30  O         13.5320   -9.7980  155.6710 O.2    99  ASP99      -0.2718
     31  CB        16.0750   -9.3260  154.4920 C.3    99  ASP99       0.1424
     32  CG        15.3570   -9.1050  153.1610 C.2    99  ASP99       0.3668
     33  OD1       14.9440  -10.0860  152.5170 O.co2  99  ASP99      -0.2456
     34  OD2       15.2140   -7.9400  152.7460 O.co2  99  ASP99      -0.2456
     35  N         13.6470  -11.9840  155.1680 N.am  100  GLU100     -0.1979
     36  CA        12.1990  -12.1890  155.2770 C.3   100  GLU100      0.1602
     37  C         11.8160  -13.2190  156.3490 C.2   100  GLU100      0.2287
     38  O         11.2020  -14.2490  156.0450 O.2   100  GLU100     -0.2864
     39  CB        11.6170  -12.6050  153.9210 C.3   100  GLU100      0.0415
     40  CG        11.7030  -11.5340  152.8350 C.3   100  GLU100      0.1163
     41  CD        10.6230  -10.4580  152.9520 C.2   100  GLU100      0.3649
     42  OE1        9.8720  -10.4610  153.9500 O.co2 100  GLU100     -0.2457
     43  OE2       10.5240   -9.6020  152.0420 O.co2 100  GLU100     -0.2457
     44  N         13.2130    2.0840  151.1550 N.3   139  ASN139     -0.1240
     45  CA        13.5700    0.7160  151.5210 C.3   139  ASN139      0.1653
     46  C         12.4240   -0.2690  151.2810 C.2   139  ASN139      0.2266
     47  O         12.6240   -1.4840  151.3350 O.2   139  ASN139     -0.2867
     48  CB        14.0860    0.6460  152.9720 C.3   139  ASN139      0.1155
     49  CG        15.3360    1.4710  153.1580 C.2   139  ASN139      0.2627
     50  OD1       16.3230    1.2780  152.4440 O.2   139  ASN139     -0.2716
     51  ND2       15.2940    2.4220  154.0850 N.am  139  ASN139     -0.0877
     52  N         10.1520   -1.6400  148.4420 N.3   141  VAL141     -0.1245
     53  CA        10.1770   -1.6710  146.9770 C.3   141  VAL141      0.1561
     54  C          8.7490   -1.7400  146.4560 C.2   141  VAL141      0.2260
     55  O          7.9770   -2.6140  146.8680 O.2   141  VAL141     -0.2867
     56  CB        11.0010   -2.8710  146.4730 C.3   141  VAL141      0.0252
     57  CG1       11.0600   -2.8940  144.9280 C.3   141  VAL141      0.0019
     58  CG2       12.4120   -2.7920  147.0430 C.3   141  VAL141      0.0019
     59  N         12.3300    1.8680  143.9960 N.3   156  ARG156     -0.1245
     60  CA        12.3260    2.4400  145.3340 C.3   156  ARG156      0.1563
     61  C         11.5890    3.7730  145.3500 C.2   156  ARG156      0.2260
     62  O         11.2540    4.2840  146.4160 O.2   156  ARG156     -0.2867
     63  CB        13.7580    2.6140  145.8330 C.3   156  ARG156      0.0307
     64  CG        14.5010    1.2760  145.9060 C.3   156  ARG156      0.0489
     65  CD        15.8960    1.4210  146.5030 C.3   156  ARG156      0.2205
     66  NE        16.5810    0.1240  146.5310 N.pl3 156  ARG156     -0.0865
     67  CZ        16.3750   -0.8070  147.4550 C.cat 156  ARG156      0.5346
     68  NH1       17.0400   -1.9540  147.3990 N.pl3 156  ARG156      0.1354
     69  NH2       15.5090   -0.5920  148.4420 N.pl3 156  ARG156      0.1354
     70  N          6.6330   -5.0730  147.0440 N.3   180  HIS180     -0.1241
     71  CA         7.2270   -6.3110  146.5580 C.3   180  HIS180      0.1621
     72  C          7.8590   -7.0960  147.7120 C.2   180  HIS180      0.2264
     73  O          8.6300   -6.5450  148.4930 O.2   180  HIS180     -0.2867
     74  CB         8.2940   -5.9980  145.5040 C.3   180  HIS180      0.0745
     75  CG         8.9440   -7.2230  144.9480 C.ar  180  HIS180      0.0817
     76  ND1       10.2990   -7.3090  144.7140 N.ar  180  HIS180     -0.2268
     77  CD2        8.4240   -8.4330  144.6200 C.ar  180  HIS180      0.1154
     78  CE1       10.5840   -8.5090  144.2330 C.ar  180  HIS180      0.1986
     79  NE2        9.4640   -9.2110  144.1690 N.ar  180  HIS180     -0.2212
     80  N         10.3690  -10.1180  149.2760 N.3   182  GLY182     -0.1225
     81  CA        11.6710  -10.6670  148.9170 C.3   182  GLY182      0.1811
     82  C         11.6680  -12.1690  148.6840 C.2   182  GLY182      0.2280
     83  O         12.3170  -12.9380  149.4080 O.2   182  GLY182     -0.2866
     84  N         11.4960  -15.1120  145.2700 N.3   184  TYR184     -0.1241
     85  CA        11.4500  -15.3250  143.8200 C.3   184  TYR184      0.1605
     86  C         11.3190  -16.8070  143.5090 C.2   184  TYR184      0.2264
     87  O         11.9410  -17.6380  144.1650 O.2   184  TYR184     -0.2867
     88  CB        12.7150  -14.7950  143.1430 C.3   184  TYR184      0.0534
     89  CG        12.9900  -13.3170  143.2990 C.ar  184  TYR184     -0.0201
     90  CD1       14.0200  -12.8670  144.1230 C.ar  184  TYR184     -0.0009
     91  CD2       12.2390  -12.3660  142.6010 C.ar  184  TYR184     -0.0009
     92  CE1       14.2930  -11.5050  144.2580 C.ar  184  TYR184      0.0417
     93  CE2       12.5020  -11.0150  142.7290 C.ar  184  TYR184      0.0417
     94  CZ        13.5270  -10.5830  143.5540 C.ar  184  TYR184      0.1957
     95  OH        13.7870   -9.2430  143.6770 O.3   184  TYR184     -0.2866
     96  N         19.6610   -0.7050  142.8190 N.3   207  MET207     -0.1230
     97  CA        20.0520   -1.8140  143.7030 C.3   207  MET207      0.1702
     98  C         18.8930   -2.8050  143.8660 C.2   207  MET207      0.2592
     99  O         18.5140   -3.1880  144.9850 O.2   207  MET207     -0.2718
    100  CB        20.5610   -1.3020  145.0600 C.3   207  MET207      0.0401
    101  CG        21.8470   -0.4650  144.9430 C.3   207  MET207      0.0596
    102  SD        23.2210   -1.4180  144.2370 S.3   207  MET207     -0.1393
    103  CE        23.9060   -2.1460  145.7370 C.3   207  MET207      0.0692
    104  N         18.3430   -3.2170  142.7220 N.am  208  LEU208     -0.1966
    105  CA        17.2590   -4.1810  142.6540 C.3   208  LEU208      0.1728
    106  C         17.6390   -5.2260  141.6100 C.2   208  LEU208      0.2616
    107  O         17.6460   -4.9390  140.4120 O.2   208  LEU208     -0.2715
    108  CB        15.9520   -3.4850  142.2360 C.3   208  LEU208      0.0311
    109  CG        15.3570   -2.4970  143.2580 C.3   208  LEU208      0.0022
    110  CD1       14.1420   -1.7590  142.6600 C.3   208  LEU208      0.0001
    111  CD2       14.9640   -3.2170  144.5580 C.3   208  LEU208      0.0001
    112  N         17.9760   -6.4320  142.0580 N.am  209  GLU209     -0.1963
    113  CA        18.5240   -7.4470  141.1490 C.3   209  GLU209      0.1733
    114  C         17.5300   -7.9030  140.0660 C.2   209  GLU209      0.2616
    115  O         17.9320   -8.3160  138.9700 O.2   209  GLU209     -0.2715
    116  CB        19.0190   -8.6560  141.9450 C.3   209  GLU209      0.0429
    117  CG        17.9030   -9.4740  142.5980 C.3   209  GLU209      0.1163
    118  CD        18.3860  -10.1680  143.8720 C.2   209  GLU209      0.3649
    119  OE1       18.5910   -9.4660  144.8840 O.co2 209  GLU209     -0.2457
    120  OE2       18.5620  -11.4050  143.8510 O.co2 209  GLU209     -0.2457
    121  N         16.2400   -7.8270  140.3750 N.am  210  GLN210     -0.1977
    122  CA        15.2170   -8.2950  139.4490 C.3   210  GLN210      0.1601
    123  C         15.1450   -7.4180  138.1930 C.2   210  GLN210      0.2287
    124  O         14.6190   -7.8370  137.1540 O.2   210  GLN210     -0.2864
    125  CB        13.8530   -8.3920  140.1410 C.3   210  GLN210      0.0394
    126  CG        13.2410   -7.0540  140.5800 C.3   210  GLN210      0.0908
    127  CD        13.6700   -6.6140  141.9940 C.2   210  GLN210      0.2608
    128  OE1       14.8380   -6.7040  142.3600 O.2   210  GLN210     -0.2717
    129  NE2       12.7140   -6.1120  142.7750 N.am  210  GLN210     -0.0878
    130  N         15.6220   -4.7110  156.6260 N.3   234  ASP234     -0.1239
    131  CA        16.7250   -4.0730  155.9120 C.3   234  ASP234      0.1674
    132  C         17.3930   -2.9550  156.7090 C.2   234  ASP234      0.2266
    133  O         18.5320   -2.5890  156.4360 O.2   234  ASP234     -0.2867
    134  CB        16.2360   -3.5570  154.5590 C.3   234  ASP234      0.1410
    135  CG        15.6670   -4.6610  153.7120 C.2   234  ASP234      0.3668
    136  OD1       16.3150   -5.7230  153.6590 O.co2 234  ASP234     -0.2456
    137  OD2       14.5730   -4.4900  153.1310 O.co2 234  ASP234     -0.2456
@<TRIPOS>BOND
     1   124   123    2
     2   123   122    1
     3   115   114    2
     4   122   125    1
     5   122   121    1
     6   114   121   am
     7   114   113    1
     8   125   126    1
     9   107   106    2
    10   126   127    1
    11   113   116    1
    12   113   112    1
    13   106   112   am
    14   106   105    1
    15   116   117    1
    16   127   128    2
    17   127   129   am
    18   108   105    1
    19   108   109    1
    20    17    16    1
    21   117   118    1
    22    91    93   ar
    23    91    89   ar
    24   105   104    1
    25   110   109    1
    26   104    98   am
    27    93    94   ar
    28    96    97    1
    29    88    89    1
    30    88    85    1
    31   109   111    1
    32    89    90   ar
    33    86    85    1
    34    86    87    2
    35    16    13    1
    36    94    95    1
    37    94    92   ar
    38    97    98    1
    39    97   100    1
    40    85    84    1
    41   120   118   ar
    42    98    99    2
    43   118   119   ar
    44    59    60    1
    45    90    92   ar
    46    79    78   ar
    47    79    77   ar
    48    78    76   ar
    49   102   101    1
    50   102   103    1
    51    12    13    1
    52    77    75   ar
    53    13    14    1
    54    76    75   ar
    55    15    14    2
    56    57    56    1
    57   101   100    1
    58    75    74    1
    59    60    61    1
    60    60    63    1
    61    61    62    2
    62    74    71    1
    63    63    64    1
    64    64    65    1
    65    54    55    2
    66    54    53    1
    67    56    53    1
    68    56    58    1
    69    65    66    1
    70    66    67    2
    71    71    70    1
    72    71    72    1
    73    53    52    1
    74    26    24   am
    75    68    67    1
    76    67    69    1
    77    72    73    2
    78    24    23    1
    79    24    25    2
    80    82    81    1
    81    82    83    2
    82    81    80    1
    83    23    22    1
    84    18    19    1
    85    22    19    1
    86    19    20    1
    87    44    45    1
    88    46    47    2
    89    46    45    1
    90    11     9    1
    91    45    48    1
    92    10     9    1
    93     9     8    2
    94    43    41   ar
    95     8     7    1
    96    20    21    2
    97    50    49    2
    98    33    32   ar
    99    34    32   ar
   100    40    41    1
   101    40    39    1
   102    41    42   ar
   103    48    49    1
   104     7     6    1
   105   137   135   ar
   106    49    51   am
   107    32    31    1
   108   136   135   ar
   109   135   134    1
   110     6     5    1
   111    39    36    1
   112    27    28    1
   113    31    28    1
   114   134   131    1
   115     5     2    1
   116     1     2    1
   117    28    29    1
   118    35    36    1
   119    35    29   am
   120    36    37    1
   121    29    30    2
   122     2     3    1
   123   131   130    1
   124   131   132    1
   125    38    37    2
   126   133   132    2
   127     3     4    2
