@<TRIPOS>MOLECULE
tmp/3k8gA02.pdb
 91 87 0 0 0
SMALL
GASTEIGER

@<TRIPOS>ATOM
      1  N         65.8470   40.9930  -16.9310 N.3   142  ARG142     -0.1245
      2  CA        67.2690   41.3900  -17.0570 C.3   142  ARG142      0.1563
      3  C         68.0690   40.9960  -15.8120 C.2   142  ARG142      0.2260
      4  O         69.2440   40.6510  -15.8840 O.2   142  ARG142     -0.2867
      5  CB        67.4170   42.9120  -17.3350 C.3   142  ARG142      0.0307
      6  CG        68.8620   43.3300  -17.4390 C.3   142  ARG142      0.0489
      7  CD        69.0380   44.7820  -17.8870 C.3   142  ARG142      0.2205
      8  NE        70.4550   45.0620  -18.0200 N.pl3 142  ARG142     -0.0865
      9  CZ        70.9300   46.2700  -18.3070 C.cat 142  ARG142      0.5346
     10  NH1       70.0910   47.2840  -18.4820 N.pl3 142  ARG142      0.1354
     11  NH2       72.2300   46.4550  -18.3900 N.pl3 142  ARG142      0.1354
     12  N         78.0110   43.9940  -14.9700 N.3   155  THR155     -0.1218
     13  CA        76.8550   44.7700  -14.4990 C.3   155  THR155      0.1862
     14  C         76.3860   44.2500  -13.1350 C.2   155  THR155      0.2287
     15  O         76.1550   43.0590  -12.9670 O.2   155  THR155     -0.2866
     16  CB        75.7220   44.7160  -15.5270 C.3   155  THR155      0.1770
     17  OG1       76.1810   45.3040  -16.7510 O.3   155  THR155     -0.2211
     18  CG2       74.5010   45.5120  -15.0700 C.3   155  THR155      0.0375
     19  N         70.3750   48.7550  -12.7430 N.3   186  TYR186     -0.1227
     20  CA        71.5350   48.0620  -13.3670 C.3   186  TYR186      0.1736
     21  C         72.6690   49.0710  -13.4880 C.2   186  TYR186      0.2595
     22  O         72.4500   50.1540  -14.0590 O.2   186  TYR186     -0.2718
     23  CB        71.1460   47.4860  -14.7500 C.3   186  TYR186      0.0548
     24  CG        69.9200   46.6030  -14.6160 C.ar  186  TYR186     -0.0200
     25  CD1       70.0390   45.2970  -14.1170 C.ar  186  TYR186     -0.0009
     26  CD2       68.6460   47.0800  -14.9430 C.ar  186  TYR186     -0.0009
     27  CE1       68.8840   44.4750  -13.9500 C.ar  186  TYR186      0.0417
     28  CE2       67.4900   46.2540  -14.7710 C.ar  186  TYR186      0.0417
     29  CZ        67.6480   44.9660  -14.2690 C.ar  186  TYR186      0.1957
     30  OH        66.5240   44.1470  -14.0860 O.3   186  TYR186     -0.2866
     31  N         73.8280   48.7450  -12.9000 N.am  187  LEU187     -0.1966
     32  CA        74.9540   49.6930  -12.7820 C.3   187  LEU187      0.1728
     33  C         76.2230   49.1080  -13.3570 C.2   187  LEU187      0.2616
     34  O         76.4420   47.8920  -13.2890 O.2   187  LEU187     -0.2715
     35  CB        75.1980   50.1030  -11.3150 C.3   187  LEU187      0.0311
     36  CG        73.9640   50.4270  -10.4430 C.3   187  LEU187      0.0022
     37  CD1       73.5570   49.2600   -9.5390 C.3   187  LEU187      0.0001
     38  CD2       74.1480   51.7070   -9.5850 C.3   187  LEU187      0.0001
     39  N         77.0940   49.9720  -13.8890 N.am  188  THR188     -0.1951
     40  CA        78.3740   49.4760  -14.3930 C.3   188  THR188      0.1897
     41  C         79.4630   50.5230  -14.0760 C.2   188  THR188      0.2313
     42  O         79.2220   51.7320  -14.1470 O.2   188  THR188     -0.2863
     43  CB        78.2700   49.1290  -15.9130 C.3   188  THR188      0.1794
     44  OG1       79.3700   48.2960  -16.3020 O.3   188  THR188     -0.2208
     45  CG2       78.2470   50.3700  -16.7660 C.3   188  THR188      0.0378
     46  N         82.4610   53.0090  -13.9840 N.3   190  ARG190     -0.1245
     47  CA        83.3420   53.8590  -14.8150 C.3   190  ARG190      0.1563
     48  C         84.2460   54.6430  -13.8650 C.2   190  ARG190      0.2260
     49  O         83.7580   55.5120  -13.1420 O.2   190  ARG190     -0.2867
     50  CB        82.5370   54.8680  -15.6240 C.3   190  ARG190      0.0307
     51  CG        81.6420   54.2870  -16.7060 C.3   190  ARG190      0.0489
     52  CD        82.4240   53.8610  -17.9340 C.3   190  ARG190      0.2205
     53  NE        81.6240   52.9680  -18.7700 N.pl3 190  ARG190     -0.0865
     54  CZ        81.0140   53.3270  -19.8980 C.cat 190  ARG190      0.5346
     55  NH1       81.1250   54.5770  -20.3670 N.pl3 190  ARG190      0.1354
     56  NH2       80.2900   52.4260  -20.5610 N.pl3 190  ARG190      0.1354
     57  N         77.7190   54.1400  -13.7680 N.3   195  LEU195     -0.1231
     58  CA        76.6870   54.5480  -14.7100 C.3   195  LEU195      0.1693
     59  C         75.4920   53.6150  -14.4920 C.2   195  LEU195      0.2592
     60  O         75.7050   52.4200  -14.2700 O.2   195  LEU195     -0.2718
     61  CB        77.1670   54.2890  -16.1380 C.3   195  LEU195      0.0284
     62  CG        77.6600   55.4560  -16.9890 C.3   195  LEU195      0.0019
     63  CD1       78.5900   54.9110  -18.0590 C.3   195  LEU195      0.0001
     64  CD2       76.4920   56.2300  -17.6170 C.3   195  LEU195      0.0001
     65  N         74.2670   54.1180  -14.5670 N.am  196  TYR196     -0.1962
     66  CA        73.1250   53.1870  -14.3370 C.3   196  TYR196      0.1771
     67  C         71.9230   53.4160  -15.2210 C.2   196  TYR196      0.2620
     68  O         71.7710   54.4940  -15.8230 O.2   196  TYR196     -0.2715
     69  CB        72.7040   53.1580  -12.8570 C.3   196  TYR196      0.0574
     70  CG        72.1800   54.4610  -12.3440 C.ar  196  TYR196     -0.0198
     71  CD1       73.0190   55.3290  -11.6440 C.ar  196  TYR196     -0.0009
     72  CD2       70.8530   54.8400  -12.5580 C.ar  196  TYR196     -0.0009
     73  CE1       72.5590   56.5400  -11.1710 C.ar  196  TYR196      0.0417
     74  CE2       70.3860   56.0600  -12.0960 C.ar  196  TYR196      0.0417
     75  CZ        71.2480   56.8900  -11.3950 C.ar  196  TYR196      0.1957
     76  OH        70.7960   58.0870  -10.9200 O.3   196  TYR196     -0.2866
     77  N         71.0750   52.3790  -15.3090 N.am  197  THR197     -0.1951
     78  CA        69.7620   52.5050  -15.9100 C.3   197  THR197      0.1897
     79  C         68.8460   51.9270  -14.8680 C.2   197  THR197      0.2313
     80  O         69.1870   50.9290  -14.2100 O.2   197  THR197     -0.2863
     81  CB        69.5460   51.6100  -17.1630 C.3   197  THR197      0.1794
     82  OG1       70.6160   51.7680  -18.0810 O.3   197  THR197     -0.2208
     83  CG2       68.2620   52.0030  -17.8810 C.3   197  THR197      0.0378
     84  N         71.5910   56.4250  -18.0590 N.3   234  ASP234     -0.1239
     85  CA        72.8420   57.1530  -18.0760 C.3   234  ASP234      0.1674
     86  C         72.9440   58.0660  -16.8650 C.2   234  ASP234      0.2266
     87  O         73.5770   59.0990  -16.9320 O.2   234  ASP234     -0.2867
     88  CB        73.0150   57.9350  -19.3850 C.3   234  ASP234      0.1410
     89  CG        72.8440   57.0620  -20.6160 C.2   234  ASP234      0.3668
     90  OD1       72.0940   57.4740  -21.5450 O.co2 234  ASP234     -0.2456
     91  OD2       73.4560   55.9670  -20.6520 O.co2 234  ASP234     -0.2456
@<TRIPOS>BOND
     1    90    89   ar
     2    91    89   ar
     3    89    88    1
     4    56    54    1
     5    55    54    1
     6    54    53    2
     7    88    85    1
     8    53    52    1
     9    10     9    1
    10    11     9    1
    11     9     8    2
    12    82    81    1
    13    85    84    1
    14    85    86    1
    15    63    62    1
    16     8     7    1
    17    52    51    1
    18     7     6    1
    19    83    81    1
    20    64    62    1
    21     6     5    1
    22     5     2    1
    23    81    78    1
    24     2     1    1
    25     2     3    1
    26    62    61    1
    27    87    86    2
    28    45    43    1
    29    17    16    1
    30    51    50    1
    31    44    43    1
    32    61    58    1
    33    43    40    1
    34    78    77    1
    35    78    79    1
    36     4     3    2
    37    68    67    2
    38    50    47    1
    39    16    18    1
    40    16    13    1
    41    77    67   am
    42    67    66    1
    43    12    13    1
    44    26    28   ar
    45    26    24   ar
    46    79    80    2
    47    47    46    1
    48    47    48    1
    49    28    29   ar
    50    23    24    1
    51    23    20    1
    52    58    59    1
    53    58    57    1
    54    24    25   ar
    55    65    59   am
    56    65    66    1
    57    13    14    1
    58    59    60    2
    59    40    41    1
    60    40    39    1
    61    66    69    1
    62    29    30    1
    63    29    27   ar
    64    42    41    2
    65    25    27   ar
    66    22    21    2
    67    39    33   am
    68    48    49    2
    69    21    20    1
    70    21    31   am
    71    20    19    1
    72    33    34    2
    73    33    32    1
    74    14    15    2
    75    31    32    1
    76    69    70    1
    77    32    35    1
    78    72    70   ar
    79    72    74   ar
    80    70    71   ar
    81    74    75   ar
    82    71    73   ar
    83    75    73   ar
    84    75    76    1
    85    35    36    1
    86    36    38    1
    87    36    37    1
