@<TRIPOS>MOLECULE
tmp/3k8hA00.pdb
 95 89 0 0 0
SMALL
GASTEIGER

@<TRIPOS>ATOM
      1  N         21.7720    0.8100   24.1840 N.3    33  ILE33      -0.1231
      2  CA        21.4410    1.4690   25.4440 C.3    33  ILE33       0.1692
      3  C         22.3540    2.6630   25.6460 C.2    33  ILE33       0.2591
      4  O         21.8990    3.7560   25.9850 O.2    33  ILE33      -0.2718
      5  CB        21.5730    0.5120   26.6350 C.3    33  ILE33       0.0266
      6  CG1       20.4930   -0.5630   26.5740 C.3    33  ILE33       0.0019
      7  CG2       21.5440    1.2940   27.9830 C.3    33  ILE33       0.0020
      8  CD1       20.8110   -1.8130   27.4290 C.3    33  ILE33       0.0001
      9  N         23.6460    2.4520   25.4240 N.am   34  ILE34      -0.1980
     10  CA        24.6170    3.5400   25.5110 C.3    34  ILE34       0.1595
     11  C         24.2660    4.6770   24.5550 C.2    34  ILE34       0.2287
     12  O         24.2960    5.8380   24.9580 O.2    34  ILE34      -0.2864
     13  CB        26.0530    3.0370   25.3020 C.3    34  ILE34       0.0276
     14  CG1       26.5180    2.3130   26.5640 C.3    34  ILE34       0.0022
     15  CG2       27.0060    4.1880   24.9480 C.3    34  ILE34       0.0022
     16  CD1       27.7270    1.4560   26.3460 C.3    34  ILE34       0.0001
     17  N         21.6110    7.2970   25.4740 N.3    37  HIS37      -0.1226
     18  CA        22.0180    8.3540   26.4070 C.3    37  HIS37       0.1752
     19  C         23.2600    9.1430   25.9420 C.2    37  HIS37       0.2595
     20  O         23.1910   10.3510   25.7180 O.2    37  HIS37      -0.2718
     21  CB        22.2680    7.7900   27.8140 C.3    37  HIS37       0.0759
     22  CG        21.0830    7.1020   28.4240 C.ar   37  HIS37       0.0818
     23  ND1       21.1500    5.8250   28.9360 N.ar   37  HIS37      -0.2268
     24  CD2       19.8070    7.5150   28.6140 C.ar   37  HIS37       0.1154
     25  CE1       19.9720    5.4840   29.4260 C.ar   37  HIS37       0.1986
     26  NE2       19.1350    6.4880   29.2340 N.ar   37  HIS37      -0.2212
     27  N         24.3830    8.4480   25.7980 N.am   38  GLU38      -0.1979
     28  CA        25.6860    9.0750   25.6200 C.3    38  GLU38       0.1602
     29  C         26.2550    8.7540   24.2460 C.2    38  GLU38       0.2287
     30  O         26.1690    7.6200   23.7700 O.2    38  GLU38      -0.2864
     31  CB        26.6420    8.5910   26.7190 C.3    38  GLU38       0.0415
     32  CG        28.1080    9.0170   26.5570 C.3    38  GLU38       0.1163
     33  CD        28.5870   10.0230   27.6100 C.2    38  GLU38       0.3649
     34  OE1       27.8030   10.9120   28.0310 O.co2  38  GLU38      -0.2457
     35  OE2       29.7700    9.9200   28.0070 O.co2  38  GLU38      -0.2457
     36  N         33.1350    5.4000   26.4970 N.3    43  ILE43      -0.1245
     37  CA        32.3220    4.3840   27.1570 C.3    43  ILE43       0.1561
     38  C         32.1670    3.1270   26.2930 C.2    43  ILE43       0.2260
     39  O         32.3380    2.0080   26.7940 O.2    43  ILE43      -0.2867
     40  CB        30.9780    5.0030   27.6170 C.3    43  ILE43       0.0252
     41  CG1       31.2280    5.8310   28.8850 C.3    43  ILE43       0.0019
     42  CG2       29.9260    3.9430   27.8720 C.3    43  ILE43       0.0019
     43  CD1       30.1500    6.8280   29.2160 C.3    43  ILE43       0.0001
     44  N         22.3080    5.8120   37.2900 N.3    64  PHE64      -0.1241
     45  CA        22.8340    4.4760   37.1410 C.3    64  PHE64       0.1605
     46  C         24.2220    4.4370   37.7690 C.2    64  PHE64       0.2264
     47  O         25.0490    5.3290   37.5200 O.2    64  PHE64      -0.2867
     48  CB        22.9800    4.1150   35.6670 C.3    64  PHE64       0.0534
     49  CG        21.6860    3.7680   34.9790 C.ar   64  PHE64      -0.0203
     50  CD1       21.1910    2.4570   35.0080 C.ar   64  PHE64      -0.0042
     51  CD2       20.9780    4.7400   34.2730 C.ar   64  PHE64      -0.0042
     52  CE1       19.9910    2.1320   34.3630 C.ar   64  PHE64      -0.0003
     53  CE2       19.7800    4.4220   33.6200 C.ar   64  PHE64      -0.0003
     54  CZ        19.2930    3.1100   33.6650 C.ar   64  PHE64      -0.0000
     55  N         27.4300    1.6820   37.7600 N.3    66  LEU66      -0.1245
     56  CA        27.8020    0.5280   36.9750 C.3    66  LEU66       0.1561
     57  C         29.2080    0.1390   37.3490 C.2    66  LEU66       0.2260
     58  O         30.0880    0.9920   37.5040 O.2    66  LEU66      -0.2867
     59  CB        27.7110    0.8330   35.4610 C.3    66  LEU66       0.0270
     60  CG        26.3820    1.3710   34.8840 C.3    66  LEU66       0.0019
     61  CD1       26.6050    2.1680   33.5970 C.3    66  LEU66       0.0001
     62  CD2       25.3390    0.2770   34.6530 C.3    66  LEU66       0.0001
     63  N         28.2150   12.1380   33.2550 N.3   103  THR103     -0.1218
     64  CA        28.9290   10.8850   33.4690 C.3   103  THR103      0.1862
     65  C         30.2140   11.0660   34.2800 C.2   103  THR103      0.2287
     66  O         31.0080   11.9650   34.0250 O.2   103  THR103     -0.2866
     67  CB        29.2660   10.2180   32.1240 C.3   103  THR103      0.1770
     68  OG1       28.0780   10.1070   31.3350 O.3   103  THR103     -0.2211
     69  CG2       29.8720    8.8320   32.3230 C.3   103  THR103      0.0375
     70  N         31.3870    3.4540   36.7740 N.3   115  VAL115     -0.1245
     71  CA        30.7160    4.5280   36.0420 C.3   115  VAL115      0.1561
     72  C         29.4580    4.9690   36.7870 C.2   115  VAL115      0.2260
     73  O         28.6810    4.1450   37.2650 O.2   115  VAL115     -0.2867
     74  CB        30.3350    4.0960   34.6070 C.3   115  VAL115      0.0252
     75  CG1       29.4980    5.1660   33.9120 C.3   115  VAL115      0.0019
     76  CG2       31.5920    3.8070   33.7800 C.3   115  VAL115      0.0019
     77  N         26.2580    7.5950   36.1800 N.3   117  PHE117     -0.1241
     78  CA        25.5840    8.3620   35.1480 C.3   117  PHE117      0.1605
     79  C         24.2240    8.8380   35.6250 C.2   117  PHE117      0.2264
     80  O         23.4760    8.0560   36.2030 O.2   117  PHE117     -0.2867
     81  CB        25.3810    7.5020   33.8880 C.3   117  PHE117      0.0534
     82  CG        24.5760    8.1870   32.8170 C.ar  117  PHE117     -0.0203
     83  CD1       25.1560    9.1770   32.0210 C.ar  117  PHE117     -0.0042
     84  CD2       23.2390    7.8620   32.6110 C.ar  117  PHE117     -0.0042
     85  CE1       24.4240    9.8340   31.0200 C.ar  117  PHE117     -0.0003
     86  CE2       22.4910    8.5080   31.6100 C.ar  117  PHE117     -0.0003
     87  CZ        23.0950    9.5070   30.8100 C.ar  117  PHE117     -0.0000
     88  N         14.8810   -0.2900   28.8990 N.3   247  ILE247     -0.1245
     89  CA        15.9040   -0.1340   29.9370 C.3   247  ILE247      0.1561
     90  C         16.2970    1.3200   30.0830 C.2   247  ILE247      0.2260
     91  O         16.2860    1.8690   31.1880 O.2   247  ILE247     -0.2867
     92  CB        17.1680   -1.0100   29.6770 C.3   247  ILE247      0.0252
     93  CG1       16.8640   -2.4800   29.9710 C.3   247  ILE247      0.0019
     94  CG2       18.3250   -0.5810   30.5720 C.3   247  ILE247      0.0019
     95  CD1       17.8620   -3.4370   29.3690 C.3   247  ILE247      0.0001
@<TRIPOS>BOND
     1    30    29    2
     2     1     2    1
     3    29    28    1
     4    11    12    2
     5    11    10    1
     6    15    13    1
     7    13    10    1
     8    13    14    1
     9     9    10    1
    10     9     3   am
    11     2     3    1
    12     2     5    1
    13    17    18    1
    14    28    27    1
    15    28    31    1
    16     3     4    2
    17    20    19    2
    18    27    19   am
    19    19    18    1
    20    38    39    2
    21    38    37    1
    22    16    14    1
    23    18    21    1
    24    36    37    1
    25    32    31    1
    26    32    33    1
    27     6     5    1
    28     6     8    1
    29     5     7    1
    30    37    40    1
    31    33    35   ar
    32    33    34   ar
    33    40    42    1
    34    40    41    1
    35    21    22    1
    36    22    24   ar
    37    22    23   ar
    38    24    26   ar
    39    41    43    1
    40    88    89    1
    41    23    25   ar
    42    26    25   ar
    43    95    93    1
    44    92    89    1
    45    92    93    1
    46    92    94    1
    47    89    90    1
    48    90    91    2
    49    87    85   ar
    50    87    86   ar
    51    85    83   ar
    52    68    67    1
    53    86    84   ar
    54    83    82   ar
    55    67    69    1
    56    67    64    1
    57    84    82   ar
    58    82    81    1
    59    63    64    1
    60    64    65    1
    61    61    60    1
    62    53    54   ar
    63    53    51   ar
    64    54    52   ar
    65    76    74    1
    66    81    78    1
    67    75    74    1
    68    66    65    2
    69    51    49   ar
    70    52    50   ar
    71    74    71    1
    72    62    60    1
    73    60    59    1
    74    49    50   ar
    75    49    48    1
    76    78    79    1
    77    78    77    1
    78    59    56    1
    79    79    80    2
    80    48    45    1
    81    71    70    1
    82    71    72    1
    83    72    73    2
    84    56    57    1
    85    56    55    1
    86    45    44    1
    87    45    46    1
    88    57    58    2
    89    47    46    2
