@<TRIPOS>MOLECULE
tmp/3k8hA01.pdb
 89 81 0 0 0
SMALL
GASTEIGER

@<TRIPOS>ATOM
      1  N         23.8500   -3.5820   24.4220 N.3    30  ILE30      -0.1245
      2  CA        24.6240   -2.6480   25.2210 C.3    30  ILE30       0.1561
      3  C         24.8670   -1.3520   24.4440 C.2    30  ILE30       0.2260
      4  O         24.5850   -0.2680   24.9530 O.2    30  ILE30      -0.2867
      5  CB        25.9270   -3.3040   25.7310 C.3    30  ILE30       0.0252
      6  CG1       25.5730   -4.4060   26.7350 C.3    30  ILE30       0.0019
      7  CG2       26.8600   -2.2560   26.3620 C.3    30  ILE30       0.0019
      8  CD1       26.7360   -5.2970   27.1480 C.3    30  ILE30       0.0001
      9  N         23.6460    2.4520   25.4240 N.3    34  ILE34      -0.1245
     10  CA        24.6170    3.5400   25.5110 C.3    34  ILE34       0.1561
     11  C         24.2660    4.6770   24.5550 C.2    34  ILE34       0.2260
     12  O         24.2960    5.8380   24.9580 O.2    34  ILE34      -0.2867
     13  CB        26.0530    3.0370   25.3020 C.3    34  ILE34       0.0252
     14  CG1       26.5180    2.3130   26.5640 C.3    34  ILE34       0.0019
     15  CG2       27.0060    4.1880   24.9480 C.3    34  ILE34       0.0019
     16  CD1       27.7270    1.4560   26.3460 C.3    34  ILE34       0.0001
     17  N         33.1350    5.4000   26.4970 N.3    43  ILE43      -0.1245
     18  CA        32.3220    4.3840   27.1570 C.3    43  ILE43       0.1561
     19  C         32.1670    3.1270   26.2930 C.2    43  ILE43       0.2260
     20  O         32.3380    2.0080   26.7940 O.2    43  ILE43      -0.2867
     21  CB        30.9780    5.0030   27.6170 C.3    43  ILE43       0.0252
     22  CG1       31.2280    5.8310   28.8850 C.3    43  ILE43       0.0019
     23  CG2       29.9260    3.9430   27.8720 C.3    43  ILE43       0.0019
     24  CD1       30.1500    6.8280   29.2160 C.3    43  ILE43       0.0001
     25  N         35.4030    1.4130   26.5540 N.3    46  ILE46      -0.1231
     26  CA        35.4590    0.6910   27.8120 C.3    46  ILE46       0.1692
     27  C         34.7090   -0.6350   27.6550 C.2    46  ILE46       0.2591
     28  O         35.2250   -1.6870   28.0360 O.2    46  ILE46      -0.2718
     29  CB        34.8890    1.5310   29.0040 C.3    46  ILE46       0.0266
     30  CG1       35.7720    2.7520   29.2840 C.3    46  ILE46       0.0019
     31  CG2       34.7720    0.6790   30.2670 C.3    46  ILE46       0.0020
     32  CD1       35.2000    3.7340   30.3070 C.3    46  ILE46       0.0001
     33  N         33.5160   -0.5820   27.0610 N.am   47  VAL47      -0.1980
     34  CA        32.6800   -1.7730   26.9070 C.3    47  VAL47       0.1595
     35  C         33.3920   -2.8710   26.1340 C.2    47  VAL47       0.2287
     36  O         33.3020   -4.0410   26.5030 O.2    47  VAL47      -0.2864
     37  CB        31.3140   -1.4650   26.2460 C.3    47  VAL47       0.0276
     38  CG1       30.4860   -2.7340   26.0910 C.3    47  VAL47       0.0022
     39  CG2       30.5470   -0.4790   27.0680 C.3    47  VAL47       0.0022
     40  N         35.5040   -5.0560   28.2890 N.3    50  THR50      -0.1218
     41  CA        34.8110   -5.5010   29.4860 C.3    50  THR50       0.1862
     42  C         34.2170   -6.8900   29.2670 C.2    50  THR50       0.2287
     43  O         33.7150   -7.1840   28.1760 O.2    50  THR50      -0.2866
     44  CB        33.7310   -4.4760   29.8760 C.3    50  THR50       0.1770
     45  OG1       34.3080   -3.1590   29.8440 O.3    50  THR50      -0.2211
     46  CG2       33.1910   -4.7490   31.2710 C.3    50  THR50       0.0375
     47  N         29.1580   -6.5350   33.1400 N.3    53  VAL53      -0.1245
     48  CA        28.6780   -5.2690   33.6500 C.3    53  VAL53       0.1561
     49  C         27.6240   -5.5400   34.7110 C.2    53  VAL53       0.2260
     50  O         26.6850   -6.3070   34.4710 O.2    53  VAL53      -0.2867
     51  CB        28.0780   -4.4020   32.5160 C.3    53  VAL53       0.0252
     52  CG1       27.3420   -3.2140   33.0700 C.3    53  VAL53       0.0019
     53  CG2       29.1940   -3.9350   31.5570 C.3    53  VAL53       0.0019
     54  N         27.4300    1.6820   37.7600 N.3    66  LEU66      -0.1231
     55  CA        27.8020    0.5280   36.9750 C.3    66  LEU66       0.1693
     56  C         29.2080    0.1390   37.3490 C.2    66  LEU66       0.2592
     57  O         30.0880    0.9920   37.5040 O.2    66  LEU66      -0.2718
     58  CB        27.7110    0.8330   35.4610 C.3    66  LEU66       0.0284
     59  CG        26.3820    1.3710   34.8840 C.3    66  LEU66       0.0019
     60  CD1       26.6050    2.1680   33.5970 C.3    66  LEU66       0.0001
     61  CD2       25.3390    0.2770   34.6530 C.3    66  LEU66       0.0001
     62  N         29.4020   -1.1590   37.5130 N.am   67  PHE67      -0.1962
     63  CA        30.7000   -1.7080   37.7570 C.3    67  PHE67       0.1771
     64  C         31.0710   -2.6800   36.6370 C.2    67  PHE67       0.2620
     65  O         30.3550   -3.6430   36.3890 O.2    67  PHE67      -0.2715
     66  CB        30.6930   -2.4210   39.1040 C.3    67  PHE67       0.0574
     67  CG        32.0230   -2.9930   39.4990 C.ar   67  PHE67      -0.0200
     68  CD1       32.7960   -2.3660   40.4590 C.ar   67  PHE67      -0.0042
     69  CD2       32.5000   -4.1700   38.9150 C.ar   67  PHE67      -0.0042
     70  CE1       34.0380   -2.9020   40.8410 C.ar   67  PHE67      -0.0003
     71  CE2       33.7400   -4.7210   39.2970 C.ar   67  PHE67      -0.0003
     72  CZ        34.4940   -4.0860   40.2550 C.ar   67  PHE67      -0.0000
     73  N         32.1980   -2.4370   35.9740 N.am   68  GLY68      -0.1954
     74  CA        32.6730   -3.3530   34.9380 C.3    68  GLY68       0.1869
     75  C         33.9420   -4.0970   35.3230 C.2    68  GLY68       0.2309
     76  O         34.8710   -3.5170   35.8770 O.2    68  GLY68      -0.2863
     77  N         36.3650   -1.1940   36.3880 N.3   113  SER113     -0.1217
     78  CA        35.9250    0.1430   36.0080 C.3   113  SER113      0.1889
     79  C         34.6130    0.5100   36.7360 C.2   113  SER113      0.2288
     80  O         33.7700   -0.3460   36.9450 O.2   113  SER113     -0.2866
     81  CB        35.7320    0.2300   34.4960 C.3   113  SER113      0.2089
     82  OG        34.6770   -0.6300   34.0670 O.3   113  SER113     -0.2183
     83  N         31.3870    3.4540   36.7740 N.3   115  VAL115     -0.1245
     84  CA        30.7160    4.5280   36.0420 C.3   115  VAL115      0.1561
     85  C         29.4580    4.9690   36.7870 C.2   115  VAL115      0.2260
     86  O         28.6810    4.1450   37.2650 O.2   115  VAL115     -0.2867
     87  CB        30.3350    4.0960   34.6070 C.3   115  VAL115      0.0252
     88  CG1       29.4980    5.1660   33.9120 C.3   115  VAL115      0.0019
     89  CG2       31.5920    3.8070   33.7800 C.3   115  VAL115      0.0019
@<TRIPOS>BOND
     1     1     2    1
     2     3     4    2
     3     3     2    1
     4    11    12    2
     5    11    10    1
     6    15    13    1
     7     2     5    1
     8    13    10    1
     9    13    14    1
    10     9    10    1
    11     5     7    1
    12     5     6    1
    13    38    37    1
    14    35    36    2
    15    35    34    1
    16    37    34    1
    17    37    39    1
    18    19    20    2
    19    19    18    1
    20    16    14    1
    21    17    18    1
    22    25    26    1
    23     6     8    1
    24    34    33    1
    25    33    27   am
    26    18    21    1
    27    21    23    1
    28    21    22    1
    29    27    26    1
    30    27    28    2
    31    26    29    1
    32    43    42    2
    33    40    41    1
    34    22    24    1
    35    29    30    1
    36    29    31    1
    37    42    41    1
    38    30    32    1
    39    41    44    1
    40    45    44    1
    41    44    46    1
    42    53    51    1
    43    51    52    1
    44    51    48    1
    45    47    48    1
    46    60    59    1
    47    48    49    1
    48    89    87    1
    49    88    87    1
    50    82    81    1
    51    50    49    2
    52    81    78    1
    53    87    84    1
    54    61    59    1
    55    59    58    1
    56    74    75    1
    57    74    73    1
    58    75    76    2
    59    58    55    1
    60    73    64   am
    61    78    77    1
    62    78    79    1
    63    84    83    1
    64    84    85    1
    65    65    64    2
    66    64    63    1
    67    79    80    2
    68    85    86    2
    69    55    56    1
    70    55    54    1
    71    56    57    2
    72    56    62   am
    73    62    63    1
    74    63    66    1
    75    69    71   ar
    76    69    67   ar
    77    66    67    1
    78    71    72   ar
    79    67    68   ar
    80    72    70   ar
    81    68    70   ar
