@<TRIPOS>MOLECULE
tmp/3k8oB00.pdb
 145 137 0 0 0
SMALL
GASTEIGER

@<TRIPOS>ATOM
      1  N        -21.9290    1.6630  -34.8770 N.3    32  SER32      -0.1217
      2  CA       -22.9940    1.2530  -35.7640 C.3    32  SER32       0.1889
      3  C        -22.9810    2.0310  -37.0550 C.2    32  SER32       0.2288
      4  O        -23.1500    3.2660  -37.0520 O.2    32  SER32      -0.2866
      5  CB       -24.3500    1.4140  -35.0900 C.3    32  SER32       0.2089
      6  OG       -24.3810    0.7890  -33.8300 O.3    32  SER32      -0.2183
      7  N        -25.2140   -7.3410  -33.6980 N.3    60  VAL60      -0.1245
      8  CA       -26.1140   -6.2670  -34.1140 C.3    60  VAL60       0.1561
      9  C        -25.8240   -5.8000  -35.5620 C.2    60  VAL60       0.2260
     10  O        -24.6670   -5.8310  -36.0060 O.2    60  VAL60      -0.2867
     11  CB       -26.2250   -5.1070  -33.0360 C.3    60  VAL60       0.0252
     12  CG1      -25.6150   -5.5440  -31.6980 C.3    60  VAL60       0.0019
     13  CG2      -25.6160   -3.7960  -33.5120 C.3    60  VAL60       0.0019
     14  N        -21.5570   -5.0960  -27.3410 N.3    85  HIS85      -0.1241
     15  CA       -22.3170   -4.2420  -26.4320 C.3    85  HIS85       0.1621
     16  C        -22.7970   -5.1410  -25.2950 C.2    85  HIS85       0.2264
     17  O        -22.9420   -6.3720  -25.4710 O.2    85  HIS85      -0.2867
     18  CB       -23.5030   -3.5850  -27.1280 C.3    85  HIS85       0.0745
     19  CG       -23.1710   -2.8370  -28.3890 C.ar   85  HIS85       0.0817
     20  ND1      -22.9880   -3.4630  -29.6090 N.ar   85  HIS85      -0.2268
     21  CD2      -23.0800   -1.4980  -28.6330 C.ar   85  HIS85       0.1154
     22  CE1      -22.7490   -2.5510  -30.5370 C.ar   85  HIS85       0.1986
     23  NE2      -22.8240   -1.3470  -29.9770 N.ar   85  HIS85      -0.2212
     24  N        -25.7000   -5.0730  -23.9410 N.3    87  TYR87      -0.1241
     25  CA       -27.0880   -5.4960  -24.0770 C.3    87  TYR87       0.1605
     26  C        -27.2300   -6.8420  -24.7910 C.2    87  TYR87       0.2264
     27  O        -28.2610   -7.4860  -24.6830 O.2    87  TYR87      -0.2867
     28  CB       -27.9410   -4.4140  -24.7340 C.3    87  TYR87       0.0534
     29  CG       -27.4730   -4.0270  -26.1160 C.ar   87  TYR87      -0.0201
     30  CD1      -26.9380   -2.7570  -26.3670 C.ar   87  TYR87      -0.0009
     31  CD2      -27.5780   -4.9260  -27.1790 C.ar   87  TYR87      -0.0009
     32  CE1      -26.5020   -2.4070  -27.6420 C.ar   87  TYR87       0.0417
     33  CE2      -27.1500   -4.6010  -28.4430 C.ar   87  TYR87       0.0417
     34  CZ       -26.6020   -3.3400  -28.6770 C.ar   87  TYR87       0.1957
     35  OH       -26.1860   -3.0290  -29.9570 O.3    87  TYR87      -0.2866
     36  N        -22.1850    5.7740  -32.9860 N.3   115  ALA115     -0.1231
     37  CA       -23.3740    6.5080  -33.3650 C.3   115  ALA115      0.1694
     38  C        -24.0240    6.8920  -32.0460 C.2   115  ALA115      0.2592
     39  O        -24.0310    6.0630  -31.1030 O.2   115  ALA115     -0.2718
     40  CB       -24.2950    5.6100  -34.1640 C.3   115  ALA115      0.0304
     41  N        -24.5420    8.1280  -31.9550 N.am  116  ALA116     -0.1966
     42  CA       -25.2710    8.5340  -30.7530 C.3   116  ALA116      0.1728
     43  C        -26.4970    9.4070  -30.9980 C.2   116  ALA116      0.2616
     44  O        -26.5270   10.2320  -31.9180 O.2   116  ALA116     -0.2715
     45  CB       -24.3290    9.1900  -29.7410 C.3   116  ALA116      0.0334
     46  N        -27.5130    9.2480  -30.1600 N.am  117  GLY117     -0.1955
     47  CA       -28.6650   10.1370  -30.2420 C.3   117  GLY117      0.1869
     48  C        -28.3340   11.4440  -29.5550 C.2   117  GLY117      0.2309
     49  O        -27.9010   11.4400  -28.4130 O.2   117  GLY117     -0.2863
     50  N        -31.3500   -2.5390  -24.2780 N.3   197  PRO197     -0.2116
     51  CA       -31.3960   -2.2750  -25.7320 C.3   197  PRO197      0.1372
     52  C        -32.5070   -1.3630  -26.2260 C.2   197  PRO197      0.2244
     53  O        -32.4650   -0.9250  -27.3630 O.2   197  PRO197     -0.2868
     54  CB       -31.6320   -3.6840  -26.3310 C.3   197  PRO197      0.0268
     55  CG       -32.3280   -4.4230  -25.2810 C.3   197  PRO197      0.0207
     56  CD       -31.7080   -3.9480  -23.9880 C.3   197  PRO197      0.0892
     57  N        -34.7930    2.0490  -26.6210 N.3   199  PHE199     -0.1227
     58  CA       -34.4020    3.4630  -26.6370 C.3   199  PHE199      0.1736
     59  C        -35.0470    4.1610  -25.4570 C.2   199  PHE199      0.2595
     60  O        -35.9540    3.6140  -24.8010 O.2   199  PHE199     -0.2718
     61  CB       -34.8230    4.1480  -27.9450 C.3   199  PHE199      0.0547
     62  CG       -34.0730    3.6800  -29.1770 C.ar  199  PHE199     -0.0202
     63  CD1      -32.8410    4.1930  -29.4970 C.ar  199  PHE199     -0.0042
     64  CD2      -34.6250    2.7160  -30.0220 C.ar  199  PHE199     -0.0042
     65  CE1      -32.1820    3.7720  -30.6580 C.ar  199  PHE199     -0.0003
     66  CE2      -33.9740    2.2850  -31.1530 C.ar  199  PHE199     -0.0003
     67  CZ       -32.7590    2.8100  -31.4770 C.ar  199  PHE199     -0.0000
     68  N        -34.5960    5.3860  -25.2080 N.am  200  GLU200     -0.1979
     69  CA       -35.0410    6.1820  -24.0520 C.3   200  GLU200      0.1602
     70  C        -36.4230    6.7690  -24.2170 C.2   200  GLU200      0.2287
     71  O        -36.8090    7.1220  -25.3230 O.2   200  GLU200     -0.2864
     72  CB       -34.0500    7.3060  -23.7750 C.3   200  GLU200      0.0415
     73  CG       -32.6570    6.8390  -23.4380 C.3   200  GLU200      0.1163
     74  CD       -31.9630    6.1780  -24.6230 C.2   200  GLU200      0.3649
     75  OE1      -31.3360    5.1050  -24.4130 O.co2 200  GLU200     -0.2457
     76  OE2      -32.0590    6.7080  -25.7610 O.co2 200  GLU200     -0.2457
     77  N        -26.3130   10.3860  -26.3140 N.3   216  VAL216     -0.1231
     78  CA       -26.5730    9.1330  -25.6550 C.3   216  VAL216      0.1692
     79  C        -26.3010    7.9840  -26.5940 C.2   216  VAL216      0.2593
     80  O        -26.7220    7.9900  -27.7620 O.2   216  VAL216     -0.2718
     81  CB       -27.9910    9.0390  -25.0680 C.3   216  VAL216      0.0266
     82  CG1      -29.0540    9.0750  -26.1650 C.3   216  VAL216      0.0020
     83  CG2      -28.0990    7.7680  -24.1620 C.3   216  VAL216      0.0020
     84  N        -25.5470    7.0370  -26.0730 N.am  217  GLY217     -0.1942
     85  CA       -25.4160    5.7300  -26.6840 C.3   217  GLY217      0.2014
     86  C        -25.3790    4.6680  -25.6110 C.2   217  GLY217      0.2639
     87  O        -25.5180    4.9640  -24.4100 O.2   217  GLY217     -0.2714
     88  N        -25.1740    3.4290  -26.0630 N.am  218  MET218     -0.1963
     89  CA       -25.1640    2.2480  -25.2330 C.3   218  MET218      0.1736
     90  C        -23.8270    1.4920  -25.3420 C.2   218  MET218      0.2617
     91  O        -23.7800    0.2510  -25.2010 O.2   218  MET218     -0.2715
     92  CB       -26.2600    1.3130  -25.7120 C.3   218  MET218      0.0427
     93  CG       -27.5870    1.9810  -26.0080 C.3   218  MET218      0.0599
     94  SD       -28.6610    0.6930  -26.6830 S.3   218  MET218     -0.1393
     95  CE       -30.1740    1.5510  -27.1320 C.3   218  MET218      0.0692
     96  N        -22.7380    2.2210  -25.5810 N.am  219  SER219     -0.1950
     97  CA       -21.4380    1.5740  -25.7150 C.3   219  SER219      0.1924
     98  C        -20.2850    2.4690  -25.2960 C.2   219  SER219      0.2314
     99  O        -20.4830    3.4810  -24.6030 O.2   219  SER219     -0.2863
    100  CB       -21.2410    1.1720  -27.1700 C.3   219  SER219      0.2116
    101  OG       -21.1070    2.3130  -27.9960 O.3   219  SER219     -0.2180
    102  N        -26.6920   10.7680  -35.0540 N.3   241  THR241     -0.1203
    103  CA       -27.4500   10.0900  -36.0940 C.3   241  THR241      0.1994
    104  C        -28.9400   10.3410  -35.9720 C.2   241  THR241      0.2617
    105  O        -29.6970   10.0380  -36.8940 O.2   241  THR241     -0.2717
    106  CB       -27.2460    8.5250  -36.0310 C.3   241  THR241      0.1784
    107  OG1      -27.6950    8.0440  -34.7680 O.3   241  THR241     -0.2211
    108  CG2      -25.8020    8.1490  -36.1740 C.3   241  THR241      0.0376
    109  N        -29.3740   10.8520  -34.8280 N.am  242  ASN242     -0.1974
    110  CA       -30.7920   11.1590  -34.6160 C.3   242  ASN242      0.1688
    111  C        -30.9260   12.0970  -33.4550 C.2   242  ASN242      0.2292
    112  O        -30.1500   12.0040  -32.5140 O.2   242  ASN242     -0.2864
    113  CB       -31.6100    9.8990  -34.3190 C.3   242  ASN242      0.1181
    114  CG       -30.9940    9.0610  -33.2280 C.2   242  ASN242      0.2629
    115  OD1      -29.8670    8.6050  -33.3600 O.2   242  ASN242     -0.2716
    116  ND2      -31.7100    8.8870  -32.1250 N.am  242  ASN242     -0.0877
    117  N        -32.8440   12.7850  -30.2260 N.3   244  VAL244     -0.1245
    118  CA       -33.6590   11.9990  -29.3030 C.3   244  VAL244      0.1561
    119  C        -35.0140   12.6630  -29.0540 C.2   244  VAL244      0.2260
    120  O        -35.1080   13.9100  -28.9790 O.2   244  VAL244     -0.2867
    121  CB       -32.9160   11.6920  -27.9700 C.3   244  VAL244      0.0252
    122  CG1      -31.5560   11.0450  -28.2500 C.3   244  VAL244      0.0019
    123  CG2      -32.7550   12.9460  -27.1400 C.3   244  VAL244      0.0019
    124  N        -37.1360    7.0900  -32.1480 N.3   254  ALA254     -0.1245
    125  CA       -35.8100    6.5440  -32.4150 C.3   254  ALA254      0.1562
    126  C        -35.9240    5.1440  -33.0240 C.2   254  ALA254      0.2260
    127  O        -36.7950    4.3540  -32.6450 O.2   254  ALA254     -0.2867
    128  CB       -34.9800    6.5090  -31.1390 C.3   254  ALA254      0.0290
    129  N        -33.3110    1.9930  -35.2250 N.3   256  HIS256     -0.1241
    130  CA       -31.9530    1.6250  -35.5580 C.3   256  HIS256      0.1621
    131  C        -31.6580    1.7670  -37.0530 C.2   256  HIS256      0.2264
    132  O        -30.5190    2.0100  -37.4420 O.2   256  HIS256     -0.2867
    133  CB       -31.6620    0.2030  -35.0700 C.3   256  HIS256      0.0745
    134  CG       -30.2250   -0.1730  -35.1780 C.ar  256  HIS256      0.0817
    135  ND1      -29.2440    0.4560  -34.4480 N.ar  256  HIS256     -0.2268
    136  CD2      -29.5960   -1.0660  -35.9710 C.ar  256  HIS256      0.1154
    137  CE1      -28.0700   -0.0530  -34.7690 C.ar  256  HIS256      0.1986
    138  NE2      -28.2580   -0.9820  -35.6890 N.ar  256  HIS256     -0.2212
    139  N        -30.5390    5.1680  -37.6410 N.3   259  VAL259     -0.1245
    140  CA       -29.1760    5.2700  -37.1160 C.3   259  VAL259      0.1561
    141  C        -28.1680    4.7520  -38.1540 C.2   259  VAL259      0.2260
    142  O        -27.1560    5.3960  -38.4090 O.2   259  VAL259     -0.2867
    143  CB       -29.0090    4.5370  -35.7630 C.3   259  VAL259      0.0252
    144  CG1      -27.5460    4.4770  -35.3520 C.3   259  VAL259      0.0019
    145  CG2      -29.8460    5.1800  -34.6710 C.3   259  VAL259      0.0019
@<TRIPOS>BOND
     1   142   141    2
     2   141   140    1
     3   139   140    1
     4   132   131    2
     5   140   143    1
     6     3     4    2
     7     3     2    1
     8   131   130    1
     9   105   104    2
    10   108   106    1
    11   103   106    1
    12   103   104    1
    13   103   102    1
    14   106   107    1
    15    10     9    2
    16   104   109   am
    17   136   138   ar
    18   136   134   ar
    19     2     5    1
    20     2     1    1
    21   143   144    1
    22   143   145    1
    23   138   137   ar
    24     9     8    1
    25   130   129    1
    26   130   133    1
    27   134   133    1
    28   134   135   ar
    29     5     6    1
    30   109   110    1
    31   137   135   ar
    32   110   113    1
    33   110   111    1
    34   113   114    1
    35    40    37    1
    36     8     7    1
    37     8    11    1
    38    13    11    1
    39   111   112    2
    40    37    36    1
    41    37    38    1
    42   115   114    2
    43   114   116   am
    44    11    12    1
    45   126   127    2
    46   126   125    1
    47   125   124    1
    48   125   128    1
    49    38    41   am
    50    38    39    2
    51    41    42    1
    52    44    43    2
    53    67    66   ar
    54    67    65   ar
    55    66    64   ar
    56    43    42    1
    57    43    46   am
    58    42    45    1
    59    65    63   ar
    60    22    23   ar
    61    22    20   ar
    62    47    46    1
    63    47    48    1
    64   117   118    1
    65    64    62   ar
    66    23    21   ar
    67    35    34    1
    68    20    19   ar
    69    48    49    2
    70    63    62   ar
    71   118   119    1
    72   118   121    1
    73    62    61    1
    74   119   120    2
    75    34    33   ar
    76    34    32   ar
    77    21    19   ar
    78    33    31   ar
    79    19    18    1
    80   122   121    1
    81   101   100    1
    82   121   123    1
    83    61    58    1
    84    80    79    2
    85    32    30   ar
    86    53    52    2
    87    14    15    1
    88    31    29   ar
    89   100    97    1
    90    95    94    1
    91    18    15    1
    92    85    84    1
    93    85    86    1
    94    94    93    1
    95    58    57    1
    96    58    59    1
    97    79    84   am
    98    79    78    1
    99    15    16    1
   100    30    29   ar
   101    54    51    1
   102    54    55    1
   103    77    78    1
   104    52    51    1
   105    82    81    1
   106    29    28    1
   107    88    86   am
   108    88    89    1
   109    93    92    1
   110    76    74   ar
   111    51    50    1
   112    97    96    1
   113    97    98    1
   114    92    89    1
   115    78    81    1
   116    86    87    2
   117    96    90   am
   118    17    16    2
   119    59    68   am
   120    59    60    2
   121    90    89    1
   122    90    91    2
   123    71    70    2
   124    98    99    2
   125    55    56    1
   126    68    69    1
   127    81    83    1
   128    26    27    2
   129    26    25    1
   130    28    25    1
   131    74    75   ar
   132    74    73    1
   133    50    56    1
   134    70    69    1
   135    25    24    1
   136    69    72    1
   137    72    73    1
