@<TRIPOS>MOLECULE
tmp/3k8qA00.pdb
 132 125 0 0 0
SMALL
GASTEIGER

@<TRIPOS>ATOM
      1  N         14.3170   19.5660   62.6970 N.3    33  SER33      -0.1217
      2  CA        15.7630   19.4130   62.9540 C.3    33  SER33       0.1889
      3  C         16.6360   20.3110   62.0150 C.2    33  SER33       0.2288
      4  O         17.5580   21.0210   62.5110 O.2    33  SER33      -0.2866
      5  CB        16.1850   17.9360   62.8940 C.3    33  SER33       0.2089
      6  OG        15.8710   17.3650   61.6270 O.3    33  SER33      -0.2183
      7  N          9.0620   13.0520   68.7050 N.3    86  HIS86      -0.1241
      8  CA         8.7020   12.0150   67.7410 C.3    86  HIS86       0.1621
      9  C          8.2150   10.7420   68.4350 C.2    86  HIS86       0.2264
     10  O          8.6490   10.4290   69.5550 O.2    86  HIS86      -0.2867
     11  CB         9.8910   11.6450   66.8510 C.3    86  HIS86       0.0745
     12  CG        10.6450   12.8210   66.3120 C.ar   86  HIS86       0.0817
     13  ND1       11.6250   13.4640   67.0350 N.ar   86  HIS86      -0.2268
     14  CD2       10.5700   13.4630   65.1200 C.ar   86  HIS86       0.1154
     15  CE1       12.1160   14.4570   66.3190 C.ar   86  HIS86       0.1986
     16  NE2       11.5030   14.4680   65.1510 N.ar   86  HIS86      -0.2212
     17  N          8.9480    7.7710   67.5410 N.3    88  TYR88      -0.1241
     18  CA        10.0400    6.8040   67.6460 C.3    88  TYR88       0.1605
     19  C         10.8790    7.0050   68.9280 C.2    88  TYR88       0.2264
     20  O         11.6570    6.1210   69.2710 O.2    88  TYR88      -0.2867
     21  CB        10.9480    6.8090   66.4010 C.3    88  TYR88       0.0534
     22  CG        11.7080    8.0950   66.2120 C.ar   88  TYR88      -0.0201
     23  CD1       12.6830    8.5010   67.1420 C.ar   88  TYR88      -0.0009
     24  CD2       11.4490    8.9390   65.1170 C.ar   88  TYR88      -0.0009
     25  CE1       13.3800    9.7100   66.9880 C.ar   88  TYR88       0.0417
     26  CE2       12.1340   10.1460   64.9470 C.ar   88  TYR88       0.0417
     27  CZ        13.1020   10.5310   65.8790 C.ar   88  TYR88       0.1957
     28  OH        13.7940   11.7180   65.7290 O.3    88  TYR88      -0.2866
     29  N         12.8460   17.8530   58.0210 N.3   116  ALA116     -0.1231
     30  CA        13.7190   17.2720   56.9990 C.3   116  ALA116      0.1694
     31  C         13.0560   15.9880   56.4700 C.2   116  ALA116      0.2592
     32  O         12.3160   15.3470   57.1960 O.2   116  ALA116     -0.2718
     33  CB        15.0570   16.9210   57.6190 C.3   116  ALA116      0.0304
     34  N         13.2930   15.6200   55.2190 N.am  117  ALA117     -0.1966
     35  CA        12.7150   14.4050   54.6920 C.3   117  ALA117      0.1728
     36  C         13.5590   13.8520   53.5780 C.2   117  ALA117      0.2616
     37  O         14.3530   14.5660   52.9640 O.2   117  ALA117     -0.2715
     38  CB        11.3200   14.6330   54.2380 C.3   117  ALA117      0.0334
     39  N         13.3850   12.5700   53.3290 N.am  118  GLY118     -0.1955
     40  CA        14.0840   11.8990   52.2650 C.3   118  GLY118      0.1869
     41  C         13.2390   11.9760   51.0230 C.2   118  GLY118      0.2309
     42  O         11.9980   11.9060   51.0990 O.2   118  GLY118     -0.2863
     43  N         12.3890    4.2840   64.1400 N.3   198  PRO198     -0.2116
     44  CA        13.4380    5.2300   63.7710 C.3   198  PRO198      0.1372
     45  C         14.4850    4.7230   62.7650 C.2   198  PRO198      0.2244
     46  O         15.3830    5.4900   62.3920 O.2   198  PRO198     -0.2868
     47  CB        14.1330    5.5010   65.0980 C.3   198  PRO198      0.0268
     48  CG        13.9980    4.1610   65.8540 C.3   198  PRO198      0.0207
     49  CD        12.7300    3.5240   65.3560 C.3   198  PRO198      0.0892
     50  N         15.8720    3.4240   59.0400 N.3   200  PHE200     -0.1227
     51  CA        15.5780    3.9580   57.7080 C.3   200  PHE200      0.1736
     52  C         14.9860    2.8810   56.8110 C.2   200  PHE200      0.2595
     53  O         15.1280    1.6710   57.0470 O.2   200  PHE200     -0.2718
     54  CB        16.8140    4.5760   57.0450 C.3   200  PHE200      0.0547
     55  CG        17.2250    5.9460   57.5890 C.ar  200  PHE200     -0.0202
     56  CD1       16.3900    7.0510   57.4680 C.ar  200  PHE200     -0.0042
     57  CD2       18.5150    6.1320   58.1400 C.ar  200  PHE200     -0.0042
     58  CE1       16.7850    8.3290   57.9150 C.ar  200  PHE200     -0.0003
     59  CE2       18.9410    7.4020   58.6040 C.ar  200  PHE200     -0.0003
     60  CZ        18.0450    8.5150   58.4870 C.ar  200  PHE200     -0.0000
     61  N         14.3160    3.3310   55.7770 N.am  201  GLU201     -0.1979
     62  CA        13.5620    2.4590   54.9030 C.3   201  GLU201      0.1602
     63  C         14.4890    1.5710   54.1000 C.2   201  GLU201      0.2287
     64  O         15.6410    1.9310   53.8330 O.2   201  GLU201     -0.2864
     65  CB        12.7450    3.3010   53.9130 C.3   201  GLU201      0.0415
     66  CG        11.7340    4.2400   54.5240 C.3   201  GLU201      0.1163
     67  CD        12.3530    5.3870   55.3270 C.2   201  GLU201      0.3649
     68  OE1       13.3040    6.0600   54.8470 O.co2 201  GLU201     -0.2457
     69  OE2       11.8620    5.6190   56.4620 O.co2 201  GLU201     -0.2457
     70  N          9.3880   11.3960   52.5710 N.3   217  VAL217     -0.1231
     71  CA         9.1460   10.5760   53.7550 C.3   217  VAL217      0.1692
     72  C          9.8720   11.1150   54.9930 C.2   217  VAL217      0.2593
     73  O         11.0620   11.3680   54.9460 O.2   217  VAL217     -0.2718
     74  CB         9.5580    9.1270   53.4900 C.3   217  VAL217      0.0266
     75  CG1       10.9960    9.0660   53.0370 C.3   217  VAL217      0.0020
     76  CG2        9.3350    8.2720   54.7460 C.3   217  VAL217      0.0020
     77  N          9.1410   11.3310   56.0840 N.am  218  GLY218     -0.1942
     78  CA         9.7620   11.6210   57.3780 C.3   218  GLY218      0.2014
     79  C          9.0360   10.9040   58.5030 C.2   218  GLY218      0.2638
     80  O          8.1830   10.0330   58.2400 O.2   218  GLY218     -0.2714
     81  N          9.3360   11.2990   59.7470 N.am  219  MET219     -0.1976
     82  CA         8.8500   10.6080   60.9280 C.3   219  MET219      0.1605
     83  C          8.1630   11.5390   61.9010 C.2   219  MET219      0.2287
     84  O          8.0420   11.2280   63.1010 O.2   219  MET219     -0.2864
     85  CB         9.9870    9.8520   61.6070 C.3   219  MET219      0.0413
     86  CG        10.7790    8.9500   60.6120 C.3   219  MET219      0.0598
     87  SD        12.2140    8.1380   61.3410 S.3   219  MET219     -0.1393
     88  CE        12.9270    7.1980   59.9610 C.3   219  MET219      0.0692
     89  N         16.8180   16.2650   52.4330 N.3   242  THR242     -0.1203
     90  CA        18.1730   16.1770   52.9130 C.3   242  THR242      0.1994
     91  C         18.9100   15.0440   52.2110 C.2   242  THR242      0.2617
     92  O         20.1240   14.9360   52.3090 O.2   242  THR242     -0.2717
     93  CB        18.1630   15.8590   54.3900 C.3   242  THR242      0.1784
     94  OG1       17.2400   14.7850   54.5890 O.3   242  THR242     -0.2211
     95  CG2       17.6920   17.0530   55.1900 C.3   242  THR242      0.0376
     96  N         18.1830   14.1880   51.5150 N.am  243  ASN243     -0.1974
     97  CA        18.7550   12.9850   50.9560 C.3   243  ASN243      0.1688
     98  C         17.7650   12.3750   49.9930 C.2   243  ASN243      0.2292
     99  O         16.5780   12.6400   50.0880 O.2   243  ASN243     -0.2864
    100  CB        19.1250   11.9810   52.0730 C.3   243  ASN243      0.1181
    101  CG        17.9070   11.5560   52.9420 C.2   243  ASN243      0.2629
    102  OD1       17.4020   12.3140   53.7850 O.2   243  ASN243     -0.2716
    103  ND2       17.4540   10.3390   52.7280 N.am  243  ASN243     -0.0877
    104  N         16.2060    8.8980   48.8090 N.3   245  VAL245     -0.1245
    105  CA        16.1840    7.5750   49.4410 C.3   245  VAL245      0.1561
    106  C         16.7040    6.5530   48.4290 C.2   245  VAL245      0.2260
    107  O         16.4470    6.6700   47.2240 O.2   245  VAL245     -0.2867
    108  CB        14.8000    7.2100   50.0320 C.3   245  VAL245      0.0252
    109  CG1       14.2980    8.3100   50.9740 C.3   245  VAL245      0.0019
    110  CG2       13.8060    6.9940   48.9320 C.3   245  VAL245      0.0019
    111  N         21.4270    5.6960   53.5880 N.3   255  ALA255     -0.1245
    112  CA        20.8480    6.8240   54.3330 C.3   255  ALA255      0.1562
    113  C         21.4750    6.8900   55.7330 C.2   255  ALA255      0.2260
    114  O         21.5790    5.8700   56.4150 O.2   255  ALA255     -0.2867
    115  CB        19.3270    6.6920   54.4150 C.3   255  ALA255      0.0290
    116  N         22.3240    9.7660   59.3750 N.3   257  HIS257     -0.1241
    117  CA        22.0160   10.9750   60.1340 C.3   257  HIS257      0.1621
    118  C         23.0200   12.1290   59.9420 C.2   257  HIS257      0.2264
    119  O         22.6380   13.3080   60.0060 O.2   257  HIS257     -0.2867
    120  CB        21.9170   10.6140   61.6180 C.3   257  HIS257      0.0745
    121  CG        21.4260   11.7260   62.4980 C.ar  257  HIS257      0.0817
    122  ND1       20.3000   12.4690   62.2070 N.ar  257  HIS257     -0.2268
    123  CD2       21.8830   12.1830   63.6870 C.ar  257  HIS257      0.1154
    124  CE1       20.0930   13.3480   63.1720 C.ar  257  HIS257      0.1986
    125  NE2       21.0410   13.1960   64.0800 N.ar  257  HIS257     -0.2212
    126  N         22.2070   13.9840   56.7750 N.3   260  VAL260     -0.1245
    127  CA        20.9440   14.7200   56.9840 C.3   260  VAL260      0.1561
    128  C         21.1940   16.0230   57.7560 C.2   260  VAL260      0.2260
    129  O         20.6800   17.0750   57.3840 O.2   260  VAL260     -0.2867
    130  CB        19.8450   13.8450   57.6790 C.3   260  VAL260      0.0252
    131  CG1       18.6120   14.6740   58.0370 C.3   260  VAL260      0.0019
    132  CG2       19.4550   12.6710   56.7960 C.3   260  VAL260      0.0019
@<TRIPOS>BOND
     1   107   106    2
     2   106   105    1
     3   104   105    1
     4   110   108    1
     5   105   108    1
     6    98    99    2
     7    98    97    1
     8   108   109    1
     9    97    96    1
    10    97   100    1
    11    41    42    2
    12    41    40    1
    13    96    91   am
    14   100   101    1
    15    91    92    2
    16    91    90    1
    17    40    39    1
    18    89    90    1
    19    70    71    1
    20   103   101   am
    21    90    93    1
    22   101   102    2
    23    37    36    2
    24    75    74    1
    25    39    36   am
    26    74    71    1
    27    74    76    1
    28    36    35    1
    29   111   112    1
    30    71    72    1
    31    64    63    2
    32    65    66    1
    33    65    62    1
    34    63    62    1
    35    38    35    1
    36   112   115    1
    37   112   113    1
    38    93    94    1
    39    93    95    1
    40    66    67    1
    41    35    34    1
    42    68    67   ar
    43    62    61    1
    44    73    72    2
    45    72    77   am
    46    34    31   am
    47    67    69   ar
    48   113   114    2
    49    61    52   am
    50    77    78    1
    51    31    30    1
    52    31    32    2
    53   126   127    1
    54   132   130    1
    55    52    53    2
    56    52    51    1
    57   127   130    1
    58   127   128    1
    59    30    33    1
    60    30    29    1
    61    54    55    1
    62    54    51    1
    63    78    79    1
    64   129   128    2
    65    56    55   ar
    66    56    58   ar
    67    55    57   ar
    68   130   131    1
    69    51    50    1
    70    58    60   ar
    71    57    59   ar
    72    80    79    2
    73    60    59   ar
    74    79    81   am
    75   116   117    1
    76    81    82    1
    77   118   119    2
    78   118   117    1
    79    88    87    1
    80   117   120    1
    81    86    87    1
    82    86    85    1
    83    82    85    1
    84    82    83    1
    85   120   121    1
    86     6     5    1
    87    83    84    2
    88     3     4    2
    89     3     2    1
    90   122   121   ar
    91   122   124   ar
    92    46    45    2
    93   121   123   ar
    94     1     2    1
    95    45    44    1
    96     5     2    1
    97   124   125   ar
    98   123   125   ar
    99    44    43    1
   100    44    47    1
   101    43    49    1
   102    26    24   ar
   103    26    27   ar
   104    47    48    1
   105    24    22   ar
   106    14    16   ar
   107    14    12   ar
   108    16    15   ar
   109    49    48    1
   110    28    27    1
   111    27    25   ar
   112    22    21    1
   113    22    23   ar
   114    12    11    1
   115    12    13   ar
   116    15    13   ar
   117    21    18    1
   118    11     8    1
   119    25    23   ar
   120    17    18    1
   121    18    19    1
   122     8     9    1
   123     8     7    1
   124     9    10    2
   125    19    20    2
