@<TRIPOS>MOLECULE
tmp/3k8sB01.pdb
 227 215 0 0 0
SMALL
GASTEIGER

@<TRIPOS>ATOM
      1  N          1.5360   24.1510   15.5790 N.3    20  PHE20      -0.1241
      2  CA         2.6790   24.3300   14.6730 C.3    20  PHE20       0.1605
      3  C          2.2970   24.4900   13.2070 C.2    20  PHE20       0.2264
      4  O          2.0990   23.5140   12.4980 O.2    20  PHE20      -0.2867
      5  CB         3.6440   23.1450   14.8250 C.3    20  PHE20       0.0534
      6  CG         4.0640   22.8850   16.2450 C.ar   20  PHE20      -0.0203
      7  CD1        4.8500   23.8080   16.9330 C.ar   20  PHE20      -0.0042
      8  CD2        3.6580   21.7290   16.9030 C.ar   20  PHE20      -0.0042
      9  CE1        5.2290   23.5840   18.2640 C.ar   20  PHE20      -0.0003
     10  CE2        4.0270   21.4870   18.2310 C.ar   20  PHE20      -0.0003
     11  CZ         4.8130   22.4170   18.9150 C.ar   20  PHE20      -0.0000
     12  N          3.9830   25.1650   10.4240 N.3    22  LEU22      -0.1245
     13  CA         4.7560   24.4420    9.4250 C.3    22  LEU22       0.1561
     14  C          5.0210   23.0070    9.8800 C.2    22  LEU22       0.2260
     15  O          5.9660   22.7370   10.6280 O.2    22  LEU22      -0.2867
     16  CB         6.0540   25.1960    9.1220 C.3    22  LEU22       0.0270
     17  CG         6.8670   24.8290    7.8640 C.3    22  LEU22       0.0019
     18  CD1        5.9610   24.3600    6.7250 C.3    22  LEU22       0.0001
     19  CD2        7.6620   26.0500    7.4110 C.3    22  LEU22       0.0001
     20  N         26.5280   37.1800    8.4120 N.3    59  ALA59      -0.1245
     21  CA        26.4510   36.2160    9.5050 C.3    59  ALA59       0.1562
     22  C         25.6240   36.6880   10.7020 C.2    59  ALA59       0.2260
     23  O         24.8650   35.9140   11.2770 O.2    59  ALA59      -0.2867
     24  CB        27.8410   35.8480    9.9530 C.3    59  ALA59       0.0290
     25  N         21.8070   36.7230    9.7190 N.3    62  ILE62      -0.1231
     26  CA        21.2460   35.3860    9.6390 C.3    62  ILE62       0.1692
     27  C         21.0400   34.8360   11.0410 C.2    62  ILE62       0.2592
     28  O         20.0820   34.1130   11.2990 O.2    62  ILE62      -0.2718
     29  CB        22.1630   34.4300    8.8810 C.3    62  ILE62       0.0266
     30  CG1       22.2790   34.8550    7.4150 C.3    62  ILE62       0.0019
     31  CG2       21.6080   33.0330    8.9720 C.3    62  ILE62       0.0020
     32  CD1       23.1920   33.9590    6.5860 C.3    62  ILE62       0.0001
     33  N         21.9550   35.1810   11.9430 N.am   63  PHE63      -0.1976
     34  CA        21.8750   34.7380   13.3300 C.3    63  PHE63       0.1639
     35  C         20.6830   35.4270   13.9660 C.2    63  PHE63       0.2290
     36  O         19.8910   34.8000   14.6650 O.2    63  PHE63      -0.2864
     37  CB        23.1460   35.1210   14.0920 C.3    63  PHE63       0.0560
     38  CG        23.1550   34.6640   15.5280 C.ar   63  PHE63      -0.0200
     39  CD1       23.5200   33.3620   15.8580 C.ar   63  PHE63      -0.0042
     40  CD2       22.7700   35.5300   16.5500 C.ar   63  PHE63      -0.0042
     41  CE1       23.5020   32.9310   17.1780 C.ar   63  PHE63      -0.0003
     42  CE2       22.7460   35.1070   17.8700 C.ar   63  PHE63      -0.0003
     43  CZ        23.1120   33.8050   18.1830 C.ar   63  PHE63      -0.0000
     44  N         17.5160   33.5520   13.1670 N.3    66  CYS66      -0.1221
     45  CA        17.2890   32.3440   13.9680 C.3    66  CYS66       0.1808
     46  C         16.7120   32.6080   15.3420 C.2    66  CYS66       0.2601
     47  O         15.8030   31.9180   15.7970 O.2    66  CYS66      -0.2717
     48  CB        18.5930   31.5810   14.1520 C.3    66  CYS66       0.0970
     49  SG        19.3420   31.0920   12.6200 S.3    66  CYS66      -0.0800
     50  N         17.2590   33.6080   16.0070 N.am   67  GLN67      -0.1979
     51  CA        16.8160   33.9420   17.3360 C.3    67  GLN67       0.1601
     52  C         15.3490   34.3300   17.3290 C.2    67  GLN67       0.2287
     53  O         14.5580   33.8250   18.1290 O.2    67  GLN67      -0.2864
     54  CB        17.6920   35.0700   17.8820 C.3    67  GLN67       0.0394
     55  CG        19.2050   34.7520   17.8160 C.3    67  GLN67       0.0908
     56  CD        19.6370   33.5670   18.7130 C.2    67  GLN67       0.2608
     57  OE1       19.6790   33.6800   19.9480 O.2    67  GLN67      -0.2717
     58  NE2       19.9560   32.4310   18.0860 N.am   67  GLN67      -0.0878
     59  N         13.0230   33.6040   15.2370 N.3    69  ARG69      -0.1231
     60  CA        12.2080   32.4370   14.9520 C.3    69  ARG69       0.1694
     61  C         12.1450   31.4610   16.1440 C.2    69  ARG69       0.2592
     62  O         11.0770   30.9370   16.4670 O.2    69  ARG69      -0.2718
     63  CB        12.7340   31.7440   13.6930 C.3    69  ARG69       0.0321
     64  CG        11.9370   30.5170   13.2960 C.3    69  ARG69       0.0489
     65  CD        10.5570   30.8560   12.7790 C.3    69  ARG69       0.2205
     66  NE         9.7640   29.6500   12.5610 N.pl3  69  ARG69      -0.0865
     67  CZ         9.0880   29.0150   13.5120 C.cat  69  ARG69       0.5346
     68  NH1        9.1010   29.4750   14.7560 N.pl3  69  ARG69       0.1354
     69  NH2        8.3990   27.9150   13.2250 N.pl3  69  ARG69       0.1354
     70  N         13.2810   31.2270   16.8010 N.am   70  SER70      -0.1952
     71  CA        13.3150   30.3400   17.9590 C.3    70  SER70       0.1924
     72  C         12.3310   30.8680   18.9920 C.2    70  SER70       0.2314
     73  O         11.5460   30.1120   19.5660 O.2    70  SER70      -0.2863
     74  CB        14.7170   30.2980   18.5610 C.3    70  SER70       0.2116
     75  OG        15.6530   29.7890   17.6220 O.3    70  SER70      -0.2180
     76  N          9.2230   29.8760   17.9980 N.3    73  ALA73      -0.1245
     77  CA         9.1790   28.4310   18.2340 C.3    73  ALA73       0.1562
     78  C          8.8460   28.1630   19.7050 C.2    73  ALA73       0.2260
     79  O          7.9890   27.3280   20.0290 O.2    73  ALA73      -0.2867
     80  CB        10.5270   27.8090   17.8770 C.3    73  ALA73       0.0290
     81  N          5.1200   28.5880   20.3950 N.3    76  GLU76      -0.1245
     82  CA         4.3030   27.4840   19.9420 C.3    76  GLU76       0.1567
     83  C          4.4680   26.2770   20.8430 C.2    76  GLU76       0.2260
     84  O          3.4730   25.6820   21.2810 O.2    76  GLU76      -0.2867
     85  CB         4.6750   27.1660   18.5020 C.3    76  GLU76       0.0388
     86  CG         4.3910   28.3590   17.5880 C.3    76  GLU76       0.1160
     87  CD         5.0130   28.2340   16.2200 C.2    76  GLU76       0.3649
     88  OE1        4.7490   27.2250   15.5290 O.co2  76  GLU76      -0.2457
     89  OE2        5.7620   29.1510   15.8300 O.co2  76  GLU76      -0.2457
     90  N         13.0760   22.2470   19.3860 N.3   107  ILE107     -0.1231
     91  CA        13.3670   23.0950   18.2510 C.3   107  ILE107      0.1692
     92  C         14.1930   22.3600   17.1960 C.2   107  ILE107      0.2592
     93  O         13.8550   22.3730   16.0170 O.2   107  ILE107     -0.2718
     94  CB        14.1140   24.3910   18.7000 C.3   107  ILE107      0.0266
     95  CG1       13.1170   25.3460   19.3410 C.3   107  ILE107      0.0019
     96  CG2       14.8140   25.0620   17.5010 C.3   107  ILE107      0.0020
     97  CD1       13.7500   26.5630   19.9650 C.3   107  ILE107      0.0001
     98  N         15.2750   21.7150   17.6120 N.am  108  TYR108     -0.1976
     99  CA        16.1130   21.0070   16.6450 C.3   108  TYR108      0.1639
    100  C         15.4590   19.7360   16.1150 C.2   108  TYR108      0.2290
    101  O         15.7800   19.2860   15.0220 O.2   108  TYR108     -0.2864
    102  CB        17.4940   20.7450   17.2570 C.3   108  TYR108      0.0560
    103  CG        18.1640   22.0590   17.5780 C.ar  108  TYR108     -0.0198
    104  CD1       18.3480   23.0180   16.5770 C.ar  108  TYR108     -0.0009
    105  CD2       18.5190   22.3980   18.8860 C.ar  108  TYR108     -0.0009
    106  CE1       18.8550   24.2740   16.8630 C.ar  108  TYR108      0.0417
    107  CE2       19.0330   23.6650   19.1840 C.ar  108  TYR108      0.0417
    108  CZ        19.1960   24.5950   18.1630 C.ar  108  TYR108      0.1957
    109  OH        19.7150   25.8440   18.4250 O.3   108  TYR108     -0.2866
    110  N         12.1500   19.4220   15.4630 N.3   110  MET110     -0.1230
    111  CA        11.2610   19.9060   14.4480 C.3   110  MET110      0.1702
    112  C         12.0030   20.5940   13.3200 C.2   110  MET110      0.2592
    113  O         11.5150   20.6550   12.1890 O.2   110  MET110     -0.2718
    114  CB        10.2500   20.8330   15.0910 C.3   110  MET110      0.0401
    115  CG         9.3580   20.0840   16.0280 C.3   110  MET110      0.0596
    116  SD         8.1380   21.1410   16.7160 S.3   110  MET110     -0.1393
    117  CE         6.7640   20.8000   15.6440 C.3   110  MET110      0.0692
    118  N         13.1930   21.1010   13.6100 N.am  111  LEU111     -0.1980
    119  CA        13.9650   21.7580   12.5670 C.3   111  LEU111      0.1596
    120  C         14.4080   20.7130   11.5390 C.2   111  LEU111      0.2287
    121  O         14.6200   21.0290   10.3690 O.2   111  LEU111     -0.2864
    122  CB        15.1880   22.4710   13.1520 C.3   111  LEU111      0.0297
    123  CG        16.1150   23.1000   12.1060 C.3   111  LEU111      0.0022
    124  CD1       15.3070   24.1370   11.3110 C.3   111  LEU111      0.0001
    125  CD2       17.3310   23.7570   12.7660 C.3   111  LEU111      0.0001
    126  N         12.6600   18.4960   10.3140 N.3   113  SER113     -0.1202
    127  CA        11.6220   18.4050    9.3110 C.3   113  SER113      0.2020
    128  C         11.8890   19.3070    8.1010 C.2   113  SER113      0.2618
    129  O         11.4990   18.9620    6.9910 O.2   113  SER113     -0.2717
    130  CB        10.2680   18.7530    9.9220 C.3   113  SER113      0.2103
    131  OG         9.7810   17.6960   10.7160 O.3   113  SER113     -0.2182
    132  N         12.5550   20.4440    8.3140 N.am  114  LEU114     -0.1979
    133  CA        12.8370   21.3900    7.2340 C.3   114  LEU114      0.1596
    134  C         14.2160   21.2100    6.6030 C.2   114  LEU114      0.2287
    135  O         14.6960   22.0920    5.8670 O.2   114  LEU114     -0.2864
    136  CB        12.7280   22.8270    7.7490 C.3   114  LEU114      0.0297
    137  CG        11.6870   23.1430    8.8290 C.3   114  LEU114      0.0022
    138  CD1       11.6640   24.6540    9.0600 C.3   114  LEU114      0.0001
    139  CD2       10.3060   22.6350    8.4170 C.3   114  LEU114      0.0001
    140  N         18.2540   23.8120    4.1920 N.3   120  VAL120     -0.1231
    141  CA        17.1070   24.0010    5.0630 C.3   120  VAL120      0.1692
    142  C         16.1080   25.0510    4.5810 C.2   120  VAL120      0.2592
    143  O         16.4900   26.1280    4.0950 O.2   120  VAL120     -0.2718
    144  CB        17.5890   24.4020    6.4930 C.3   120  VAL120      0.0266
    145  CG1       18.4330   25.6880    6.4250 C.3   120  VAL120      0.0020
    146  CG2       16.3830   24.5890    7.4370 C.3   120  VAL120      0.0020
    147  N         14.8230   24.7380    4.7400 N.am  121  LEU121     -0.1966
    148  CA        13.7580   25.6550    4.3610 C.3   121  LEU121      0.1728
    149  C         13.7410   26.8380    5.3230 C.2   121  LEU121      0.2616
    150  O         13.8810   26.6480    6.5220 O.2   121  LEU121     -0.2715
    151  CB        12.4000   24.9560    4.4240 C.3   121  LEU121      0.0311
    152  CG        12.0880   23.9720    3.3090 C.3   121  LEU121      0.0022
    153  CD1       10.6910   23.3890    3.5200 C.3   121  LEU121      0.0001
    154  CD2       12.1830   24.7050    1.9680 C.3   121  LEU121      0.0001
    155  N         13.5550   28.0490    4.7960 N.am  122  ILE122     -0.1977
    156  CA        13.5130   29.2600    5.6120 C.3   122  ILE122      0.1596
    157  C         12.3230   30.1320    5.2360 C.2   122  ILE122      0.2287
    158  O         11.6640   29.8900    4.2330 O.2   122  ILE122     -0.2864
    159  CB        14.7930   30.0830    5.4420 C.3   122  ILE122      0.0276
    160  CG1       14.8670   30.6500    4.0240 C.3   122  ILE122      0.0022
    161  CG2       16.0050   29.1930    5.6890 C.3   122  ILE122      0.0022
    162  CD1       15.9340   31.6940    3.8630 C.3   122  ILE122      0.0001
    163  N         25.9200   28.1580    4.4590 N.3   134  LEU134     -0.1245
    164  CA        25.9520   28.2940    5.9050 C.3   134  LEU134      0.1561
    165  C         27.3150   27.9400    6.4790 C.2   134  LEU134      0.2260
    166  O         27.7900   28.5900    7.4090 O.2   134  LEU134     -0.2867
    167  CB        24.8860   27.3960    6.5420 C.3   134  LEU134      0.0270
    168  CG        23.4480   27.9090    6.4440 C.3   134  LEU134      0.0019
    169  CD1       22.4830   26.8750    6.9800 C.3   134  LEU134      0.0001
    170  CD2       23.3320   29.1990    7.2270 C.3   134  LEU134      0.0001
    171  N         30.1510   30.6650    6.1610 N.3   137  LEU137     -0.1245
    172  CA        30.0490   31.8320    7.0260 C.3   137  LEU137      0.1561
    173  C         31.2430   31.8500    7.9790 C.2   137  LEU137      0.2260
    174  O         31.7310   30.7960    8.3910 O.2   137  LEU137     -0.2867
    175  CB        28.7490   31.7810    7.8270 C.3   137  LEU137      0.0270
    176  CG        27.4350   32.1260    7.1260 C.3   137  LEU137      0.0019
    177  CD1       26.2750   31.6140    7.9790 C.3   137  LEU137      0.0001
    178  CD2       27.3330   33.6390    6.9050 C.3   137  LEU137      0.0001
    179  N         30.1670   31.3110   13.3970 N.3   141  PHE141     -0.1241
    180  CA        28.8680   31.2450   12.7280 C.3   141  PHE141      0.1605
    181  C         28.7530   30.0870   11.7490 C.2   141  PHE141      0.2264
    182  O         27.6830   29.5060   11.5920 O.2   141  PHE141     -0.2867
    183  CB        28.5730   32.5500   11.9930 C.3   141  PHE141      0.0534
    184  CG        28.4310   33.7260   12.8980 C.ar  141  PHE141     -0.0203
    185  CD1       29.4170   34.7020   12.9480 C.ar  141  PHE141     -0.0042
    186  CD2       27.3120   33.8640   13.7040 C.ar  141  PHE141     -0.0042
    187  CE1       29.2880   35.8050   13.7920 C.ar  141  PHE141     -0.0003
    188  CE2       27.1740   34.9630   14.5520 C.ar  141  PHE141     -0.0003
    189  CZ        28.1650   35.9340   14.5930 C.ar  141  PHE141     -0.0000
    190  N         27.6810   26.5760   13.4270 N.3   144  PHE144     -0.1227
    191  CA        26.4360   26.4560   14.1700 C.3   144  PHE144      0.1736
    192  C         25.4660   25.3930   13.6810 C.2   144  PHE144      0.2595
    193  O         24.9680   24.5880   14.4650 O.2   144  PHE144     -0.2718
    194  CB        25.7110   27.8010   14.1850 C.3   144  PHE144      0.0547
    195  CG        25.8740   28.5630   15.4640 C.ar  144  PHE144     -0.0202
    196  CD1       25.3650   28.0620   16.6570 C.ar  144  PHE144     -0.0042
    197  CD2       26.5300   29.7880   15.4780 C.ar  144  PHE144     -0.0042
    198  CE1       25.5060   28.7730   17.8500 C.ar  144  PHE144     -0.0003
    199  CE2       26.6770   30.5070   16.6650 C.ar  144  PHE144     -0.0003
    200  CZ        26.1640   29.9970   17.8530 C.ar  144  PHE144     -0.0000
    201  N         25.2020   25.3790   12.3820 N.am  145  MET145     -0.1979
    202  CA        24.2310   24.4420   11.8570 C.3   145  MET145      0.1605
    203  C         24.7120   23.0770   11.3720 C.2   145  MET145      0.2287
    204  O         23.9130   22.1390   11.2810 O.2   145  MET145     -0.2864
    205  CB        23.4320   25.1300   10.7610 C.3   145  MET145      0.0413
    206  CG        22.1490   24.4190   10.4490 C.3   145  MET145      0.0598
    207  SD        20.9760   25.5030    9.6730 S.3   145  MET145     -0.1393
    208  CE        19.4760   24.5690    9.9440 C.3   145  MET145      0.0692
    209  N         23.5950   20.1300   13.3750 N.3   148  LYS148     -0.1245
    210  CA        22.1540   19.9510   13.2100 C.3   148  LYS148      0.1561
    211  C         21.8920   19.1380   11.9390 C.2   148  LYS148      0.2260
    212  O         21.0200   18.2660   11.9060 O.2   148  LYS148     -0.2867
    213  CB        21.4490   21.3080   13.0950 C.3   148  LYS148      0.0271
    214  CG        21.2150   22.0290   14.4110 C.3   148  LYS148      0.0035
    215  CD        22.4520   22.6620   14.9700 C.3   148  LYS148      0.0206
    216  CE        22.1230   23.3280   16.2900 C.3   148  LYS148      0.1093
    217  NZ        23.2790   24.0800   16.8510 N.3   148  LYS148     -0.1314
    218  N         25.5540   23.5950   21.1640 N.3   230  HIS230     -0.1241
    219  CA        24.9650   24.8700   20.7780 C.3   230  HIS230      0.1621
    220  C         25.2470   25.8600   21.9050 C.2   230  HIS230      0.2264
    221  O         25.8270   26.9250   21.6780 O.2   230  HIS230     -0.2867
    222  CB        23.4590   24.7240   20.5590 C.3   230  HIS230      0.0745
    223  CG        22.7770   26.0000   20.1520 C.ar  230  HIS230      0.0817
    224  ND1       22.8350   26.5030   18.8690 N.ar  230  HIS230     -0.2268
    225  CD2       22.0250   26.8760   20.8660 C.ar  230  HIS230      0.1154
    226  CE1       22.1480   27.6300   18.8100 C.ar  230  HIS230      0.1986
    227  NE2       21.6480   27.8780   20.0080 N.ar  230  HIS230     -0.2212
@<TRIPOS>BOND
     1   154   152    1
     2   152   153    1
     3   152   151    1
     4   162   160    1
     5   160   159    1
     6   143   142    2
     7   140   141    1
     8   158   157    2
     9   148   151    1
    10   148   147    1
    11   148   149    1
    12   163   164    1
    13   142   147   am
    14   142   141    1
    15   155   149   am
    16   155   156    1
    17   141   144    1
    18   157   156    1
    19   149   150    2
    20   159   156    1
    21   159   161    1
    22   135   134    2
    23   164   165    1
    24   164   167    1
    25   171   172    1
    26   145   144    1
    27   168   167    1
    28   168   169    1
    29   168   170    1
    30   165   166    2
    31   144   146    1
    32    32    30    1
    33   134   133    1
    34    18    17    1
    35   178   176    1
    36   129   128    2
    37   172   175    1
    38   172   173    1
    39   176   175    1
    40   176   177    1
    41   133   136    1
    42   133   132    1
    43    19    17    1
    44    30    29    1
    45   136   137    1
    46    17    16    1
    47   173   174    2
    48   128   132   am
    49   128   127    1
    50    20    21    1
    51   139   137    1
    52   137   138    1
    53    29    31    1
    54    29    26    1
    55    16    13    1
    56   127   130    1
    57   127   126    1
    58    13    14    1
    59    13    12    1
    60    21    24    1
    61    21    22    1
    62    26    25    1
    63    26    27    1
    64   207   208    1
    65   207   206    1
    66    14    15    2
    67   130   131    1
    68   121   120    2
    69   206   205    1
    70    22    23    2
    71   205   202    1
    72    27    28    2
    73    27    33   am
    74   204   203    2
    75   124   123    1
    76   203   202    1
    77   120   119    1
    78   182   181    2
    79   181   180    1
    80   202   201    1
    81   212   211    2
    82   211   210    1
    83    33    34    1
    84   183   180    1
    85   183   184    1
    86   123   125    1
    87   123   122    1
    88   113   112    2
    89   201   192   am
    90     4     3    2
    91    66    65    1
    92    66    67    2
    93   119   122    1
    94   119   118    1
    95    49    48    1
    96   180   179    1
    97    65    64    1
    98   184   185   ar
    99   184   186   ar
   100   185   187   ar
   101   213   210    1
   102   213   214    1
   103    44    45    1
   104     3     2    1
   105   210   209    1
   106    69    67    1
   107    64    63    1
   108   112   118   am
   109   112   111    1
   110    34    35    1
   111    34    37    1
   112   190   191    1
   113    67    68    1
   114   192   191    1
   115   192   193    2
   116    63    60    1
   117   186   188   ar
   118   187   189   ar
   119    35    36    2
   120    45    48    1
   121    45    46    1
   122    37    38    1
   123   191   194    1
   124   194   195    1
   125   214   215    1
   126   111   114    1
   127   111   110    1
   128   188   189   ar
   129     2     5    1
   130     2     1    1
   131     5     6    1
   132    60    59    1
   133    60    61    1
   134   215   216    1
   135   101   100    2
   136   114   115    1
   137    46    47    2
   138    46    50   am
   139   195   197   ar
   140   195   196   ar
   141   197   199   ar
   142    38    39   ar
   143    38    40   ar
   144    88    87   ar
   145   117   116    1
   146    89    87   ar
   147    39    41   ar
   148    50    51    1
   149    93    92    2
   150   115   116    1
   151   100    99    1
   152    61    62    2
   153    61    70   am
   154    87    86    1
   155     6     8   ar
   156     6     7   ar
   157   216   217    1
   158    40    42   ar
   159   104   106   ar
   160   104   103   ar
   161    99   102    1
   162    99    98    1
   163   196   198   ar
   164   199   200   ar
   165    70    71    1
   166   106   108   ar
   167     8    10   ar
   168     7     9   ar
   169    41    43   ar
   170    92    98   am
   171    92    91    1
   172   102   103    1
   173    52    51    1
   174    52    53    2
   175    51    54    1
   176    96    94    1
   177   103   105   ar
   178    86    85    1
   179    75    74    1
   180    55    54    1
   181    55    56    1
   182   198   200   ar
   183    42    43   ar
   184    80    77    1
   185    71    74    1
   186    71    72    1
   187    76    77    1
   188    58    56   am
   189   108   109    1
   190   108   107   ar
   191    10    11   ar
   192    77    78    1
   193    91    94    1
   194    91    90    1
   195     9    11   ar
   196    85    82    1
   197    94    95    1
   198    56    57    2
   199   226   224   ar
   200   226   227   ar
   201   224   223   ar
   202   105   107   ar
   203    72    73    2
   204    95    97    1
   205    78    79    2
   206    82    81    1
   207    82    83    1
   208   227   225   ar
   209   223   222    1
   210   223   225   ar
   211   222   219    1
   212   219   218    1
   213   219   220    1
   214    83    84    2
   215   221   220    2
