@<TRIPOS>MOLECULE
tmp/3k8sB00.pdb
 130 117 0 0 0
SMALL
GASTEIGER

@<TRIPOS>ATOM
      1  N         19.2430   30.0210   -1.6990 N.3    43  ILE43      -0.1245
      2  CA        20.3960   30.8410   -1.3540 C.3    43  ILE43       0.1561
      3  C         21.5560   29.8840   -1.1610 C.2    43  ILE43       0.2260
      4  O         21.5230   29.0120   -0.2980 O.2    43  ILE43      -0.2867
      5  CB        20.1530   31.6420   -0.0730 C.3    43  ILE43       0.0252
      6  CG1       19.0750   32.6970   -0.3420 C.3    43  ILE43       0.0019
      7  CG2       21.4450   32.3030    0.3840 C.3    43  ILE43       0.0019
      8  CD1       18.6950   33.5210    0.8700 C.3    43  ILE43       0.0001
      9  N         21.9170   35.4020   -1.9450 N.3    49  LEU49      -0.1245
     10  CA        21.4100   35.8220   -0.6500 C.3    49  LEU49       0.1561
     11  C         20.8510   37.2260   -0.8000 C.2    49  LEU49       0.2260
     12  O         19.7640   37.5320   -0.3080 O.2    49  LEU49      -0.2867
     13  CB        22.5150   35.8110    0.4090 C.3    49  LEU49       0.0270
     14  CG        22.0600   36.2640    1.8040 C.3    49  LEU49       0.0019
     15  CD1       22.6620   35.3690    2.8650 C.3    49  LEU49       0.0001
     16  CD2       22.4520   37.7080    2.0300 C.3    49  LEU49       0.0001
     17  N         17.7940   37.5070   -2.8540 N.3    52  GLY52      -0.1210
     18  CA        16.7000   36.9460   -2.0900 C.3    52  GLY52       0.1956
     19  C         16.3650   37.7780   -0.8750 C.2    52  GLY52       0.2611
     20  O         15.6670   37.3150    0.0220 O.2    52  GLY52      -0.2717
     21  N         16.8590   39.0110   -0.8410 N.am   53  GLU53      -0.1979
     22  CA        16.5910   39.8890    0.2890 C.3    53  GLU53       0.1602
     23  C         15.2330   40.5650    0.1600 C.2    53  GLU53       0.2287
     24  O         15.0460   41.7110    0.5620 O.2    53  GLU53      -0.2864
     25  CB        17.7050   40.9250    0.4330 C.3    53  GLU53       0.0415
     26  CG        19.0570   40.2900    0.7340 C.3    53  GLU53       0.1163
     27  CD        20.0740   41.2730    1.2830 C.2    53  GLU53       0.3649
     28  OE1       20.2640   42.3470    0.6720 O.co2  53  GLU53      -0.2457
     29  OE2       20.6950   40.9640    2.3230 O.co2  53  GLU53      -0.2457
     30  N         11.4930   38.7760    0.6960 N.3    55  LYS55      -0.1245
     31  CA        10.6070   37.6380    0.9280 C.3    55  LYS55       0.1561
     32  C          9.5440   37.9550    1.9730 C.2    55  LYS55       0.2260
     33  O          9.3540   37.1970    2.9240 O.2    55  LYS55      -0.2867
     34  CB        11.4140   36.4250    1.3860 C.3    55  LYS55       0.0271
     35  CG        12.2080   35.7580    0.2900 C.3    55  LYS55       0.0035
     36  CD        13.0510   34.6380    0.8580 C.3    55  LYS55       0.0206
     37  CE        13.7210   33.8390   -0.2380 C.3    55  LYS55       0.1093
     38  NZ        14.6880   32.8640    0.3280 N.3    55  LYS55      -0.1314
     39  N         26.4110   39.9240    7.1000 N.3    58  VAL58      -0.1245
     40  CA        25.6250   38.7470    6.7580 C.3    58  VAL58       0.1561
     41  C         25.4370   37.7640    7.9240 C.2    58  VAL58       0.2260
     42  O         24.3120   37.5490    8.3820 O.2    58  VAL58      -0.2867
     43  CB        26.2570   38.0200    5.5500 C.3    58  VAL58       0.0252
     44  CG1       27.6930   37.6260    5.8740 C.3    58  VAL58       0.0019
     45  CG2       25.4240   36.8080    5.1690 C.3    58  VAL58       0.0019
     46  N         23.1890   38.9640   10.6740 N.3    61  ARG61      -0.1231
     47  CA        21.7820   39.0860   10.2800 C.3    61  ARG61       0.1694
     48  C         21.0970   37.7250   10.2290 C.2    61  ARG61       0.2591
     49  O         19.9410   37.5860   10.6390 O.2    61  ARG61      -0.2718
     50  CB        21.6500   39.7790    8.9120 C.3    61  ARG61       0.0321
     51  CG        21.8370   41.3010    8.9340 C.3    61  ARG61       0.0489
     52  CD        21.7870   41.9080    7.5240 C.3    61  ARG61       0.2205
     53  NE        22.7200   41.2430    6.6170 N.pl3  61  ARG61      -0.0865
     54  CZ        23.0660   41.7010    5.4180 C.cat  61  ARG61       0.5346
     55  NH1       22.5590   42.8430    4.9650 N.pl3  61  ARG61       0.1354
     56  NH2       23.9160   41.0080    4.6680 N.pl3  61  ARG61       0.1354
     57  N         21.8070   36.7230    9.7190 N.am   62  ILE62      -0.1980
     58  CA        21.2460   35.3860    9.6390 C.3    62  ILE62       0.1595
     59  C         21.0400   34.8360   11.0410 C.2    62  ILE62       0.2287
     60  O         20.0820   34.1130   11.2990 O.2    62  ILE62      -0.2864
     61  CB        22.1630   34.4300    8.8810 C.3    62  ILE62       0.0276
     62  CG1       22.2790   34.8550    7.4150 C.3    62  ILE62       0.0022
     63  CG2       21.6080   33.0330    8.9720 C.3    62  ILE62       0.0022
     64  CD1       23.1920   33.9590    6.5860 C.3    62  ILE62       0.0001
     65  N         18.1740   36.2820   12.6080 N.3    65  GLY65      -0.1210
     66  CA        16.9820   35.6460   12.0850 C.3    65  GLY65       0.1956
     67  C         16.5740   34.4700   12.9490 C.2    65  GLY65       0.2612
     68  O         15.4340   34.4040   13.4210 O.2    65  GLY65      -0.2717
     69  N         17.5160   33.5520   13.1670 N.am   66  CYS66      -0.1970
     70  CA        17.2890   32.3440   13.9680 C.3    66  CYS66       0.1712
     71  C         16.7120   32.6080   15.3420 C.2    66  CYS66       0.2296
     72  O         15.8030   31.9180   15.7970 O.2    66  CYS66      -0.2864
     73  CB        18.5930   31.5810   14.1520 C.3    66  CYS66       0.0983
     74  SG        19.3420   31.0920   12.6200 S.3    66  CYS66      -0.0798
     75  N         13.0230   33.6040   15.2370 N.3    69  ARG69      -0.1245
     76  CA        12.2080   32.4370   14.9520 C.3    69  ARG69       0.1563
     77  C         12.1450   31.4610   16.1440 C.2    69  ARG69       0.2260
     78  O         11.0770   30.9370   16.4670 O.2    69  ARG69      -0.2867
     79  CB        12.7340   31.7440   13.6930 C.3    69  ARG69       0.0307
     80  CG        11.9370   30.5170   13.2960 C.3    69  ARG69       0.0489
     81  CD        10.5570   30.8560   12.7790 C.3    69  ARG69       0.2205
     82  NE         9.7640   29.6500   12.5610 N.pl3  69  ARG69      -0.0865
     83  CZ         9.0880   29.0150   13.5120 C.cat  69  ARG69       0.5346
     84  NH1        9.1010   29.4750   14.7560 N.pl3  69  ARG69       0.1354
     85  NH2        8.3990   27.9150   13.2250 N.pl3  69  ARG69       0.1354
     86  N         18.2540   23.8120    4.1920 N.3   120  VAL120     -0.1245
     87  CA        17.1070   24.0010    5.0630 C.3   120  VAL120      0.1561
     88  C         16.1080   25.0510    4.5810 C.2   120  VAL120      0.2260
     89  O         16.4900   26.1280    4.0950 O.2   120  VAL120     -0.2867
     90  CB        17.5890   24.4020    6.4930 C.3   120  VAL120      0.0252
     91  CG1       18.4330   25.6880    6.4250 C.3   120  VAL120      0.0019
     92  CG2       16.3830   24.5890    7.4370 C.3   120  VAL120      0.0019
     93  N         13.5550   28.0490    4.7960 N.3   122  ILE122     -0.1231
     94  CA        13.5130   29.2600    5.6120 C.3   122  ILE122      0.1692
     95  C         12.3230   30.1320    5.2360 C.2   122  ILE122      0.2592
     96  O         11.6640   29.8900    4.2330 O.2   122  ILE122     -0.2718
     97  CB        14.7930   30.0830    5.4420 C.3   122  ILE122      0.0266
     98  CG1       14.8670   30.6500    4.0240 C.3   122  ILE122      0.0019
     99  CG2       16.0050   29.1930    5.6890 C.3   122  ILE122      0.0020
    100  CD1       15.9340   31.6940    3.8630 C.3   122  ILE122      0.0001
    101  N         12.0500   31.1550    6.0310 N.am  123  SER123     -0.1952
    102  CA        10.9170   32.0330    5.7570 C.3   123  SER123      0.1924
    103  C          9.6480   31.2370    5.4510 C.2   123  SER123      0.2314
    104  O          9.0310   31.4190    4.4110 O.2   123  SER123     -0.2863
    105  CB        11.2300   32.9510    4.5750 C.3   123  SER123      0.2116
    106  OG        12.3810   33.7340    4.8350 O.3   123  SER123     -0.2180
    107  N         18.2000   27.7360    2.2450 N.3   129  MET129     -0.1245
    108  CA        19.6200   28.0570    2.3720 C.3   129  MET129      0.1570
    109  C         20.3840   26.7410    2.3280 C.2   129  MET129      0.2261
    110  O         20.0830   25.8190    3.0940 O.2   129  MET129     -0.2867
    111  CB        19.8730   28.7760    3.7010 C.3   129  MET129      0.0387
    112  CG        21.0770   29.7060    3.7000 C.3   129  MET129      0.0595
    113  SD        20.9690   30.9140    5.0570 S.3   129  MET129     -0.1393
    114  CE        19.7870   32.0590    4.4060 C.3   129  MET129      0.0692
    115  N         25.9200   28.1580    4.4590 N.3   134  LEU134     -0.1245
    116  CA        25.9520   28.2940    5.9050 C.3   134  LEU134      0.1561
    117  C         27.3150   27.9400    6.4790 C.2   134  LEU134      0.2260
    118  O         27.7900   28.5900    7.4090 O.2   134  LEU134     -0.2867
    119  CB        24.8860   27.3960    6.5420 C.3   134  LEU134      0.0270
    120  CG        23.4480   27.9090    6.4440 C.3   134  LEU134      0.0019
    121  CD1       22.4830   26.8750    6.9800 C.3   134  LEU134      0.0001
    122  CD2       23.3320   29.1990    7.2270 C.3   134  LEU134      0.0001
    123  N         25.2020   25.3790   12.3820 N.3   145  MET145     -0.1245
    124  CA        24.2310   24.4420   11.8570 C.3   145  MET145      0.1570
    125  C         24.7120   23.0770   11.3720 C.2   145  MET145      0.2261
    126  O         23.9130   22.1390   11.2810 O.2   145  MET145     -0.2867
    127  CB        23.4320   25.1300   10.7610 C.3   145  MET145      0.0387
    128  CG        22.1490   24.4190   10.4490 C.3   145  MET145      0.0595
    129  SD        20.9760   25.5030    9.6730 S.3   145  MET145     -0.1393
    130  CE        19.4760   24.5690    9.9440 C.3   145  MET145      0.0692
@<TRIPOS>BOND
     1    17    18    1
     2    18    19    1
     3     9    10    1
     4     1     2    1
     5     2     3    1
     6     2     5    1
     7     3     4    2
     8    19    21   am
     9    19    20    2
    10    21    22    1
    11    11    10    1
    12    11    12    2
    13    10    13    1
    14     6     5    1
    15     6     8    1
    16    37    38    1
    17    37    36    1
    18     5     7    1
    19    23    22    1
    20    23    24    2
    21    22    25    1
    22    35    36    1
    23    35    34    1
    24    13    14    1
    25    25    26    1
    26    28    27   ar
    27    30    31    1
    28    26    27    1
    29    31    34    1
    30    31    32    1
    31    27    29   ar
    32    14    16    1
    33    14    15    1
    34    32    33    2
    35   107   108    1
    36   109   108    1
    37   109   110    2
    38   108   111    1
    39   112   111    1
    40   112   113    1
    41   100    98    1
    42    98    97    1
    43    89    88    2
    44    86    87    1
    45    96    95    2
    46   114   113    1
    47   104   103    2
    48   115   116    1
    49   105   106    1
    50   105   102    1
    51    88    87    1
    52    56    54    1
    53    93    94    1
    54    55    54    1
    55    87    90    1
    56    45    43    1
    57    95    94    1
    58    95   101   am
    59    54    53    2
    60    97    94    1
    61    97    99    1
    62   103   102    1
    63    43    44    1
    64    43    40    1
    65   102   101    1
    66   116   117    1
    67   116   119    1
    68    91    90    1
    69   120   119    1
    70   120   121    1
    71   120   122    1
    72   117   118    2
    73    90    92    1
    74    64    62    1
    75    53    52    1
    76    40    39    1
    77    40    41    1
    78    62    61    1
    79    52    51    1
    80    41    42    2
    81    61    63    1
    82    61    58    1
    83    50    51    1
    84    50    47    1
    85    58    57    1
    86    58    59    1
    87   129   130    1
    88   129   128    1
    89    57    48   am
    90    48    47    1
    91    48    49    2
    92    47    46    1
    93   128   127    1
    94   127   124    1
    95    59    60    2
    96   126   125    2
    97   125   124    1
    98   124   123    1
    99    66    65    1
   100    66    67    1
   101    82    81    1
   102    82    83    2
   103    74    73    1
   104    81    80    1
   105    67    69   am
   106    67    68    2
   107    69    70    1
   108    85    83    1
   109    80    79    1
   110    83    84    1
   111    79    76    1
   112    70    73    1
   113    70    71    1
   114    76    75    1
   115    76    77    1
   116    71    72    2
   117    77    78    2
