@<TRIPOS>MOLECULE
tmp/3k8tA01.pdb
 165 160 0 0 0
SMALL
GASTEIGER

@<TRIPOS>ATOM
      1  N         29.9730   53.4370   21.6360 N.3   112  ALA112     -0.1231
      2  CA        28.9610   53.6500   20.6220 C.3   112  ALA112      0.1694
      3  C         28.5460   55.1030   20.5430 C.2   112  ALA112      0.2593
      4  O         28.7920   55.9180   21.4600 O.2   112  ALA112     -0.2718
      5  CB        27.7330   52.7660   20.8670 C.3   112  ALA112      0.0304
      6  N         27.9060   55.3970   19.4110 N.am  113  SER113     -0.1939
      7  CA        27.5260   56.7290   18.9910 C.3   113  SER113      0.2040
      8  C         26.8590   57.6120   20.0310 C.2   113  SER113      0.2485
      9  O         27.2750   58.7700   20.1940 O.2   113  SER113     -0.2729
     10  CB        26.6430   56.6160   17.7420 C.3   113  SER113      0.2129
     11  OG        27.4920   56.2700   16.6520 O.3   113  SER113     -0.2179
     12  N         25.8550   57.1010   20.7400 N.am  114  PRO114     -0.2726
     13  CA        25.1770   57.8840   21.7320 C.3   114  PRO114      0.1402
     14  C         26.1260   58.3320   22.8420 C.2   114  PRO114      0.2269
     15  O         26.0470   59.4560   23.2700 O.2   114  PRO114     -0.2865
     16  CB        24.1280   56.9110   22.2570 C.3   114  PRO114      0.0296
     17  CG        23.8790   56.0580   21.1340 C.3   114  PRO114      0.0237
     18  CD        25.2670   55.7620   20.6590 C.3   114  PRO114      0.0939
     19  N         22.4020   52.8280   23.7260 N.3   128  SER128     -0.1202
     20  CA        22.0520   52.6940   22.3320 C.3   128  SER128      0.2020
     21  C         20.7440   51.9460   22.0790 C.2   128  SER128      0.2619
     22  O         20.1440   52.1070   21.0160 O.2   128  SER128     -0.2717
     23  CB        23.1560   51.9530   21.5570 C.3   128  SER128      0.2103
     24  OG        24.4370   52.5060   21.7650 O.3   128  SER128     -0.2182
     25  N         20.3380   51.0980   23.0140 N.am  129  CYS129     -0.1955
     26  CA        19.2840   50.1070   22.7880 C.3   129  CYS129      0.1843
     27  C         18.2520   50.1760   23.8730 C.2   129  CYS129      0.2625
     28  O         18.6040   50.1790   25.0760 O.2   129  CYS129     -0.2714
     29  CB        19.8570   48.6870   22.8240 C.3   129  CYS129      0.0997
     30  SG        21.2740   48.4860   21.7290 S.3   129  CYS129     -0.0797
     31  N         16.9880   50.1530   23.4470 N.am  130  PHE130     -0.1974
     32  CA        15.8340   50.0050   24.3330 C.3   130  PHE130      0.1639
     33  C         14.9180   48.8710   23.8560 C.2   130  PHE130      0.2290
     34  O         14.5820   48.7860   22.6510 O.2   130  PHE130     -0.2864
     35  CB        15.0620   51.3330   24.3660 C.3   130  PHE130      0.0560
     36  CG        15.8570   52.4450   24.9520 C.ar  130  PHE130     -0.0200
     37  CD1       16.6390   53.2430   24.1530 C.ar  130  PHE130     -0.0042
     38  CD2       15.8640   52.6520   26.3220 C.ar  130  PHE130     -0.0042
     39  CE1       17.4270   54.2730   24.6900 C.ar  130  PHE130     -0.0003
     40  CE2       16.6400   53.6780   26.8890 C.ar  130  PHE130     -0.0003
     41  CZ        17.4260   54.4770   26.1000 C.ar  130  PHE130     -0.0000
     42  N         18.8000   56.3310   20.2590 N.3   157  GLY157     -0.1210
     43  CA        18.6560   54.9800   20.7770 C.3   157  GLY157      0.1956
     44  C         17.4920   54.3130   20.0490 C.2   157  GLY157      0.2612
     45  O         16.3890   54.8550   19.9350 O.2   157  GLY157     -0.2717
     46  N         17.7670   53.1290   19.5500 N.am  158  GLY158     -0.1942
     47  CA        16.7840   52.3750   18.8460 C.3   158  GLY158      0.2014
     48  C         15.9130   51.6340   19.8080 C.2   158  GLY158      0.2639
     49  O         16.2480   51.4370   21.0010 O.2   158  GLY158     -0.2714
     50  N         14.7710   51.2360   19.2700 N.am  159  ILE159     -0.1963
     51  CA        13.7530   50.5270   20.0060 C.3   159  ILE159      0.1727
     52  C         13.5050   49.2310   19.3030 C.2   159  ILE159      0.2616
     53  O         13.3150   49.1840   18.0710 O.2   159  ILE159     -0.2715
     54  CB        12.4420   51.3450   20.0700 C.3   159  ILE159      0.0290
     55  CG1       12.6680   52.6170   20.8580 C.3   159  ILE159      0.0022
     56  CG2       11.3500   50.5480   20.7430 C.3   159  ILE159      0.0023
     57  CD1       11.5650   53.5830   20.8180 C.3   159  ILE159      0.0001
     58  N         13.4800   48.1850   20.1060 N.am  160  GLY160     -0.1955
     59  CA        12.8900   46.9150   19.7410 C.3   160  GLY160      0.1869
     60  C         11.6140   46.8200   20.5390 C.2   160  GLY160      0.2309
     61  O         11.6560   46.9320   21.8150 O.2   160  GLY160     -0.2863
     62  N         14.5130   62.5440   16.9150 N.3   199  GLN199     -0.1245
     63  CA        15.6860   62.5990   17.7770 C.3   199  GLN199      0.1566
     64  C         15.9220   64.0120   18.3480 C.2   199  GLN199      0.2260
     65  O         17.0640   64.4340   18.5710 O.2   199  GLN199     -0.2867
     66  CB        16.9060   62.0620   16.9990 C.3   199  GLN199      0.0367
     67  CG        17.6710   60.9270   17.7100 C.3   199  GLN199      0.0905
     68  CD        18.4850   60.0280   16.7440 C.2   199  GLN199      0.2608
     69  OE1       18.7470   60.3960   15.5860 O.2   199  GLN199     -0.2717
     70  NE2       18.8590   58.8480   17.2210 N.am  199  GLN199     -0.0878
     71  N         14.7920   60.8470   12.8250 N.3   202  PRO202     -0.2102
     72  CA        13.5820   60.0280   12.7110 C.3   202  PRO202      0.1504
     73  C         13.7650   58.6860   13.3800 C.2   202  PRO202      0.2576
     74  O         14.8770   58.1240   13.3880 O.2   202  PRO202     -0.2718
     75  CB        13.4020   59.8530   11.1890 C.3   202  PRO202      0.0282
     76  CG        14.1060   61.0360   10.5790 C.3   202  PRO202      0.0208
     77  CD        15.2490   61.3330   11.5080 C.3   202  PRO202      0.0893
     78  N         12.6860   58.1580   13.9350 N.am  203  GLY203     -0.1943
     79  CA        12.7840   56.9310   14.6960 C.3   203  GLY203      0.2014
     80  C         12.9780   55.7330   13.8110 C.2   203  GLY203      0.2638
     81  O         12.6310   55.7490   12.6400 O.2   203  GLY203     -0.2714
     82  N         13.5740   54.7020   14.3810 N.am  204  ALA204     -0.1977
     83  CA        13.6250   53.3840   13.7650 C.3   204  ALA204      0.1597
     84  C         13.2450   52.4680   14.8810 C.2   204  ALA204      0.2287
     85  O         13.8850   52.4840   15.9230 O.2   204  ALA204     -0.2864
     86  CB        15.0160   53.0440   13.2800 C.3   204  ALA204      0.0319
     87  N         16.2280   43.4800   19.7410 N.3   334  ASN334     -0.1225
     88  CA        16.3090   44.9130   19.6190 C.3   334  ASN334      0.1785
     89  C         16.4110   45.2570   18.1570 C.2   334  ASN334      0.2597
     90  O         16.2900   44.3840   17.2730 O.2   334  ASN334     -0.2718
     91  CB        17.5350   45.4480   20.4130 C.3   334  ASN334      0.1169
     92  CG        18.8820   45.0870   19.7560 C.2   334  ASN334      0.2627
     93  OD1       19.1000   43.9440   19.3540 O.2   334  ASN334     -0.2716
     94  ND2       19.7620   46.0820   19.5870 N.am  334  ASN334     -0.0877
     95  N         16.6250   46.5360   17.8980 N.am  335  LEU335     -0.1966
     96  CA        16.6120   47.0590   16.5380 C.3   335  LEU335      0.1728
     97  C         17.5910   46.3340   15.6130 C.2   335  LEU335      0.2616
     98  O         17.2750   46.1240   14.4500 O.2   335  LEU335     -0.2715
     99  CB        16.8940   48.5630   16.5560 C.3   335  LEU335      0.0311
    100  CG        16.9400   49.2660   15.1870 C.3   335  LEU335      0.0022
    101  CD1       15.6430   49.2160   14.5170 C.3   335  LEU335      0.0001
    102  CD2       17.3200   50.6830   15.3540 C.3   335  LEU335      0.0001
    103  N         18.7730   45.9880   16.1360 N.am  336  CYS336     -0.1968
    104  CA        19.8880   45.3870   15.3640 C.3   336  CYS336      0.1712
    105  C         20.2010   43.9100   15.6980 C.2   336  CYS336      0.2296
    106  O         21.2070   43.3830   15.2520 O.2   336  CYS336     -0.2864
    107  CB        21.1450   46.2430   15.5800 C.3   336  CYS336      0.0983
    108  SG        20.8830   47.9600   15.0750 S.3   336  CYS336     -0.0798
    109  N         20.9880   42.0720   18.4270 N.3   338  GLU338     -0.1245
    110  CA        22.0970   41.5720   19.2300 C.3   338  GLU338      0.1567
    111  C         21.8090   41.5090   20.6990 C.2   338  GLU338      0.2260
    112  O         22.4240   40.7120   21.4120 O.2   338  GLU338     -0.2867
    113  CB        23.3500   42.3990   18.9040 C.3   338  GLU338      0.0388
    114  CG        23.5700   43.7050   19.6520 C.3   338  GLU338      0.1160
    115  CD        22.9800   44.9370   19.0220 C.2   338  GLU338      0.3649
    116  OE1       23.5850   46.0260   19.2400 O.co2 338  GLU338     -0.2457
    117  OE2       21.9130   44.8620   18.3690 O.co2 338  GLU338     -0.2457
    118  N         26.9150   50.0790   24.7580 N.3   353  LEU353     -0.1245
    119  CA        27.7470   49.3230   23.8250 C.3   353  LEU353      0.1561
    120  C         29.0740   49.9870   23.5690 C.2   353  LEU353      0.2260
    121  O         29.1870   51.2320   23.5480 O.2   353  LEU353     -0.2867
    122  CB        27.0600   49.2220   22.4430 C.3   353  LEU353      0.0270
    123  CG        25.5800   48.9320   22.2780 C.3   353  LEU353      0.0019
    124  CD1       25.2500   48.6960   20.7920 C.3   353  LEU353      0.0001
    125  CD2       25.1830   47.8000   22.9920 C.3   353  LEU353      0.0001
    126  N         27.6690   44.0230   18.0470 N.3   509  MET509     -0.1231
    127  CA        26.7090   44.8970   17.3820 C.3   509  MET509      0.1687
    128  C         27.1980   45.2390   15.9850 C.2   509  MET509      0.2434
    129  O         28.2930   44.8420   15.6020 O.2   509  MET509     -0.2733
    130  CB        26.5210   46.1600   18.2370 C.3   509  MET509      0.0400
    131  CG        27.7100   47.1000   18.3040 C.3   509  MET509      0.0596
    132  SD        29.0790   46.4930   19.3060 S.3   509  MET509     -0.1393
    133  CE        30.2760   46.0150   18.1140 C.3   509  MET509      0.0692
    134  N         26.3830   45.9020   15.1740 N.am  510  PRO510     -0.2718
    135  CA        26.8190   46.2400   13.7950 C.3   510  PRO510      0.1535
    136  C         28.0460   47.1840   13.6150 C.2   510  PRO510      0.2599
    137  O         28.7680   47.0710   12.5850 O.2   510  PRO510     -0.2715
    138  CB        25.5490   46.8260   13.1490 C.3   510  PRO510      0.0310
    139  CG        24.4460   46.2790   13.9600 C.3   510  PRO510      0.0237
    140  CD        24.9700   46.2670   15.4210 C.3   510  PRO510      0.0939
    141  N         28.2890   48.0870   14.5680 N.am  511  THR511     -0.1937
    142  CA        29.3470   49.1300   14.4390 C.3   511  THR511      0.2028
    143  C         29.2310   49.9030   13.1380 C.2   511  THR511      0.2642
    144  O         30.2380   50.2180   12.5130 O.2   511  THR511     -0.2714
    145  CB        30.8220   48.5570   14.5330 C.3   511  THR511      0.1808
    146  OG1       31.1710   47.8280   13.3490 O.3   511  THR511     -0.2208
    147  CG2       30.9730   47.5650   15.6000 C.3   511  THR511      0.0379
    148  N         28.0110   50.2010   12.7080 N.am  512  ALA512     -0.1963
    149  CA        27.8170   50.7100   11.3590 C.3   512  ALA512      0.1728
    150  C         28.5100   52.0540   11.1110 C.2   512  ALA512      0.2617
    151  O         28.8540   52.3710    9.9530 O.2   512  ALA512     -0.2715
    152  CB        26.3360   50.8030   11.0480 C.3   512  ALA512      0.0334
    153  N         28.7050   52.8390   12.1740 N.am  513  SER513     -0.1936
    154  CA        29.3720   54.1510   12.0810 C.3   513  SER513      0.2055
    155  C         30.6830   54.2540   12.8890 C.2   513  SER513      0.2643
    156  O         31.5680   55.0280   12.5260 O.2   513  SER513     -0.2714
    157  CB        28.4200   55.2640   12.5460 C.3   513  SER513      0.2130
    158  OG        27.0670   54.9140   12.3150 O.3   513  SER513     -0.2179
    159  N         30.8040   53.5090   13.9820 N.am  514  THR514     -0.1950
    160  CA        32.0320   53.5640   14.7890 C.3   514  THR514      0.1897
    161  C         33.2580   52.9270   14.0660 C.2   514  THR514      0.2313
    162  O         34.3930   53.4320   14.1780 O.2   514  THR514     -0.2863
    163  CB        31.8040   52.9790   16.2110 C.3   514  THR514      0.1794
    164  OG1       30.6880   52.0910   16.2170 O.3   514  THR514     -0.2208
    165  CG2       31.3680   54.0790   17.1970 C.3   514  THR514      0.0378
@<TRIPOS>BOND
     1   151   150    2
     2    76    75    1
     3    76    77    1
     4   152   149    1
     5   150   149    1
     6   150   153   am
     7    75    72    1
     8   149   148    1
     9    77    71    1
    10   154   153    1
    11   154   157    1
    12   154   155    1
    13   158   157    1
    14   144   143    2
    15   156   155    2
    16   137   136    2
    17    81    80    2
    18   148   143   am
    19    72    71    1
    20    72    73    1
    21   155   159   am
    22   143   142    1
    23   138   135    1
    24   138   139    1
    25    86    83    1
    26   146   145    1
    27    73    74    2
    28    73    78   am
    29   136   135    1
    30   136   141   am
    31    83    82    1
    32    83    84    1
    33   135   134    1
    34    80    82   am
    35    80    79    1
    36    78    79    1
    37   139   140    1
    38   159   160    1
    39   161   162    2
    40   161   160    1
    41   142   145    1
    42   142   141    1
    43    98    97    2
    44   101   100    1
    45   145   147    1
    46   160   163    1
    47    84    85    2
    48   108   107    1
    49   134   140    1
    50   134   128   am
    51   100   102    1
    52   100    99    1
    53   106   105    2
    54   104   107    1
    55   104   105    1
    56   104   103    1
    57    69    68    2
    58   129   128    2
    59    97   103   am
    60    97    96    1
    61   128   127    1
    62   163   164    1
    63   163   165    1
    64    96    99    1
    65    96    95    1
    66    11    10    1
    67    68    70   am
    68    68    67    1
    69    62    63    1
    70    66    67    1
    71    66    63    1
    72    90    89    2
    73   127   126    1
    74   127   130    1
    75    10     7    1
    76    63    64    1
    77    95    89   am
    78    53    52    2
    79   133   132    1
    80    89    88    1
    81   130   131    1
    82   131   132    1
    83    64    65    2
    84   117   115   ar
    85   109   110    1
    86    47    46    1
    87    47    48    1
    88   113   110    1
    89   113   114    1
    90     7     6    1
    91     7     8    1
    92   115   116   ar
    93   115   114    1
    94   110   111    1
    95    50    48   am
    96    50    51    1
    97    52    51    1
    98    52    58   am
    99    93    92    2
   100     6     3   am
   101    46    44   am
   102    94    92   am
   103    88    87    1
   104    88    91    1
   105    59    58    1
   106    59    60    1
   107    92    91    1
   108    48    49    2
   109    45    44    2
   110    51    54    1
   111     8     9    2
   112     8    12   am
   113    44    43    1
   114    54    56    1
   115    54    55    1
   116    42    43    1
   117    60    61    2
   118     3     2    1
   119     3     4    2
   120     2     5    1
   121     2     1    1
   122    18    12    1
   123    18    17    1
   124   111   112    2
   125    12    13    1
   126   124   123    1
   127    57    55    1
   128    22    21    2
   129    17    16    1
   130    23    24    1
   131    23    20    1
   132    30    29    1
   133    13    16    1
   134    13    14    1
   135    21    20    1
   136    21    25   am
   137   123   122    1
   138   123   125    1
   139    20    19    1
   140   122   119    1
   141    34    33    2
   142    26    29    1
   143    26    25    1
   144    26    27    1
   145    14    15    2
   146    31    27   am
   147    31    32    1
   148   121   120    2
   149   120   119    1
   150   119   118    1
   151    33    32    1
   152    27    28    2
   153    37    39   ar
   154    37    36   ar
   155    32    35    1
   156    35    36    1
   157    39    41   ar
   158    36    38   ar
   159    41    40   ar
   160    38    40   ar
