@<TRIPOS>MOLECULE
tmp/3k8xC00.pdb
 73 67 0 0 0
SMALL
GASTEIGER

@<TRIPOS>ATOM
      1  N         47.4880  -41.4790   25.3530 N.3   466  PHE466     -0.1241
      2  CA        46.6780  -41.2420   26.5250 C.3   466  PHE466      0.1605
      3  C         45.2690  -41.7790   26.2510 C.2   466  PHE466      0.2264
      4  O         44.7510  -41.6440   25.1460 O.2   466  PHE466     -0.2867
      5  CB        46.6610  -39.7420   26.8640 C.3   466  PHE466      0.0534
      6  CG        47.9570  -39.2360   27.4520 C.ar  466  PHE466     -0.0203
      7  CD1       48.9590  -38.7060   26.6220 C.ar  466  PHE466     -0.0042
      8  CD2       48.1870  -39.3050   28.8350 C.ar  466  PHE466     -0.0042
      9  CE1       50.1790  -38.2390   27.1650 C.ar  466  PHE466     -0.0003
     10  CE2       49.3770  -38.8570   29.3880 C.ar  466  PHE466     -0.0003
     11  CZ        50.3920  -38.3190   28.5500 C.ar  466  PHE466     -0.0000
     12  N         49.0600  -35.9490   32.8240 N.3   481  GLY481     -0.1210
     13  CA        49.9360  -35.9710   31.6750 C.3   481  GLY481      0.1956
     14  C         50.7640  -34.7030   31.6110 C.2   481  GLY481      0.2612
     15  O         51.9460  -34.7430   31.2550 O.2   481  GLY481     -0.2717
     16  N         50.1640  -33.5730   31.9730 N.am  482  SER482     -0.1952
     17  CA        50.9060  -32.3380   32.0590 C.3   482  SER482      0.1924
     18  C         51.9740  -32.3740   33.1510 C.2   482  SER482      0.2314
     19  O         53.0050  -31.7500   32.9820 O.2   482  SER482     -0.2863
     20  CB        49.9540  -31.1510   32.2600 C.3   482  SER482      0.2116
     21  OG        49.0970  -31.0480   31.1140 O.3   482  SER482     -0.2180
     22  N         55.3660  -33.4790   31.6540 N.3   485  VAL485     -0.1245
     23  CA        56.0730  -32.3730   31.0140 C.3   485  VAL485      0.1561
     24  C         56.8210  -31.5220   32.0320 C.2   485  VAL485      0.2260
     25  O         58.0320  -31.2670   31.8660 O.2   485  VAL485     -0.2867
     26  CB        55.1010  -31.5030   30.1370 C.3   485  VAL485      0.0252
     27  CG1       55.8140  -30.3410   29.4700 C.3   485  VAL485      0.0019
     28  CG2       54.4240  -32.3850   29.0600 C.3   485  VAL485      0.0019
     29  N         51.1730  -40.1770   18.7490 N.3   507  GLY507     -0.1210
     30  CA        50.4440  -38.9890   19.1520 C.3   507  GLY507      0.1956
     31  C         51.0030  -38.3390   20.4050 C.2   507  GLY507      0.2612
     32  O         52.2360  -38.2180   20.5780 O.2   507  GLY507     -0.2717
     33  N         50.0830  -37.9390   21.2870 N.am  508  GLY508     -0.1956
     34  CA        50.4140  -37.4160   22.6100 C.3   508  GLY508      0.1869
     35  C         51.4650  -38.1710   23.4010 C.2   508  GLY508      0.2309
     36  O         52.1860  -37.5790   24.2160 O.2   508  GLY508     -0.2863
     37  N         54.6980  -36.7400   22.3650 N.3   511  VAL511     -0.1231
     38  CA        54.7730  -35.3550   22.7380 C.3   511  VAL511      0.1692
     39  C         55.3700  -35.1950   24.1340 C.2   511  VAL511      0.2591
     40  O         56.3370  -34.4540   24.3030 O.2   511  VAL511     -0.2718
     41  CB        53.3860  -34.6770   22.6250 C.3   511  VAL511      0.0266
     42  CG1       53.4370  -33.2470   23.1700 C.3   511  VAL511      0.0020
     43  CG2       52.9770  -34.6700   21.1700 C.3   511  VAL511      0.0020
     44  N         54.8290  -35.8980   25.1210 N.am  512  VAL512     -0.1980
     45  CA        55.2330  -35.6660   26.4770 C.3   512  VAL512      0.1595
     46  C         56.6400  -36.1460   26.7720 C.2   512  VAL512      0.2287
     47  O         57.1290  -35.8580   27.8660 O.2   512  VAL512     -0.2864
     48  CB        54.2380  -36.2480   27.5480 C.3   512  VAL512      0.0276
     49  CG1       52.8690  -35.6530   27.3480 C.3   512  VAL512      0.0022
     50  CG2       54.1810  -37.7440   27.4930 C.3   512  VAL512      0.0022
     51  N         51.7700  -39.7260   14.2350 N.3   534  VAL534     -0.1231
     52  CA        50.6420  -39.1600   14.9370 C.3   534  VAL534      0.1692
     53  C         49.5820  -40.2160   15.2050 C.2   534  VAL534      0.2591
     54  O         49.0120  -40.2420   16.2920 O.2   534  VAL534     -0.2718
     55  CB        50.0470  -37.9190   14.2480 C.3   534  VAL534      0.0266
     56  CG1       48.9790  -37.3070   15.1460 C.3   534  VAL534      0.0020
     57  CG2       51.1470  -36.8820   13.9320 C.3   534  VAL534      0.0020
     58  N         49.3550  -41.1090   14.2390 N.am  535  LEU535     -0.1980
     59  CA        48.3320  -42.1510   14.3780 C.3   535  LEU535      0.1596
     60  C         48.8790  -43.5100   14.0210 C.2   535  LEU535      0.2287
     61  O         49.7940  -43.6050   13.2020 O.2   535  LEU535     -0.2864
     62  CB        47.1290  -41.8550   13.4560 C.3   535  LEU535      0.0297
     63  CG        46.1960  -40.6680   13.7480 C.3   535  LEU535      0.0022
     64  CD1       45.0710  -40.6570   12.7200 C.3   535  LEU535      0.0001
     65  CD2       45.6050  -40.7040   15.1610 C.3   535  LEU535      0.0001
     66  N         41.2270  -41.8430    7.5280 N.3   543  ILE543     -0.1245
     67  CA        41.1670  -40.4020    7.2920 C.3   543  ILE543      0.1561
     68  C         41.8160  -40.0500    5.9660 C.2   543  ILE543      0.2260
     69  O         41.3440  -39.1670    5.2410 O.2   543  ILE543     -0.2867
     70  CB        41.8730  -39.5880    8.4230 C.3   543  ILE543      0.0252
     71  CG1       41.1040  -39.6840    9.7380 C.3   543  ILE543      0.0019
     72  CG2       42.0370  -38.1130    8.0400 C.3   543  ILE543      0.0019
     73  CD1       41.9210  -39.2070   10.9380 C.3   543  ILE543      0.0001
@<TRIPOS>BOND
     1    69    68    2
     2    68    67    1
     3    67    66    1
     4    67    70    1
     5    72    70    1
     6    70    71    1
     7    71    73    1
     8    64    63    1
     9    61    60    2
    10    62    63    1
    11    62    59    1
    12    63    65    1
    13    57    55    1
    14    60    59    1
    15    51    52    1
    16    58    59    1
    17    58    53   am
    18    55    52    1
    19    55    56    1
    20    52    53    1
    21    53    54    2
    22    29    30    1
    23    30    31    1
    24    31    32    2
    25    31    33   am
    26    43    41    1
    27    33    34    1
    28    37    38    1
    29    34    35    1
    30    41    38    1
    31    41    42    1
    32    38    39    1
    33    35    36    2
    34    39    40    2
    35    39    44   am
    36    44    45    1
    37     4     3    2
    38     1     2    1
    39     3     2    1
    40    45    46    1
    41    45    48    1
    42     2     5    1
    43     7     9   ar
    44     7     6   ar
    45    46    47    2
    46     5     6    1
    47     9    11   ar
    48    49    48    1
    49     6     8   ar
    50    50    48    1
    51    11    10   ar
    52     8    10   ar
    53    28    26    1
    54    27    26    1
    55    26    23    1
    56    23    22    1
    57    23    24    1
    58    21    20    1
    59    15    14    2
    60    14    13    1
    61    14    16   am
    62    13    12    1
    63    25    24    2
    64    16    17    1
    65    17    20    1
    66    17    18    1
    67    19    18    2
