@<TRIPOS>MOLECULE
tmp/3k8xA00.pdb
 109 100 0 0 0
SMALL
GASTEIGER

@<TRIPOS>ATOM
      1  N          8.2710   25.1130  -25.8750 N.3   146  SER146     -0.1202
      2  CA         7.2390   26.1450  -26.0620 C.3   146  SER146      0.2020
      3  C          5.8510   25.6220  -25.7190 C.2   146  SER146      0.2619
      4  O          4.8590   26.1680  -26.2120 O.2   146  SER146     -0.2717
      5  CB         7.2040   26.5970  -27.5190 C.3   146  SER146      0.2103
      6  OG         8.5190   26.8410  -27.9640 O.3   146  SER146     -0.2182
      7  N          5.7860   24.5480  -24.9250 N.am  147  GLY147     -0.1942
      8  CA         4.5170   23.9760  -24.4730 C.3   147  GLY147      0.2014
      9  C          3.7900   23.1520  -25.5290 C.2   147  GLY147      0.2638
     10  O          4.4060   22.6500  -26.5080 O.2   147  GLY147     -0.2714
     11  N          2.4810   22.9860  -25.3160 N.am  148  ALA148     -0.1977
     12  CA         1.6600   22.1630  -26.1940 C.3   148  ALA148      0.1597
     13  C          1.6740   22.7080  -27.6300 C.2   148  ALA148      0.2287
     14  O          1.6290   23.9210  -27.8520 O.2   148  ALA148     -0.2864
     15  CB         0.2240   22.0700  -25.6640 C.3   148  ALA148      0.0319
     16  N          0.1130   23.6610  -31.1560 N.3   150  ILE150     -0.1245
     17  CA        -1.1670   24.2400  -31.5610 C.3   150  ILE150      0.1561
     18  C         -1.1990   24.3330  -33.0650 C.2   150  ILE150      0.2260
     19  O         -0.1450   24.5000  -33.7180 O.2   150  ILE150     -0.2867
     20  CB        -1.3650   25.6690  -31.0440 C.3   150  ILE150      0.0252
     21  CG1       -0.2790   26.5910  -31.5990 C.3   150  ILE150      0.0019
     22  CG2       -1.3610   25.7240  -29.5250 C.3   150  ILE150      0.0019
     23  CD1       -0.7560   27.9970  -31.7910 C.3   150  ILE150      0.0001
     24  N         -3.8910   18.1530  -25.5490 N.3   226  LEU226     -0.1245
     25  CA        -4.3180   18.2770  -24.1550 C.3   226  LEU226      0.1561
     26  C         -4.2860   16.9120  -23.4620 C.2   226  LEU226      0.2260
     27  O         -3.8140   16.8010  -22.3100 O.2   226  LEU226     -0.2867
     28  CB        -5.7000   18.9300  -24.0610 C.3   226  LEU226      0.0270
     29  CG        -5.7910   20.3310  -24.6760 C.3   226  LEU226      0.0019
     30  CD1       -7.2020   20.8550  -24.6220 C.3   226  LEU226      0.0001
     31  CD2       -4.8470   21.2970  -23.9790 C.3   226  LEU226      0.0001
     32  N         -0.6840   15.8350  -22.8310 N.3   229  SER229     -0.1202
     33  CA        -0.1340   16.5670  -21.6960 C.3   229  SER229      0.2020
     34  C         -0.6220   16.0520  -20.3550 C.2   229  SER229      0.2619
     35  O          0.1380   16.0400  -19.3810 O.2   229  SER229     -0.2717
     36  CB        -0.4680   18.0520  -21.8000 C.3   229  SER229      0.2103
     37  OG         0.3630   18.7100  -22.7490 O.3   229  SER229     -0.2182
     38  N         -1.8960   15.6460  -20.2810 N.am  230  GLY230     -0.1956
     39  CA        -2.4300   15.1280  -19.0300 C.3   230  GLY230      0.1869
     40  C         -1.7570   13.8050  -18.7420 C.2   230  GLY230      0.2309
     41  O         -1.4240   13.4950  -17.6120 O.2   230  GLY230     -0.2863
     42  N          1.6150   14.5850  -17.3460 N.3   233  ALA233     -0.1245
     43  CA         1.4820   15.2320  -16.0190 C.3   233  ALA233      0.1562
     44  C          1.2510   14.1610  -14.9500 C.2   233  ALA233      0.2260
     45  O          1.9300   14.1230  -13.9110 O.2   233  ALA233     -0.2867
     46  CB         0.3670   16.2380  -16.0200 C.3   233  ALA233      0.0290
     47  N          7.4800   26.1600  -21.0490 N.3   254  VAL254     -0.1231
     48  CA         6.1690   26.7830  -21.2050 C.3   254  VAL254      0.1692
     49  C          4.9870   25.8070  -21.0220 C.2   254  VAL254      0.2593
     50  O          4.9890   24.7060  -21.5610 O.2   254  VAL254     -0.2718
     51  CB         6.0620   27.4740  -22.6310 C.3   254  VAL254      0.0266
     52  CG1        4.7310   28.2440  -22.7750 C.3   254  VAL254      0.0020
     53  CG2        7.2170   28.4480  -22.8500 C.3   254  VAL254      0.0020
     54  N          3.9600   26.2370  -20.2970 N.am  255  GLY255     -0.1942
     55  CA         2.6980   25.4850  -20.2060 C.3   255  GLY255      0.2014
     56  C          2.8380   24.1150  -19.5700 C.2   255  GLY255      0.2638
     57  O          3.2340   24.0130  -18.4180 O.2   255  GLY255     -0.2714
     58  N          2.5350   23.0510  -20.3050 N.am  256  ILE256     -0.1977
     59  CA         2.7760   21.7200  -19.7620 C.3   256  ILE256      0.1596
     60  C          4.2540   21.6030  -19.2980 C.2   256  ILE256      0.2287
     61  O          4.5540   20.9550  -18.2730 O.2   256  ILE256     -0.2864
     62  CB         2.4170   20.6010  -20.7760 C.3   256  ILE256      0.0276
     63  CG1        2.7210   19.2040  -20.1990 C.3   256  ILE256      0.0022
     64  CG2        3.1390   20.8090  -22.1310 C.3   256  ILE256      0.0022
     65  CD1        2.0640   18.9260  -18.8370 C.3   256  ILE256      0.0001
     66  N          4.5290   23.0390  -15.8130 N.3   259  TYR259     -0.1241
     67  CA         3.9600   22.0860  -14.8380 C.3   259  TYR259      0.1605
     68  C          4.8400   20.8690  -14.6100 C.2   259  TYR259      0.2264
     69  O          4.9900   20.4200  -13.4650 O.2   259  TYR259     -0.2867
     70  CB         2.4970   21.6960  -15.1750 C.3   259  TYR259      0.0534
     71  CG         1.5520   22.6920  -14.5570 C.ar  259  TYR259     -0.0201
     72  CD1        1.1680   23.8330  -15.2570 C.ar  259  TYR259     -0.0009
     73  CD2        1.1090   22.5470  -13.2320 C.ar  259  TYR259     -0.0009
     74  CE1        0.3350   24.7890  -14.6780 C.ar  259  TYR259      0.0417
     75  CE2        0.2710   23.5090  -12.6310 C.ar  259  TYR259      0.0417
     76  CZ        -0.1170   24.6250  -13.3690 C.ar  259  TYR259      0.1957
     77  OH        -0.9320   25.6080  -12.8250 O.3   259  TYR259     -0.2866
     78  N          5.9100   19.2540  -11.1890 N.3   263  LEU263     -0.1245
     79  CA         5.4800   17.8880  -10.8690 C.3   263  LEU263      0.1561
     80  C          6.6630   16.9650  -10.5870 C.2   263  LEU263      0.2260
     81  O          6.5380   16.0030   -9.8000 O.2   263  LEU263     -0.2867
     82  CB         4.5990   17.3100  -12.0160 C.3   263  LEU263      0.0270
     83  CG         3.1840   17.9010  -12.1190 C.3   263  LEU263      0.0019
     84  CD1        2.6180   17.7960  -13.5440 C.3   263  LEU263      0.0001
     85  CD2        2.2340   17.2370  -11.1010 C.3   263  LEU263      0.0001
     86  N          3.5850   30.1120  -17.8520 N.3   277  LEU277     -0.1231
     87  CA         2.3060   29.5900  -18.3710 C.3   277  LEU277      0.1693
     88  C          1.9820   30.1720  -19.7300 C.2   277  LEU277      0.2593
     89  O          1.7720   29.4260  -20.6560 O.2   277  LEU277     -0.2718
     90  CB         1.1460   29.7940  -17.3900 C.3   277  LEU277      0.0284
     91  CG         1.4000   29.0650  -16.0670 C.3   277  LEU277      0.0019
     92  CD1        0.1700   29.1010  -15.1660 C.3   277  LEU277      0.0001
     93  CD2        1.8310   27.6240  -16.3490 C.3   277  LEU277      0.0001
     94  N          1.9400   31.4940  -19.8490 N.am  278  THR278     -0.1939
     95  CA         1.9600   32.1450  -21.1680 C.3   278  THR278      0.2028
     96  C          2.9770   33.2610  -21.2230 C.2   278  THR278      0.2642
     97  O          3.4090   33.7640  -20.1890 O.2   278  THR278     -0.2714
     98  CB         0.6130   32.7960  -21.5380 C.3   278  THR278      0.1808
     99  OG1       -0.0040   33.3250  -20.3440 O.3   278  THR278     -0.2208
    100  CG2       -0.2890   31.7730  -22.2020 C.3   278  THR278      0.0379
    101  N          3.3230   33.6600  -22.4420 N.am  279  GLY279     -0.1954
    102  CA         4.2040   34.7890  -22.6750 C.3   279  GLY279      0.1869
    103  C          3.5880   36.1130  -22.2960 C.2   279  GLY279      0.2309
    104  O          2.3640   36.2620  -22.2280 O.2   279  GLY279     -0.2863
    105  N          1.0810   37.5990  -25.1250 N.3   282  ALA282     -0.1245
    106  CA        -0.2490   36.9890  -25.0230 C.3   282  ALA282      0.1562
    107  C         -1.0530   37.4640  -23.8060 C.2   282  ALA282      0.2260
    108  O         -2.2730   37.6580  -23.8940 O.2   282  ALA282     -0.2867
    109  CB        -0.1520   35.4600  -25.0610 C.3   282  ALA282      0.0290
@<TRIPOS>BOND
     1    19    18    2
     2    18    17    1
     3    23    21    1
     4    21    20    1
     5    17    16    1
     6    17    20    1
     7    20    22    1
     8     6     5    1
     9    14    13    2
    10    13    12    1
    11     5     2    1
    12    10     9    2
    13     4     3    2
    14    12    15    1
    15    12    11    1
    16     2     1    1
    17     2     3    1
    18     3     7   am
    19    24    25    1
    20     9    11   am
    21     9     8    1
    22   105   106    1
    23   109   106    1
    24   106   107    1
    25     7     8    1
    26    29    30    1
    27    29    28    1
    28    29    31    1
    29    25    28    1
    30    25    26    1
    31   108   107    2
    32    26    27    2
    33    53    51    1
    34    32    33    1
    35    52    51    1
    36    37    36    1
    37   102   101    1
    38   102   103    1
    39    51    48    1
    40   101    96   am
    41   103   104    2
    42   100    98    1
    43    64    62    1
    44    36    33    1
    45    33    34    1
    46    50    49    2
    47    98    95    1
    48    98    99    1
    49    96    95    1
    50    96    97    2
    51    48    47    1
    52    48    49    1
    53    95    94    1
    54    49    54   am
    55    62    63    1
    56    62    59    1
    57    89    88    2
    58    34    38   am
    59    34    35    2
    60    58    59    1
    61    58    56   am
    62    54    55    1
    63    38    39    1
    64    55    56    1
    65    63    65    1
    66    94    88   am
    67    59    60    1
    68    88    87    1
    69    56    57    2
    70    60    61    2
    71    39    40    1
    72    40    41    2
    73    87    86    1
    74    87    90    1
    75    90    91    1
    76    42    43    1
    77    93    91    1
    78    91    92    1
    79    46    43    1
    80    43    44    1
    81    66    67    1
    82    72    74   ar
    83    72    71   ar
    84    70    67    1
    85    70    71    1
    86    44    45    2
    87    67    68    1
    88    74    76   ar
    89    68    69    2
    90    71    73   ar
    91    84    83    1
    92    76    77    1
    93    76    75   ar
    94    73    75   ar
    95    83    82    1
    96    83    85    1
    97    82    79    1
    98    78    79    1
    99    79    80    1
   100    80    81    2
