@<TRIPOS>MOLECULE
tmp/3k98B00.pdb
 128 117 0 0 0
SMALL
GASTEIGER

@<TRIPOS>ATOM
      1  N         31.3540    8.2710   17.1260 N.3    40  LEU40      -0.1245
      2  CA        31.0940    7.2880   18.1640 C.3    40  LEU40       0.1561
      3  C         29.6080    6.9700   18.2340 C.2    40  LEU40       0.2260
      4  O         29.2220    5.8430   18.5330 O.2    40  LEU40      -0.2867
      5  CB        31.6050    7.7920   19.5200 C.3    40  LEU40       0.0270
      6  CG        33.1330    7.9780   19.6120 C.3    40  LEU40       0.0019
      7  CD1       33.5260    8.5620   20.9650 C.3    40  LEU40       0.0001
      8  CD2       33.8280    6.6460   19.3980 C.3    40  LEU40       0.0001
      9  N         28.7140    4.5270   15.2330 N.3    43  ASN43      -0.1225
     10  CA        29.0730    3.1600   15.5970 C.3    43  ASN43       0.1785
     11  C         28.0510    2.5540   16.5450 C.2    43  ASN43       0.2597
     12  O         27.6880    1.3840   16.4100 O.2    43  ASN43      -0.2718
     13  CB        30.4510    3.1220   16.2610 C.3    43  ASN43       0.1169
     14  CG        31.5660    3.5000   15.3160 C.2    43  ASN43       0.2627
     15  OD1       31.3300    3.7970   14.1440 O.2    43  ASN43      -0.2716
     16  ND2       32.7980    3.4920   15.8240 N.am   43  ASN43      -0.0877
     17  N         27.5940    3.3500   17.5060 N.am   44  SER44      -0.1952
     18  CA        26.5960    2.8820   18.4600 C.3    44  SER44       0.1924
     19  C         25.2850    2.5870   17.7470 C.2    44  SER44       0.2314
     20  O         24.5510    1.6770   18.1340 O.2    44  SER44      -0.2863
     21  CB        26.3540    3.9300   19.5490 C.3    44  SER44       0.2116
     22  OG        27.5200    4.1410   20.3210 O.3    44  SER44      -0.2180
     23  N         24.9500    1.6770   14.4630 N.3    46  ASP46      -0.1225
     24  CA        25.1440    0.4740   13.6670 C.3    46  ASP46       0.1805
     25  C         25.0430   -0.7560   14.5610 C.2    46  ASP46       0.2597
     26  O         24.4250   -1.7520   14.1940 O.2    46  ASP46      -0.2718
     27  CB        26.5140    0.5110   12.9800 C.3    46  ASP46       0.1424
     28  CG        26.6770    1.7050   12.0500 C.2    46  ASP46       0.3668
     29  OD1       25.6630    2.3700   11.7440 O.co2  46  ASP46      -0.2456
     30  OD2       27.8230    1.9790   11.6250 O.co2  46  ASP46      -0.2456
     31  N         25.6430   -0.6760   15.7450 N.am   47  ALA47      -0.1979
     32  CA        25.6240   -1.7840   16.6980 C.3    47  ALA47       0.1597
     33  C         24.2190   -2.0060   17.2450 C.2    47  ALA47       0.2287
     34  O         23.8540   -3.1250   17.6140 O.2    47  ALA47      -0.2864
     35  CB        26.5740   -1.5000   17.8350 C.3    47  ALA47       0.0319
     36  N         22.2170   -3.7760   14.5550 N.3    50  LYS50      -0.1245
     37  CA        22.6220   -5.1620   14.3940 C.3    50  LYS50       0.1561
     38  C         21.8260   -6.0560   15.3450 C.2    50  LYS50       0.2260
     39  O         21.2460   -7.0620   14.9270 O.2    50  LYS50      -0.2867
     40  CB        24.1230   -5.2960   14.6660 C.3    50  LYS50       0.0271
     41  CG        24.8470   -6.2700   13.7500 C.3    50  LYS50       0.0035
     42  CD        24.4940   -7.7100   14.0730 C.3    50  LYS50       0.0206
     43  CE        25.5640   -8.6750   13.5660 C.3    50  LYS50       0.1093
     44  NZ        25.7710   -8.5840   12.0950 N.3    50  LYS50      -0.1314
     45  N         30.2330    7.3030   26.4300 N.3    83  ILE83      -0.1245
     46  CA        29.1600    7.0370   25.4820 C.3    83  ILE83       0.1561
     47  C         28.7830    5.5860   25.6530 C.2    83  ILE83       0.2260
     48  O         29.5980    4.7030   25.4120 O.2    83  ILE83      -0.2867
     49  CB        29.6150    7.2220   24.0180 C.3    83  ILE83       0.0252
     50  CG1       30.1270    8.6410   23.7940 C.3    83  ILE83       0.0019
     51  CG2       28.4730    6.8930   23.0840 C.3    83  ILE83       0.0019
     52  CD1       31.4980    8.8950   24.3840 C.3    83  ILE83       0.0001
     53  N         25.9590    2.4730   24.7790 N.3    85  ASP85      -0.1239
     54  CA        24.8120    2.0030   24.0240 C.3    85  ASP85       0.1674
     55  C         24.4740    0.5810   24.4090 C.2    85  ASP85       0.2266
     56  O         25.2570   -0.0990   25.0620 O.2    85  ASP85      -0.2867
     57  CB        25.0700    2.0920   22.5140 C.3    85  ASP85       0.1410
     58  CG        26.1600    1.1500   22.0470 C.2    85  ASP85       0.3668
     59  OD1       25.9660   -0.0850   22.1230 O.co2  85  ASP85      -0.2456
     60  OD2       27.2130    1.6530   21.6020 O.co2  85  ASP85      -0.2456
     61  N         24.7270   -4.5600   20.0220 N.3    88  ILE88      -0.1231
     62  CA        24.9850   -5.9920   20.0550 C.3    88  ILE88       0.1692
     63  C         26.3190   -6.3200   20.7440 C.2    88  ILE88       0.2593
     64  O         26.5630   -7.4590   21.1320 O.2    88  ILE88      -0.2718
     65  CB        24.9770   -6.5700   18.6120 C.3    88  ILE88       0.0266
     66  CG1       24.9210   -8.0990   18.6530 C.3    88  ILE88       0.0019
     67  CG2       26.2160   -6.1040   17.8460 C.3    88  ILE88       0.0020
     68  CD1       24.6080   -8.7260   17.3120 C.3    88  ILE88       0.0001
     69  N         27.1790   -5.3170   20.9000 N.am   89  GLY89      -0.1942
     70  CA        28.4430   -5.5320   21.5850 C.3    89  GLY89       0.2014
     71  C         29.4880   -6.2540   20.7460 C.2    89  GLY89       0.2638
     72  O         29.2440   -6.6010   19.5870 O.2    89  GLY89      -0.2714
     73  N         30.6590   -6.4790   21.3360 N.am   90  MET90      -0.1976
     74  CA        31.7630   -7.1300   20.6360 C.3    90  MET90       0.1605
     75  C         32.3760   -8.2470   21.4820 C.2    90  MET90       0.2287
     76  O         32.4310   -8.1500   22.7140 O.2    90  MET90      -0.2864
     77  CB        32.8490   -6.1070   20.2890 C.3    90  MET90       0.0413
     78  CG        32.3730   -4.9570   19.4140 C.3    90  MET90       0.0598
     79  SD        33.6110   -3.6440   19.2600 S.3    90  MET90      -0.1393
     80  CE        33.3840   -2.7690   20.8260 C.3    90  MET90       0.0692
     81  N         38.7840   -5.7000   15.0390 N.3    98  ASN98      -0.1225
     82  CA        38.1230   -4.4840   14.5780 C.3    98  ASN98       0.1785
     83  C         38.6370   -3.1940   15.2240 C.2    98  ASN98       0.2597
     84  O         38.3980   -2.1050   14.7090 O.2    98  ASN98      -0.2718
     85  CB        36.6090   -4.5990   14.7980 C.3    98  ASN98       0.1169
     86  CG        36.0090   -5.8310   14.1270 C.2    98  ASN98       0.2627
     87  OD1       36.6130   -6.4270   13.2350 O.2    98  ASN98      -0.2716
     88  ND2       34.8130   -6.2150   14.5570 N.am   98  ASN98      -0.0877
     89  N         39.3360   -3.3040   16.3490 N.am   99  LEU99      -0.1980
     90  CA        39.8680   -2.1130   17.0130 C.3    99  LEU99       0.1596
     91  C         41.3810   -2.1080   17.1440 C.2    99  LEU99       0.2287
     92  O         41.8990   -1.7700   18.2070 O.2    99  LEU99      -0.2864
     93  CB        39.2720   -1.9400   18.4170 C.3    99  LEU99       0.0297
     94  CG        37.9210   -1.2450   18.6250 C.3    99  LEU99       0.0022
     95  CD1       37.7850   -0.8830   20.1020 C.3    99  LEU99       0.0001
     96  CD2       37.8170    0.0200   17.7770 C.3    99  LEU99       0.0001
     97  N         36.2180    5.7180   14.7050 N.3   130  PHE130     -0.1241
     98  CA        36.4790    5.5380   16.1270 C.3   130  PHE130      0.1605
     99  C         37.7370    6.2670   16.5740 C.2   130  PHE130      0.2264
    100  O         37.8030    6.7840   17.6890 O.2   130  PHE130     -0.2867
    101  CB        36.6290    4.0510   16.4560 C.3   130  PHE130      0.0534
    102  CG        37.2680    3.7890   17.7930 C.ar  130  PHE130     -0.0203
    103  CD1       36.5370    3.9220   18.9660 C.ar  130  PHE130     -0.0042
    104  CD2       38.6080    3.4230   17.8790 C.ar  130  PHE130     -0.0042
    105  CE1       37.1270    3.6950   20.2020 C.ar  130  PHE130     -0.0003
    106  CE2       39.2050    3.1940   19.1120 C.ar  130  PHE130     -0.0003
    107  CZ        38.4610    3.3310   20.2770 C.ar  130  PHE130     -0.0000
    108  N         37.3900    1.0540   26.3160 N.3   142  VAL142     -0.1245
    109  CA        36.1780    0.5250   25.7320 C.3   142  VAL142      0.1561
    110  C         35.7580   -0.7070   26.4920 C.2   142  VAL142      0.2260
    111  O         36.5030   -1.6840   26.5890 O.2   142  VAL142     -0.2867
    112  CB        36.3610    0.1830   24.2340 C.3   142  VAL142      0.0252
    113  CG1       35.0480   -0.3770   23.6550 C.3   142  VAL142      0.0019
    114  CG2       36.7660    1.4340   23.4720 C.3   142  VAL142      0.0019
    115  N         28.0800   -1.5780   24.4100 N.3   176  THR176     -0.1218
    116  CA        29.4440   -1.0830   24.4220 C.3   176  THR176      0.1862
    117  C         29.5160    0.2890   25.0920 C.2   176  THR176      0.2287
    118  O         28.7200    1.1870   24.8010 O.2   176  THR176     -0.2866
    119  CB        30.0050   -0.9940   22.9800 C.3   176  THR176      0.1770
    120  OG1       30.2050   -2.3150   22.4620 O.3   176  THR176     -0.2211
    121  CG2       31.3180   -0.2350   22.9570 C.3   176  THR176      0.0375
    122  N         32.0210    3.4500   25.7740 N.3   178  VAL178     -0.1245
    123  CA        33.2740    4.1070   25.4380 C.3   178  VAL178      0.1561
    124  C         33.5810    5.2470   26.4060 C.2   178  VAL178      0.2260
    125  O         32.8020    6.1850   26.5410 O.2   178  VAL178     -0.2867
    126  CB        33.2310    4.6630   24.0140 C.3   178  VAL178      0.0252
    127  CG1       34.5730    5.2620   23.6570 C.3   178  VAL178      0.0019
    128  CG2       32.8770    3.5590   23.0420 C.3   178  VAL178      0.0019
@<TRIPOS>BOND
     1    30    28   ar
     2    29    28   ar
     3    28    27    1
     4    44    43    1
     5    27    24    1
     6    87    86    2
     7    43    42    1
     8    24    23    1
     9    24    25    1
    10    41    42    1
    11    41    40    1
    12    86    88   am
    13    86    85    1
    14    15    14    2
    15    26    25    2
    16    37    36    1
    17    37    40    1
    18    37    38    1
    19    25    31   am
    20    82    85    1
    21    82    81    1
    22    82    83    1
    23    97    98    1
    24    84    83    2
    25    39    38    2
    26    83    89   am
    27     9    10    1
    28    14    16   am
    29    14    13    1
    30    10    13    1
    31    10    11    1
    32    31    32    1
    33    98   101    1
    34    98    99    1
    35    89    90    1
    36    12    11    2
    37   101   102    1
    38    11    17   am
    39    99   100    2
    40    32    33    1
    41    32    35    1
    42    90    91    1
    43    90    93    1
    44     1     2    1
    45    91    92    2
    46    33    34    2
    47    68    66    1
    48    17    18    1
    49    19    20    2
    50    19    18    1
    51    96    94    1
    52   102   104   ar
    53   102   103   ar
    54    67    65    1
    55   104   106   ar
    56     2     3    1
    57     2     5    1
    58     3     4    2
    59    93    94    1
    60    18    21    1
    61    65    66    1
    62    65    62    1
    63    94    95    1
    64   103   105   ar
    65   106   107   ar
    66    79    78    1
    67    79    80    1
    68     8     6    1
    69    78    77    1
    70     5     6    1
    71    21    22    1
    72    72    71    2
    73     6     7    1
    74    61    62    1
    75    62    63    1
    76   105   107   ar
    77    77    74    1
    78    74    73    1
    79    74    75    1
    80    63    69   am
    81    63    64    2
    82    71    73   am
    83    71    70    1
    84    69    70    1
    85    75    76    2
    86    60    58   ar
    87    58    59   ar
    88    58    57    1
    89   120   119    1
    90    57    54    1
    91   121   119    1
    92   119   116    1
    93   128   126    1
    94    51    49    1
    95   114   112    1
    96   113   112    1
    97   127   126    1
    98    50    49    1
    99    50    52    1
   100   126   123    1
   101    49    46    1
   102    54    55    1
   103    54    53    1
   104   112   109    1
   105    55    56    2
   106   115   116    1
   107   116   117    1
   108   118   117    2
   109    48    47    2
   110   123   122    1
   111   123   124    1
   112    46    47    1
   113    46    45    1
   114   109   108    1
   115   109   110    1
   116   124   125    2
   117   110   111    2
