@<TRIPOS>MOLECULE
tmp/3k99A00.pdb
 124 114 0 0 0
SMALL
GASTEIGER

@<TRIPOS>ATOM
      1  N         46.4730   61.8840   66.2070 N.3    40  LEU40      -0.1245
      2  CA        46.6670   63.1080   66.9720 C.3    40  LEU40       0.1561
      3  C         48.1310   63.5540   66.9320 C.2    40  LEU40       0.2260
      4  O         48.4250   64.7340   66.7220 O.2    40  LEU40      -0.2867
      5  CB        46.2020   62.9040   68.4180 C.3    40  LEU40       0.0270
      6  CG        44.6840   62.7140   68.5260 C.3    40  LEU40       0.0019
      7  CD1       44.2790   62.4600   69.9740 C.3    40  LEU40       0.0001
      8  CD2       43.9900   63.9510   67.9760 C.3    40  LEU40       0.0001
      9  N         48.8880   64.9900   63.5800 N.3    43  ASN43      -0.1225
     10  CA        48.4240   66.3690   63.5830 C.3    43  ASN43       0.1785
     11  C         49.4260   67.2890   64.2870 C.2    43  ASN43       0.2597
     12  O         49.7580   68.3570   63.7730 O.2    43  ASN43      -0.2718
     13  CB        47.0530   66.4660   64.2560 C.3    43  ASN43       0.1169
     14  CG        45.9110   66.0320   63.3390 C.2    43  ASN43       0.2627
     15  OD1       46.1380   65.5630   62.2240 O.2    43  ASN43      -0.2716
     16  ND2       44.6750   66.1920   63.8110 N.am   43  ASN43      -0.0877
     17  N         49.9160   66.8710   65.4530 N.am   44  SER44      -0.1952
     18  CA        50.9020   67.6640   66.1970 C.3    44  SER44       0.1924
     19  C         52.1780   67.8800   65.3780 C.2    44  SER44       0.2314
     20  O         52.7300   68.9830   65.3480 O.2    44  SER44      -0.2863
     21  CB        51.2650   66.9730   67.5180 C.3    44  SER44       0.2116
     22  OG        50.2140   67.0490   68.4680 O.3    44  SER44      -0.2180
     23  N         52.4970   67.8470   62.0880 N.3    46  ASP46      -0.1225
     24  CA        52.2360   68.7850   61.0020 C.3    46  ASP46       0.1805
     25  C         52.2490   70.2250   61.5130 C.2    46  ASP46       0.2597
     26  O         52.7880   71.1140   60.8590 O.2    46  ASP46      -0.2718
     27  CB        50.8910   68.4730   60.3360 C.3    46  ASP46       0.1424
     28  CG        50.8980   67.1400   59.5920 C.2    46  ASP46       0.3668
     29  OD1       51.9960   66.5890   59.3580 O.co2  46  ASP46      -0.2456
     30  OD2       49.8070   66.6410   59.2420 O.co2  46  ASP46      -0.2456
     31  N         51.6660   70.4500   62.6880 N.am   47  ALA47      -0.1979
     32  CA        51.6490   71.7770   63.2920 C.3    47  ALA47       0.1597
     33  C         53.0570   72.2620   63.6310 C.2    47  ALA47       0.2287
     34  O         53.3700   73.4450   63.4820 O.2    47  ALA47      -0.2864
     35  CB        50.7870   71.7670   64.5540 C.3    47  ALA47       0.0319
     36  N         54.8630   73.3050   60.5950 N.3    50  LYS50      -0.1245
     37  CA        54.3840   74.5990   60.1290 C.3    50  LYS50       0.1561
     38  C         55.1000   75.7510   60.8300 C.2    50  LYS50       0.2260
     39  O         55.4660   76.7390   60.1960 O.2    50  LYS50      -0.2867
     40  CB        52.8770   74.7090   60.3620 C.3    50  LYS50       0.0271
     41  CG        52.2510   75.9540   59.7750 C.3    50  LYS50       0.0035
     42  CD        52.2720   75.8970   58.2630 C.3    50  LYS50       0.0206
     43  CE        51.5830   77.1090   57.6620 C.3    50  LYS50       0.1093
     44  NZ        52.4370   78.3260   57.7890 N.3    50  LYS50      -0.1314
     45  N         47.2630   65.1780   74.8330 N.3    83  ILE83      -0.1245
     46  CA        48.3670   65.3270   73.8870 C.3    83  ILE83       0.1561
     47  C         48.6520   66.8220   73.7110 C.2    83  ILE83       0.2260
     48  O         47.7870   67.5790   73.2720 O.2    83  ILE83      -0.2867
     49  CB        48.0220   64.7330   72.4890 C.3    83  ILE83       0.0252
     50  CG1       47.6820   63.2450   72.5930 C.3    83  ILE83       0.0019
     51  CG2       49.2100   64.8920   71.5510 C.3    83  ILE83       0.0019
     52  CD1       46.2260   62.9520   72.8710 C.3    83  ILE83       0.0001
     53  N         51.2870   69.8010   72.1080 N.3    85  ASP85      -0.1239
     54  CA        52.4280   70.1190   71.2600 C.3    85  ASP85       0.1674
     55  C         52.7240   71.6120   71.2840 C.2    85  ASP85       0.2266
     56  O         51.9100   72.4080   71.7580 O.2    85  ASP85      -0.2867
     57  CB        52.1900   69.6450   69.8190 C.3    85  ASP85       0.1410
     58  CG        51.0180   70.3440   69.1570 C.2    85  ASP85       0.3668
     59  OD1       51.1210   71.5650   68.9010 O.co2  85  ASP85      -0.2456
     60  OD2       49.9990   69.6700   68.8890 O.co2  85  ASP85      -0.2456
     61  N         52.3920   75.4160   65.6920 N.3    88  ILE88      -0.1231
     62  CA        52.0290   76.7810   65.3360 C.3    88  ILE88       0.1692
     63  C         50.7460   77.2520   66.0270 C.2    88  ILE88       0.2593
     64  O         50.5180   78.4520   66.1640 O.2    88  ILE88      -0.2718
     65  CB        51.8750   76.9100   63.8120 C.3    88  ILE88       0.0266
     66  CG1       51.7460   78.3860   63.4190 C.3    88  ILE88       0.0019
     67  CG2       50.6730   76.0900   63.3440 C.3    88  ILE88       0.0020
     68  CD1       51.7480   78.6110   61.9340 C.3    88  ILE88       0.0001
     69  N         49.9210   76.3090   66.4760 N.am   89  GLY89      -0.1942
     70  CA        48.6890   76.6690   67.1620 C.3    89  GLY89       0.2014
     71  C         47.5880   77.0780   66.1950 C.2    89  GLY89       0.2638
     72  O         47.8070   77.1040   64.9830 O.2    89  GLY89      -0.2714
     73  N         46.4070   77.4020   66.7170 N.am   90  MET90      -0.1976
     74  CA        45.2750   77.7550   65.8570 C.3    90  MET90       0.1605
     75  C         44.5790   79.0590   66.2380 C.2    90  MET90       0.2287
     76  O         44.2820   79.3020   67.4140 O.2    90  MET90      -0.2864
     77  CB        44.2380   76.6270   65.8560 C.3    90  MET90       0.0413
     78  CG        44.6780   75.3740   65.1340 C.3    90  MET90       0.0598
     79  SD        43.5030   74.0080   65.3200 S.3    90  MET90      -0.1393
     80  CE        43.7960   73.5420   67.0700 C.3    90  MET90       0.0692
     81  N         39.6880   72.3290   62.6820 N.3    99  LEU99      -0.1231
     82  CA        40.9270   72.3350   63.4500 C.3    99  LEU99       0.1693
     83  C         42.1720   72.4920   62.5710 C.2    99  LEU99       0.2593
     84  O         43.1100   71.6940   62.6210 O.2    99  LEU99      -0.2718
     85  CB        41.0070   71.0670   64.3050 C.3    99  LEU99       0.0284
     86  CG        39.8980   71.0350   65.3720 C.3    99  LEU99       0.0019
     87  CD1       38.6470   70.3780   64.7990 C.3    99  LEU99       0.0001
     88  CD2       40.3730   70.2860   66.5940 C.3    99  LEU99       0.0001
     89  N         42.1600   73.5440   61.7610 N.am  100  GLY100     -0.1942
     90  CA        43.3660   73.9770   61.0840 C.3   100  GLY100      0.2014
     91  C         43.7410   73.1670   59.8630 C.2   100  GLY100      0.2639
     92  O         44.8070   73.3730   59.2920 O.2   100  GLY100     -0.2714
     93  N         42.8840   72.2400   59.4540 N.am  101  THR101     -0.1950
     94  CA        43.2130   71.4110   58.3060 C.3   101  THR101      0.1897
     95  C         42.0400   71.3420   57.3300 C.2   101  THR101      0.2313
     96  O         40.8760   71.4220   57.7290 O.2   101  THR101     -0.2863
     97  CB        43.6170   69.9830   58.7520 C.3   101  THR101      0.1794
     98  OG1       42.4550   69.1590   58.8570 O.3   101  THR101     -0.2208
     99  CG2       44.2840   70.0330   60.1220 C.3   101  THR101      0.0378
    100  N         41.5860   63.8200   63.1950 N.3   130  PHE130     -0.1241
    101  CA        41.3200   64.2950   64.5480 C.3   130  PHE130      0.1605
    102  C         40.1130   63.5810   65.1400 C.2   130  PHE130      0.2264
    103  O         40.1000   63.2380   66.3220 O.2   130  PHE130     -0.2867
    104  CB        41.0660   65.8110   64.5530 C.3   130  PHE130      0.0534
    105  CG        40.5420   66.3360   65.8670 C.ar  130  PHE130     -0.0203
    106  CD1       41.4120   66.6440   66.9110 C.ar  130  PHE130     -0.0042
    107  CD2       39.1770   66.5220   66.0630 C.ar  130  PHE130     -0.0042
    108  CE1       40.9300   67.1280   68.1240 C.ar  130  PHE130     -0.0003
    109  CE2       38.6890   67.0040   67.2700 C.ar  130  PHE130     -0.0003
    110  CZ        39.5640   67.3080   68.3030 C.ar  130  PHE130     -0.0000
    111  N         49.0610   73.4580   70.6390 N.3   176  THR176     -0.1218
    112  CA        47.7290   72.8960   70.8060 C.3   176  THR176      0.1862
    113  C         47.7290   71.7610   71.8190 C.2   176  THR176      0.2287
    114  O         48.6140   70.9030   71.8120 O.2   176  THR176     -0.2866
    115  CB        47.1810   72.3830   69.4670 C.3   176  THR176      0.1770
    116  OG1       46.9260   73.4980   68.6020 O.3   176  THR176     -0.2211
    117  CG2       45.8920   71.6090   69.6730 C.3   176  THR176      0.0375
    118  N         45.3540   68.7230   73.3690 N.3   178  VAL178     -0.1245
    119  CA        44.1340   67.9540   73.1490 C.3   178  VAL178      0.1561
    120  C         43.8380   67.0590   74.3480 C.2   178  VAL178      0.2260
    121  O         44.6050   66.1440   74.6650 O.2   178  VAL178     -0.2867
    122  CB        44.2370   67.0860   71.8820 C.3   178  VAL178      0.0252
    123  CG1       42.9290   66.3040   71.6730 C.3   178  VAL178      0.0019
    124  CG2       44.5270   67.9670   70.6760 C.3   178  VAL178      0.0019
@<TRIPOS>BOND
     1    95    96    2
     2    95    94    1
     3    43    44    1
     4    43    42    1
     5    42    41    1
     6    94    97    1
     7    94    93    1
     8    97    98    1
     9    97    99    1
    10    30    28   ar
    11    92    91    2
    12    29    28   ar
    13    93    91   am
    14    28    27    1
    15    41    40    1
    16    91    90    1
    17    37    40    1
    18    37    36    1
    19    37    38    1
    20    39    38    2
    21    27    24    1
    22    26    25    2
    23    24    25    1
    24    24    23    1
    25    90    89    1
    26    25    31   am
    27    89    83   am
    28    68    66    1
    29    15    14    2
    30    83    84    2
    31    83    82    1
    32    81    82    1
    33    31    32    1
    34   100   101    1
    35    32    33    1
    36    32    35    1
    37    14    16   am
    38    14    13    1
    39    67    65    1
    40    66    65    1
    41    82    85    1
    42    34    33    2
    43     9    10    1
    44    10    13    1
    45    10    11    1
    46    12    11    2
    47    65    62    1
    48    11    17   am
    49    85    86    1
    50   101   104    1
    51   101   102    1
    52   104   105    1
    53    87    86    1
    54    72    71    2
    55    78    79    1
    56    78    77    1
    57   102   103    2
    58    79    80    1
    59    62    61    1
    60    62    63    1
    61    20    19    2
    62    86    88    1
    63    19    18    1
    64    17    18    1
    65    77    74    1
    66    74    75    1
    67    74    73    1
    68   105   107   ar
    69   105   106   ar
    70    63    64    2
    71    63    69   am
    72   107   109   ar
    73    71    73   am
    74    71    70    1
    75    18    21    1
    76     1     2    1
    77    75    76    2
    78    69    70    1
    79     4     3    2
    80   106   108   ar
    81     3     2    1
    82     2     5    1
    83   109   110   ar
    84    21    22    1
    85     8     6    1
    86   108   110   ar
    87     5     6    1
    88     6     7    1
    89   116   115    1
    90    60    58   ar
    91    59    58   ar
    92    58    57    1
    93   115   117    1
    94   115   112    1
    95    57    54    1
    96   111   112    1
    97   124   122    1
    98   112   113    1
    99    54    55    1
   100    54    53    1
   101    55    56    2
   102    51    49    1
   103   123   122    1
   104   114   113    2
   105   122   119    1
   106    49    50    1
   107    49    46    1
   108    50    52    1
   109   119   118    1
   110   119   120    1
   111    48    47    2
   112    47    46    1
   113    46    45    1
   114   120   121    2
