@<TRIPOS>MOLECULE
tmp/3k9bB00.pdb
 115 107 0 0 0
SMALL
GASTEIGER

@<TRIPOS>ATOM
      1  N        -29.8800   43.3140   53.6120 N.3    74  LEU74      -0.1245
      2  CA       -30.9610   43.9730   54.3360 C.3    74  LEU74       0.1561
      3  C        -32.2480   43.9660   53.5120 C.2    74  LEU74       0.2260
      4  O        -33.3320   43.7530   54.0500 O.2    74  LEU74      -0.2867
      5  CB       -30.5880   45.4210   54.6600 C.3    74  LEU74       0.0270
      6  CG       -31.6180   46.1500   55.5250 C.3    74  LEU74       0.0019
      7  CD1      -31.7290   45.4430   56.8680 C.3    74  LEU74       0.0001
      8  CD2      -31.2250   47.6010   55.7220 C.3    74  LEU74       0.0001
      9  N        -35.9020   42.4550   54.9150 N.3    78  PHE78      -0.1241
     10  CA       -37.0560   43.3100   55.2230 C.3    78  PHE78       0.1605
     11  C        -38.1480   43.2770   54.1630 C.2    78  PHE78       0.2264
     12  O        -39.3220   43.4470   54.4710 O.2    78  PHE78      -0.2867
     13  CB       -36.6180   44.7640   55.4170 C.3    78  PHE78       0.0534
     14  CG       -36.0190   45.0470   56.7640 C.ar   78  PHE78      -0.0203
     15  CD1      -36.0750   44.1070   57.7840 C.ar   78  PHE78      -0.0042
     16  CD2      -35.4160   46.2680   57.0250 C.ar   78  PHE78      -0.0042
     17  CE1      -35.5390   44.3790   59.0410 C.ar   78  PHE78      -0.0003
     18  CE2      -34.8780   46.5410   58.2850 C.ar   78  PHE78      -0.0003
     19  CZ       -34.9440   45.5910   59.2890 C.ar   78  PHE78      -0.0000
     20  N        -35.0770   52.3310   56.4500 N.3   118  GLY118     -0.1210
     21  CA       -34.0300   52.3760   57.4450 C.3   118  GLY118      0.1956
     22  C        -32.7780   51.7400   56.8950 C.2   118  GLY118      0.2612
     23  O        -32.7670   51.2490   55.7730 O.2   118  GLY118     -0.2717
     24  N        -31.7160   51.7400   57.6870 N.am  119  GLY119     -0.1942
     25  CA       -30.4660   51.1600   57.2310 C.3   119  GLY119      0.2014
     26  C        -29.2760   51.8590   57.8520 C.2   119  GLY119      0.2639
     27  O        -28.1960   51.8720   57.2790 O.2   119  GLY119     -0.2714
     28  N        -29.4960   52.4460   59.0270 N.am  120  GLY120     -0.1954
     29  CA       -28.4480   53.1440   59.7510 C.3   120  GLY120      0.1869
     30  C        -27.8890   54.3500   59.0310 C.2   120  GLY120      0.2309
     31  O        -26.8100   54.8220   59.3630 O.2   120  GLY120     -0.2863
     32  N        -26.8480   54.3070   56.1750 N.3   122  MET122     -0.1230
     33  CA       -25.7140   53.7740   55.4370 C.3   122  MET122      0.1702
     34  C        -26.1670   52.8700   54.2920 C.2   122  MET122      0.2592
     35  O        -25.5250   52.8210   53.2500 O.2   122  MET122     -0.2718
     36  CB       -24.8120   52.9640   56.3690 C.3   122  MET122      0.0401
     37  CG       -24.2320   53.7020   57.5510 C.3   122  MET122      0.0596
     38  SD       -22.8520   54.7710   57.1350 S.3   122  MET122     -0.1393
     39  CE       -21.8120   53.6210   56.2150 C.3   122  MET122      0.0692
     40  N        -27.2550   52.1340   54.4960 N.am  123  VAL123     -0.1980
     41  CA       -27.7780   51.2440   53.4630 C.3   123  VAL123      0.1595
     42  C        -29.2800   51.3890   53.3210 C.2   123  VAL123      0.2287
     43  O        -29.9030   52.1470   54.0470 O.2   123  VAL123     -0.2864
     44  CB       -27.4800   49.7810   53.7770 C.3   123  VAL123      0.0276
     45  CG1      -26.0020   49.5320   53.7290 C.3   123  VAL123      0.0022
     46  CG2      -28.0190   49.4330   55.1360 C.3   123  VAL123      0.0022
     47  N        -36.0990   52.1870   62.3110 N.3   198  SER198     -0.1202
     48  CA       -34.6550   52.2260   62.5250 C.3   198  SER198      0.2020
     49  C        -34.1690   53.6250   62.1490 C.2   198  SER198      0.2618
     50  O        -34.7280   54.6250   62.5990 O.2   198  SER198     -0.2717
     51  CB       -33.9510   51.1650   61.6750 C.3   198  SER198      0.2103
     52  OG       -32.5550   51.0970   61.9380 O.3   198  SER198     -0.2182
     53  N        -33.1370   53.7060   61.3190 N.am  199  ALA199     -0.1979
     54  CA       -32.6120   55.0010   60.9110 C.3   199  ALA199      0.1597
     55  C        -33.7400   55.8100   60.2880 C.2   199  ALA199      0.2287
     56  O        -33.6840   57.0320   60.2190 O.2   199  ALA199     -0.2864
     57  CB       -31.4800   54.8080   59.9200 C.3   199  ALA199      0.0319
     58  N        -27.0490   57.6230   65.8980 N.3   232  LEU232     -0.1245
     59  CA       -27.1510   58.2950   64.5990 C.3   232  LEU232      0.1561
     60  C        -27.0080   59.8190   64.5780 C.2   232  LEU232      0.2260
     61  O        -27.0170   60.4290   63.5100 O.2   232  LEU232     -0.2867
     62  CB       -28.4570   57.8950   63.9090 C.3   232  LEU232      0.0270
     63  CG       -28.5840   56.4050   63.5860 C.3   232  LEU232      0.0019
     64  CD1      -29.8480   56.1530   62.8010 C.3   232  LEU232      0.0001
     65  CD2      -27.3670   55.9450   62.8030 C.3   232  LEU232      0.0001
     66  N        -20.8950   50.0060   60.3560 N.3   281  LEU281     -0.1245
     67  CA       -21.8730   48.9330   60.5850 C.3   281  LEU281      0.1561
     68  C        -21.2730   47.6200   61.1440 C.2   281  LEU281      0.2260
     69  O        -21.9630   46.5870   61.2470 O.2   281  LEU281     -0.2867
     70  CB       -22.6080   48.6340   59.2610 C.3   281  LEU281      0.0270
     71  CG       -21.7620   48.1260   58.0790 C.3   281  LEU281      0.0019
     72  CD1      -21.4980   46.6380   58.2610 C.3   281  LEU281      0.0001
     73  CD2      -22.4810   48.3860   56.7450 C.3   281  LEU281      0.0001
     74  N        -31.2500   40.1110   64.5720 N.3   319  LEU319     -0.1231
     75  CA       -30.9380   40.8930   63.3780 C.3   319  LEU319      0.1693
     76  C        -29.7640   41.8580   63.4780 C.2   319  LEU319      0.2591
     77  O        -28.8440   41.7950   62.6670 O.2   319  LEU319     -0.2718
     78  CB       -32.1770   41.6630   62.9100 C.3   319  LEU319      0.0284
     79  CG       -31.9520   42.5810   61.6990 C.3   319  LEU319      0.0019
     80  CD1      -31.5520   41.7700   60.4810 C.3   319  LEU319      0.0001
     81  CD2      -33.2210   43.3560   61.4050 C.3   319  LEU319      0.0001
     82  N        -29.7910   42.7620   64.4510 N.am  320  ILE320     -0.1980
     83  CA       -28.6930   43.7290   64.5780 C.3   320  ILE320      0.1595
     84  C        -27.4160   43.0570   65.0420 C.2   320  ILE320      0.2287
     85  O        -26.3950   43.1340   64.3730 O.2   320  ILE320     -0.2864
     86  CB       -29.0340   44.8910   65.5520 C.3   320  ILE320      0.0276
     87  CG1      -30.2740   45.6530   65.0560 C.3   320  ILE320      0.0022
     88  CG2      -27.8610   45.8260   65.6500 C.3   320  ILE320      0.0022
     89  CD1      -30.7950   46.6850   66.0210 C.3   320  ILE320      0.0001
     90  N        -25.7960   41.1340   62.0410 N.3   323  LEU323     -0.1231
     91  CA       -25.1950   41.9900   61.0210 C.3   323  LEU323      0.1693
     92  C        -23.8810   42.6370   61.4720 C.2   323  LEU323      0.2591
     93  O        -22.8770   42.5990   60.7560 O.2   323  LEU323     -0.2718
     94  CB       -26.1810   43.0920   60.6060 C.3   323  LEU323      0.0284
     95  CG       -27.4930   42.6830   59.9350 C.3   323  LEU323      0.0019
     96  CD1      -28.4030   43.8830   59.7820 C.3   323  LEU323      0.0001
     97  CD2      -27.1900   42.0760   58.5860 C.3   323  LEU323      0.0001
     98  N        -23.8830   43.2340   62.6540 N.am  324  MET324     -0.1979
     99  CA       -22.6850   43.8890   63.1460 C.3   324  MET324      0.1605
    100  C        -21.5680   42.8960   63.4580 C.2   324  MET324      0.2287
    101  O        -20.4370   43.3000   63.7870 O.2   324  MET324     -0.2864
    102  CB       -23.0180   44.7170   64.3900 C.3   324  MET324      0.0413
    103  CG       -23.9990   45.8380   64.1190 C.3   324  MET324      0.0598
    104  SD       -24.1080   46.9010   65.5270 S.3   324  MET324     -0.1393
    105  CE       -22.6050   47.9410   65.2640 C.3   324  MET324      0.0692
    106  N        -35.8870   43.1330   65.8200 N.3   414  HIS414     -0.1241
    107  CA       -35.7990   44.3760   65.0730 C.3   414  HIS414      0.1621
    108  C        -36.4520   44.2600   63.6890 C.2   414  HIS414      0.2264
    109  O        -36.1450   43.3600   62.9070 O.2   414  HIS414     -0.2867
    110  CB       -34.3360   44.7960   64.9240 C.3   414  HIS414      0.0745
    111  CG       -34.1490   46.2220   64.4920 C.ar  414  HIS414      0.0817
    112  ND1      -34.4960   47.2910   65.2900 N.ar  414  HIS414     -0.2268
    113  CD2      -33.6300   46.7520   63.3580 C.ar  414  HIS414      0.1154
    114  CE1      -34.1960   48.4170   64.6660 C.ar  414  HIS414      0.1986
    115  NE2      -33.6710   48.1180   63.4930 N.ar  414  HIS414     -0.2212
@<TRIPOS>BOND
     1    35    34    2
     2    42    41    1
     3    42    43    2
     4    41    44    1
     5    41    40    1
     6     3     4    2
     7     3     2    1
     8     1     2    1
     9    45    44    1
    10    44    46    1
    11    11    12    2
    12    11    10    1
    13    34    40   am
    14    34    33    1
    15     2     5    1
    16     5     6    1
    17     9    10    1
    18    10    13    1
    19    13    14    1
    20    33    32    1
    21    33    36    1
    22     6     8    1
    23     6     7    1
    24    23    22    2
    25    39    38    1
    26    36    37    1
    27    20    21    1
    28    73    71    1
    29    14    16   ar
    30    14    15   ar
    31    22    21    1
    32    22    24   am
    33    16    18   ar
    34    38    37    1
    35    25    24    1
    36    25    26    1
    37    27    26    2
    38    15    17   ar
    39    26    28   am
    40    71    72    1
    41    71    70    1
    42    18    19   ar
    43    97    95    1
    44    28    29    1
    45    30    31    2
    46    30    29    1
    47    17    19   ar
    48    70    67    1
    49    96    95    1
    50    57    54    1
    51    95    94    1
    52    56    55    2
    53    55    54    1
    54    66    67    1
    55    80    79    1
    56    67    68    1
    57    94    91    1
    58    93    92    2
    59    54    53    1
    60    91    92    1
    61    91    90    1
    62    68    69    2
    63    53    49   am
    64    81    79    1
    65    92    98   am
    66    51    52    1
    67    51    48    1
    68    79    78    1
    69    49    48    1
    70    49    50    2
    71    47    48    1
    72    98    99    1
    73    77    76    2
    74    64    63    1
    75    65    63    1
    76   109   108    2
    77    78    75    1
    78    99   100    1
    79    99   102    1
    80   113   115   ar
    81   113   111   ar
    82    75    76    1
    83    75    74    1
    84   100   101    2
    85    76    82   am
    86   115   114   ar
    87    61    60    2
    88    63    62    1
    89   108   107    1
    90    62    59    1
    91   103   102    1
    92   103   104    1
    93    85    84    2
    94    82    83    1
    95   111   110    1
    96   111   112   ar
    97    60    59    1
    98    83    84    1
    99    83    86    1
   100    59    58    1
   101   114   112   ar
   102   110   107    1
   103    87    86    1
   104    87    89    1
   105   107   106    1
   106   105   104    1
   107    86    88    1
