@<TRIPOS>MOLECULE
tmp/3k9bA00.pdb
 100 93 0 0 0
SMALL
GASTEIGER

@<TRIPOS>ATOM
      1  N         11.6940   84.5640   52.4060 N.3    74  LEU74      -0.1245
      2  CA        11.2740   85.9600   52.5390 C.3    74  LEU74       0.1561
      3  C         10.5850   86.2150   53.8930 C.2    74  LEU74       0.2260
      4  O         10.7990   87.2520   54.5210 O.2    74  LEU74      -0.2867
      5  CB        10.3130   86.3410   51.4090 C.3    74  LEU74       0.0270
      6  CG         9.9230   87.8230   51.4120 C.3    74  LEU74       0.0019
      7  CD1       11.1720   88.6700   51.1960 C.3    74  LEU74       0.0001
      8  CD2        8.8850   88.0970   50.3300 C.3    74  LEU74       0.0001
      9  N         11.7660   89.1480   56.6300 N.3    78  PHE78      -0.1241
     10  CA        10.9530   90.3370   56.9200 C.3    78  PHE78       0.1605
     11  C         10.2030   90.2670   58.2420 C.2    78  PHE78       0.2264
     12  O          9.9570   91.2840   58.8810 O.2    78  PHE78      -0.2867
     13  CB         9.9380   90.5990   55.8020 C.3    78  PHE78       0.0534
     14  CG        10.5190   91.2600   54.5840 C.ar   78  PHE78      -0.0203
     15  CD1       11.8080   91.7760   54.5960 C.ar   78  PHE78      -0.0042
     16  CD2        9.7650   91.3820   53.4270 C.ar   78  PHE78      -0.0042
     17  CE1       12.3430   92.4060   53.4710 C.ar   78  PHE78      -0.0003
     18  CE2       10.2880   92.0090   52.2970 C.ar   78  PHE78      -0.0003
     19  CZ        11.5850   92.5240   52.3200 C.ar   78  PHE78      -0.0000
     20  N          4.4950   92.3910   50.5190 N.3   118  GLY118     -0.1210
     21  CA         5.1730   92.4400   49.2460 C.3   118  GLY118      0.1956
     22  C          5.6970   91.0610   48.8980 C.2   118  GLY118      0.2612
     23  O          5.5130   90.1110   49.6550 O.2   118  GLY118     -0.2717
     24  N          6.3550   90.9440   47.7520 N.am  119  GLY119     -0.1942
     25  CA         6.8820   89.6610   47.3350 C.3   119  GLY119      0.2014
     26  C          6.8810   89.5300   45.8280 C.2   119  GLY119      0.2639
     27  O          6.8400   88.4270   45.3070 O.2   119  GLY119     -0.2714
     28  N          6.9230   90.6630   45.1360 N.am  120  GLY120     -0.1954
     29  CA         6.9360   90.6680   43.6830 C.3   120  GLY120      0.1869
     30  C          5.6850   90.1270   43.0290 C.2   120  GLY120      0.2309
     31  O          5.6890   89.8070   41.8480 O.2   120  GLY120     -0.2863
     32  N          5.3410   85.8870   45.8090 N.3   123  VAL123     -0.1245
     33  CA         5.4450   85.2470   47.1220 C.3   123  VAL123      0.1561
     34  C          4.9200   86.1550   48.2180 C.2   123  VAL123      0.2260
     35  O          4.5050   87.2760   47.9530 O.2   123  VAL123     -0.2867
     36  CB         6.9070   84.8810   47.4750 C.3   123  VAL123      0.0252
     37  CG1        7.4200   83.8040   46.5330 C.3   123  VAL123      0.0019
     38  CG2        7.7740   86.1120   47.4060 C.3   123  VAL123      0.0019
     39  N          4.8350   97.4380   51.1770 N.3   197  GLU197     -0.1231
     40  CA         6.1460   97.6730   50.6020 C.3   197  GLU197      0.1699
     41  C          6.4830   96.7400   49.4360 C.2   197  GLU197      0.2593
     42  O          5.9560   95.6510   49.3360 O.2   197  GLU197     -0.2718
     43  CB         7.2010   97.6120   51.7090 C.3   197  GLU197      0.0402
     44  CG         8.6170   97.9040   51.3000 C.3   197  GLU197      0.1161
     45  CD         9.2740   96.7120   50.6550 C.2   197  GLU197      0.3649
     46  OE1        8.8500   95.5730   50.9330 O.co2 197  GLU197     -0.2457
     47  OE2       10.2050   96.9010   49.8630 O.co2 197  GLU197     -0.2457
     48  N          7.3600   97.1900   48.5490 N.am  198  SER198     -0.1938
     49  CA         7.7440   96.4250   47.3700 C.3   198  SER198      0.2055
     50  C          6.4960   96.2230   46.5160 C.2   198  SER198      0.2642
     51  O          5.7750   97.1760   46.2320 O.2   198  SER198     -0.2714
     52  CB         8.3480   95.0770   47.7640 C.3   198  SER198      0.2130
     53  OG         8.8490   94.3700   46.6370 O.3   198  SER198     -0.2179
     54  N          6.2340   94.9900   46.1010 N.am  199  ALA199     -0.1977
     55  CA         5.0570   94.7160   45.2860 C.3   199  ALA199      0.1597
     56  C          3.8260   95.2100   46.0360 C.2   199  ALA199      0.2287
     57  O          2.7750   95.4670   45.4490 O.2   199  ALA199     -0.2864
     58  CB         4.9520   93.2370   45.0230 C.3   199  ALA199      0.0319
     59  N          6.6170   95.3710   37.5610 N.3   232  LEU232     -0.1245
     60  CA         5.3670   94.7020   37.9300 C.3   232  LEU232      0.1561
     61  C          4.1200   95.0200   37.0990 C.2   232  LEU232      0.2260
     62  O          3.0660   94.4450   37.3270 O.2   232  LEU232     -0.2867
     63  CB         5.0720   94.9560   39.4090 C.3   232  LEU232      0.0270
     64  CG         6.1300   94.4220   40.3760 C.3   232  LEU232      0.0019
     65  CD1        5.6780   94.6060   41.8080 C.3   232  LEU232      0.0001
     66  CD2        6.3640   92.9570   40.0810 C.3   232  LEU232      0.0001
     67  N         17.6770   92.1380   47.4320 N.3   318  ILE318     -0.1245
     68  CA        17.1720   91.7820   46.0990 C.3   318  ILE318      0.1561
     69  C         18.2450   91.1100   45.2540 C.2   318  ILE318      0.2260
     70  O         18.0570   89.9910   44.7740 O.2   318  ILE318     -0.2867
     71  CB        16.6220   93.0130   45.3240 C.3   318  ILE318      0.0252
     72  CG1       15.4670   93.6540   46.1010 C.3   318  ILE318      0.0019
     73  CG2       16.1200   92.5770   43.9670 C.3   318  ILE318      0.0019
     74  CD1       14.9680   94.9530   45.5200 C.3   318  ILE318      0.0001
     75  N         18.6690   87.3810   46.4430 N.3   321  LEU321     -0.1231
     76  CA        17.5650   86.4970   46.0700 C.3   321  LEU321      0.1693
     77  C         17.5380   86.1530   44.5880 C.2   321  LEU321      0.2591
     78  O         17.4190   84.9860   44.2230 O.2   321  LEU321     -0.2718
     79  CB        16.2210   87.1320   46.4390 C.3   321  LEU321      0.0284
     80  CG        15.9410   87.3790   47.9270 C.3   321  LEU321      0.0019
     81  CD1       14.6460   88.1940   48.0990 C.3   321  LEU321      0.0001
     82  CD2       15.8500   86.0460   48.6550 C.3   321  LEU321      0.0001
     83  N         17.6340   87.1640   43.7310 N.am  322  MET322     -0.1979
     84  CA        17.6020   86.9290   42.2920 C.3   322  MET322      0.1605
     85  C         18.8350   86.1770   41.7990 C.2   322  MET322      0.2287
     86  O         18.9140   85.8190   40.6170 O.2   322  MET322     -0.2864
     87  CB        17.4790   88.2540   41.5400 C.3   322  MET322      0.0413
     88  CG        16.2100   89.0140   41.8430 C.3   322  MET322      0.0598
     89  SD        16.0130   90.3930   40.7120 S.3   322  MET322     -0.1393
     90  CE        15.3080   89.4910   39.2720 C.3   322  MET322      0.0692
     91  N         16.7430   97.1190   51.0940 N.3   410  HIS410     -0.1241
     92  CA        15.3400   96.8720   50.7760 C.3   410  HIS410      0.1621
     93  C         14.5880   96.2750   51.9610 C.2   410  HIS410      0.2264
     94  O         15.0100   95.2710   52.5360 O.2   410  HIS410     -0.2867
     95  CB        15.2340   95.9420   49.5600 C.3   410  HIS410      0.0745
     96  CG        13.8690   95.8970   48.9350 C.ar  410  HIS410      0.0817
     97  ND1       13.3070   96.9790   48.2960 N.ar  410  HIS410     -0.2268
     98  CD2       12.9650   94.8910   48.8360 C.ar  410  HIS410      0.1154
     99  CE1       12.1160   96.6440   47.8290 C.ar  410  HIS410      0.1986
    100  NE2       11.8840   95.3820   48.1430 N.ar  410  HIS410     -0.2212
@<TRIPOS>BOND
     1    61    62    2
     2    61    60    1
     3    59    60    1
     4    60    63    1
     5    90    89    1
     6    63    64    1
     7    66    64    1
     8    64    65    1
     9    86    85    2
    10    89    88    1
    11    87    88    1
    12    87    84    1
    13    85    84    1
    14    31    30    2
    15    84    83    1
    16    30    29    1
    17    29    28    1
    18    83    77   am
    19    73    71    1
    20    78    77    2
    21    77    76    1
    22    70    69    2
    23    58    55    1
    24    28    26   am
    25    69    68    1
    26    55    56    1
    27    55    54    1
    28    27    26    2
    29    71    68    1
    30    71    72    1
    31    57    56    2
    32    74    72    1
    33    32    33    1
    34    26    25    1
    35    76    79    1
    36    76    75    1
    37    68    67    1
    38    54    50   am
    39    51    50    2
    40    79    80    1
    41    50    49    1
    42    37    36    1
    43    53    52    1
    44    33    36    1
    45    33    34    1
    46    25    24    1
    47    49    52    1
    48    49    48    1
    49    38    36    1
    50    24    22   am
    51    99   100   ar
    52    99    97   ar
    53    80    81    1
    54    80    82    1
    55    35    34    2
    56   100    98   ar
    57    97    96   ar
    58    48    41   am
    59    98    96   ar
    60    22    21    1
    61    22    23    2
    62    96    95    1
    63    21    20    1
    64    42    41    2
    65    41    40    1
    66    95    92    1
    67    47    45   ar
    68     8     6    1
    69    40    39    1
    70    40    43    1
    71    45    46   ar
    72    45    44    1
    73    92    91    1
    74    92    93    1
    75     7     6    1
    76    44    43    1
    77     5     6    1
    78     5     2    1
    79    93    94    2
    80    18    19   ar
    81    18    16   ar
    82    19    17   ar
    83     1     2    1
    84     2     3    1
    85    16    14   ar
    86    17    15   ar
    87     3     4    2
    88    14    15   ar
    89    14    13    1
    90    13    10    1
    91     9    10    1
    92    10    11    1
    93    11    12    2
