@<TRIPOS>MOLECULE
tmp/3k9bC00.pdb
 119 111 0 0 0
SMALL
GASTEIGER

@<TRIPOS>ATOM
      1  N        -13.6850   68.6740    2.5370 N.3    69  LEU69      -0.1245
      2  CA       -14.9190   69.3460    2.1470 C.3    69  LEU69       0.1561
      3  C        -14.6830   70.8490    1.9330 C.2    69  LEU69       0.2260
      4  O        -15.2110   71.4500    0.9950 O.2    69  LEU69      -0.2867
      5  CB       -15.9950   69.1490    3.2150 C.3    69  LEU69       0.0270
      6  CG       -17.3600   69.7290    2.8380 C.3    69  LEU69       0.0019
      7  CD1      -17.8800   69.0000    1.6170 C.3    69  LEU69       0.0001
      8  CD2      -18.3390   69.6120    3.9840 C.3    69  LEU69       0.0001
      9  N        -15.6590   72.8940   -1.5660 N.3    73  PHE73      -0.1241
     10  CA       -16.7500   73.8800   -1.6460 C.3    73  PHE73       0.1605
     11  C        -16.2920   75.3340   -1.6640 C.2    73  PHE73       0.2264
     12  O        -16.9550   76.2020   -2.2440 O.2    73  PHE73      -0.2867
     13  CB       -17.7300   73.7030   -0.4830 C.3    73  PHE73       0.0534
     14  CG       -18.7110   72.5850   -0.6740 C.ar   73  PHE73      -0.0203
     15  CD1      -18.8270   71.9370   -1.9000 C.ar   73  PHE73      -0.0042
     16  CD2      -19.5360   72.1910    0.3800 C.ar   73  PHE73      -0.0042
     17  CE1      -19.7450   70.9140   -2.0740 C.ar   73  PHE73      -0.0003
     18  CE2      -20.4620   71.1650    0.2160 C.ar   73  PHE73      -0.0003
     19  CZ       -20.5670   70.5240   -1.0140 C.ar   73  PHE73      -0.0000
     20  N        -22.9840   73.3940    5.2670 N.3   113  GLY113     -0.1210
     21  CA       -23.4480   72.0230    5.3060 C.3   113  GLY113      0.1956
     22  C        -22.3070   71.1150    5.7020 C.2   113  GLY113      0.2612
     23  O        -21.1950   71.5810    5.9270 O.2   113  GLY113     -0.2717
     24  N        -22.5680   69.8180    5.7830 N.am  114  GLY114     -0.1942
     25  CA       -21.5250   68.8890    6.1730 C.3   114  GLY114      0.2014
     26  C        -22.0960   67.7090    6.9330 C.2   114  GLY114      0.2639
     27  O        -21.3930   67.0740    7.7170 O.2   114  GLY114     -0.2714
     28  N        -23.3800   67.4280    6.6930 N.am  115  GLY115     -0.1954
     29  CA       -24.0680   66.3200    7.3390 C.3   115  GLY115      0.1869
     30  C        -24.1960   66.4430    8.8430 C.2   115  GLY115      0.2309
     31  O        -24.4470   65.4570    9.5310 O.2   115  GLY115     -0.2863
     32  N        -19.3660   67.7830    9.7770 N.3   118  VAL118     -0.1245
     33  CA       -18.1980   68.5650    9.3880 C.3   118  VAL118      0.1561
     34  C        -18.6050   69.9270    8.8580 C.2   118  VAL118      0.2260
     35  O        -19.7850   70.2340    8.7620 O.2   118  VAL118     -0.2867
     36  CB       -17.3780   67.8560    8.2970 C.3   118  VAL118      0.0252
     37  CG1      -16.7800   66.5910    8.8440 C.3   118  VAL118      0.0019
     38  CG2      -18.2570   67.5400    7.1100 C.3   118  VAL118      0.0019
     39  N        -26.9500   74.8550    2.3780 N.3   192  GLU192     -0.1231
     40  CA       -27.0880   73.6850    1.5240 C.3   192  GLU192      0.1699
     41  C        -26.7290   72.3750    2.2350 C.2   192  GLU192      0.2593
     42  O        -25.9600   72.3700    3.1820 O.2   192  GLU192     -0.2718
     43  CB       -26.2680   73.8900    0.2400 C.3   192  GLU192      0.0402
     44  CG       -26.3540   72.7950   -0.7980 C.3   192  GLU192      0.1161
     45  CD       -25.4550   71.6090   -0.4590 C.2   192  GLU192      0.3649
     46  OE1      -24.4510   71.7910    0.2670 O.co2 192  GLU192     -0.2457
     47  OE2      -25.7590   70.4870   -0.9060 O.co2 192  GLU192     -0.2457
     48  N        -27.3050   71.2690    1.7700 N.am  193  SER193     -0.1938
     49  CA       -27.1000   69.9550    2.3720 C.3   193  SER193      0.2055
     50  C        -27.6220   70.0130    3.8160 C.2   193  SER193      0.2642
     51  O        -28.7510   70.4570    4.0640 O.2   193  SER193     -0.2714
     52  CB       -25.6200   69.5740    2.3460 C.3   193  SER193      0.2130
     53  OG       -25.4110   68.2540    2.8240 O.3   193  SER193     -0.2179
     54  N        -26.8120   69.5730    4.7740 N.am  194  ALA194     -0.1977
     55  CA       -27.2340   69.5970    6.1630 C.3   194  ALA194      0.1597
     56  C        -27.6170   71.0190    6.5210 C.2   194  ALA194      0.2287
     57  O        -28.3560   71.2490    7.4670 O.2   194  ALA194     -0.2864
     58  CB       -26.1090   69.1180    7.0440 C.3   194  ALA194      0.0319
     59  N        -30.9470   62.9310    8.2350 N.3   227  LEU227     -0.1245
     60  CA       -30.5070   63.8060    9.3160 C.3   227  LEU227      0.1561
     61  C        -31.4630   63.9880   10.5060 C.2   227  LEU227      0.2260
     62  O        -31.1290   64.6570   11.4870 O.2   227  LEU227     -0.2867
     63  CB       -30.1220   65.1770    8.7380 C.3   227  LEU227      0.0270
     64  CG       -28.9550   65.1590    7.7500 C.3   227  LEU227      0.0019
     65  CD1      -28.5660   66.5760    7.3750 C.3   227  LEU227      0.0001
     66  CD2      -27.7800   64.4310    8.3730 C.3   227  LEU227      0.0001
     67  N        -20.3860   59.0630    8.2960 N.3   276  LEU276     -0.1245
     68  CA       -20.1130   59.5550    6.9460 C.3   276  LEU276      0.1561
     69  C        -19.4960   58.5100    6.0040 C.2   276  LEU276      0.2260
     70  O        -19.1000   58.8260    4.8690 O.2   276  LEU276     -0.2867
     71  CB       -19.1880   60.7750    7.0290 C.3   276  LEU276      0.0270
     72  CG       -19.2940   61.6570    8.2820 C.3   276  LEU276      0.0019
     73  CD1      -18.4740   62.9200    8.0800 C.3   276  LEU276      0.0001
     74  CD2      -20.7570   62.0090    8.5640 C.3   276  LEU276      0.0001
     75  N        -19.6940   63.6490   -5.8910 N.3   312  LEU312     -0.1231
     76  CA       -19.2820   64.1560   -4.5770 C.3   312  LEU312      0.1693
     77  C        -19.6690   63.3110   -3.3620 C.2   312  LEU312      0.2591
     78  O        -18.7880   62.9300   -2.5820 O.2   312  LEU312     -0.2718
     79  CB       -19.8010   65.5810   -4.3650 C.3   312  LEU312      0.0284
     80  CG       -19.3840   66.2110   -3.0260 C.3   312  LEU312      0.0019
     81  CD1      -17.8700   66.3590   -2.9630 C.3   312  LEU312      0.0001
     82  CD2      -20.0510   67.5640   -2.8700 C.3   312  LEU312      0.0001
     83  N        -20.9650   63.0330   -3.1850 N.am  313  ILE313     -0.1980
     84  CA       -21.3970   62.2310   -2.0350 C.3   313  ILE313      0.1595
     85  C        -20.9400   60.7740   -2.1460 C.2   313  ILE313      0.2287
     86  O        -20.2540   60.2670   -1.2490 O.2   313  ILE313     -0.2864
     87  CB       -22.9370   62.2530   -1.8410 C.3   313  ILE313      0.0276
     88  CG1      -23.4170   63.6850   -1.6310 C.3   313  ILE313      0.0022
     89  CG2      -23.3140   61.3980   -0.6390 C.3   313  ILE313      0.0022
     90  CD1      -24.9110   63.8150   -1.5890 C.3   313  ILE313      0.0001
     91  N        -17.1130   60.5570   -1.3080 N.3   316  LEU316     -0.1245
     92  CA       -16.7950   60.7390    0.1100 C.3   316  LEU316      0.1561
     93  C        -17.1710   59.5370    0.9690 C.2   316  LEU316      0.2260
     94  O        -16.3510   59.0390    1.7520 O.2   316  LEU316     -0.2867
     95  CB       -17.5060   61.9830    0.6680 C.3   316  LEU316      0.0270
     96  CG       -17.1170   63.3450    0.0790 C.3   316  LEU316      0.0019
     97  CD1      -18.0460   64.4340    0.6010 C.3   316  LEU316      0.0001
     98  CD2      -15.6660   63.6530    0.4330 C.3   316  LEU316      0.0001
     99  N        -33.1770   63.8870   -2.0230 N.3   342  PHE342     -0.1241
    100  CA       -33.4700   65.3120   -2.1810 C.3   342  PHE342      0.1605
    101  C        -34.6850   65.5840   -3.0440 C.2   342  PHE342      0.2264
    102  O        -35.5910   66.3160   -2.6460 O.2   342  PHE342     -0.2867
    103  CB       -32.2750   66.0430   -2.7980 C.3   342  PHE342      0.0534
    104  CG       -30.9590   65.6840   -2.1760 C.ar  342  PHE342     -0.0203
    105  CD1      -30.2600   64.5560   -2.6020 C.ar  342  PHE342     -0.0042
    106  CD2      -30.4270   66.4530   -1.1450 C.ar  342  PHE342     -0.0042
    107  CE1      -29.0420   64.1910   -2.0070 C.ar  342  PHE342     -0.0003
    108  CE2      -29.2130   66.0910   -0.5480 C.ar  342  PHE342     -0.0003
    109  CZ       -28.5210   64.9540   -0.9840 C.ar  342  PHE342     -0.0000
    110  N        -23.8020   67.5200   -6.4840 N.3   376  HIS376     -0.1241
    111  CA       -24.0670   68.0690   -5.1540 C.3   376  HIS376      0.1621
    112  C        -23.1990   69.3050   -4.8620 C.2   376  HIS376      0.2264
    113  O        -21.9770   69.2740   -4.9990 O.2   376  HIS376     -0.2867
    114  CB       -23.8320   66.9990   -4.0770 C.3   376  HIS376      0.0745
    115  CG       -24.4150   67.3420   -2.7350 C.ar  376  HIS376      0.0817
    116  ND1      -25.7740   67.4320   -2.5100 N.ar  376  HIS376     -0.2268
    117  CD2      -23.8220   67.5940   -1.5420 C.ar  376  HIS376      0.1154
    118  CE1      -25.9910   67.7200   -1.2370 C.ar  376  HIS376      0.1986
    119  NE2      -24.8240   67.8240   -0.6280 N.ar  376  HIS376     -0.2212
@<TRIPOS>BOND
     1   110   111    1
     2    75    76    1
     3   111   112    1
     4   111   114    1
     5   113   112    2
     6    76    79    1
     7    76    77    1
     8    79    80    1
     9   114   115    1
    10    77    83   am
    11    77    78    2
    12    83    84    1
    13   101   102    2
    14   101   100    1
    15    80    81    1
    16    80    82    1
    17   103   100    1
    18   103   104    1
    19   115   116   ar
    20   115   117   ar
    21   105   104   ar
    22   105   107   ar
    23   116   118   ar
    24    12    11    2
    25   100    99    1
    26   104   106   ar
    27    85    84    1
    28    85    86    2
    29    17    15   ar
    30    17    19   ar
    31    84    87    1
    32   107   109   ar
    33    15    14   ar
    34    87    88    1
    35    87    89    1
    36    11    10    1
    37    10     9    1
    38    10    13    1
    39    88    90    1
    40   117   119   ar
    41    91    92    1
    42   118   119   ar
    43   106   108   ar
    44    19    18   ar
    45   109   108   ar
    46    47    45   ar
    47    44    45    1
    48    44    43    1
    49    14    13    1
    50    14    16   ar
    51    45    46   ar
    52    96    98    1
    53    96    97    1
    54    96    95    1
    55    92    95    1
    56    92    93    1
    57    18    16   ar
    58    43    40    1
    59    93    94    2
    60     4     3    2
    61    40    41    1
    62    40    39    1
    63     7     6    1
    64    48    41   am
    65    48    49    1
    66     3     2    1
    67     2     1    1
    68     2     5    1
    69    41    42    2
    70    52    49    1
    71    52    53    1
    72    49    50    1
    73     6     5    1
    74     6     8    1
    75    50    51    2
    76    50    54   am
    77    54    55    1
    78    70    69    2
    79    20    21    1
    80    21    22    1
    81    22    24   am
    82    22    23    2
    83    24    25    1
    84    69    68    1
    85    55    56    1
    86    55    58    1
    87    25    26    1
    88    56    57    2
    89    28    26   am
    90    28    29    1
    91    26    27    2
    92    68    71    1
    93    68    67    1
    94    71    72    1
    95    38    36    1
    96    29    30    1
    97    65    64    1
    98    64    66    1
    99    64    63    1
   100    73    72    1
   101    59    60    1
   102    72    74    1
   103    36    37    1
   104    36    33    1
   105    63    60    1
   106    35    34    2
   107    30    31    2
   108    34    33    1
   109    60    61    1
   110    33    32    1
   111    61    62    2
