@<TRIPOS>MOLECULE
tmp/3k9uB00.pdb
 252 252 0 0 0
SMALL
GASTEIGER

@<TRIPOS>ATOM
      1  N         23.7710  -38.0490  -16.4450 N.3    23  SER23      -0.1217
      2  CA        24.8100  -37.0600  -16.6510 C.3    23  SER23       0.1889
      3  C         24.9340  -36.6600  -18.1290 C.2    23  SER23       0.2288
      4  O         25.0030  -35.4600  -18.4510 O.2    23  SER23      -0.2866
      5  CB        26.1470  -37.5560  -16.1220 C.3    23  SER23       0.2089
      6  OG        27.0600  -36.4780  -16.0700 O.3    23  SER23      -0.2183
      7  N         22.0340  -34.5080  -19.4440 N.3    26  TRP26      -0.1227
      8  CA        22.1730  -33.1540  -18.9510 C.3    26  TRP26       0.1737
      9  C         23.3530  -32.4280  -19.6150 C.2    26  TRP26       0.2596
     10  O         23.2160  -31.2800  -20.0800 O.2    26  TRP26      -0.2718
     11  CB        22.3830  -33.2050  -17.4360 C.3    26  TRP26       0.0564
     12  CG        22.5550  -31.8590  -16.7790 C.ar   26  TRP26       0.0003
     13  CD1       21.5750  -30.9530  -16.5150 C.ar   26  TRP26       0.0946
     14  CD2       23.7560  -31.3110  -16.2710 C.ar   26  TRP26       0.0152
     15  NE1       22.1040  -29.8410  -15.8940 N.ar   26  TRP26      -0.2442
     16  CE2       23.4450  -30.0370  -15.7370 C.ar   26  TRP26       0.0810
     17  CE3       25.0700  -31.7530  -16.2250 C.ar   26  TRP26       0.0012
     18  CZ2       24.4060  -29.2140  -15.1560 C.ar   26  TRP26       0.0191
     19  CZ3       26.0320  -30.9330  -15.6540 C.ar   26  TRP26       0.0001
     20  CH2       25.6940  -29.6730  -15.1240 C.ar   26  TRP26       0.0015
     21  N         24.5100  -33.0940  -19.6640 N.am   27  THR27      -0.1939
     22  CA        25.7430  -32.4330  -20.0920 C.3    27  THR27       0.2028
     23  C         25.6750  -31.9530  -21.5510 C.2    27  THR27       0.2642
     24  O         26.1420  -30.8430  -21.8880 O.2    27  THR27      -0.2714
     25  CB        26.9740  -33.3680  -19.9690 C.3    27  THR27       0.1808
     26  OG1       27.0660  -33.8880  -18.6330 O.3    27  THR27      -0.2208
     27  CG2       28.2540  -32.6190  -20.3120 C.3    27  THR27       0.0379
     28  N         25.0780  -32.7870  -22.4020 N.am   28  TYR28      -0.1973
     29  CA        25.0770  -32.5430  -23.8390 C.3    28  TYR28       0.1639
     30  C         23.7360  -32.0220  -24.3770 C.2    28  TYR28       0.2290
     31  O         23.5290  -31.9580  -25.5980 O.2    28  TYR28      -0.2864
     32  CB        25.5480  -33.8170  -24.5640 C.3    28  TYR28       0.0560
     33  CG        26.9660  -34.2290  -24.1760 C.ar   28  TYR28      -0.0198
     34  CD1       28.0680  -33.5710  -24.6860 C.ar   28  TYR28      -0.0009
     35  CD2       27.1860  -35.2550  -23.2800 C.ar   28  TYR28      -0.0009
     36  CE1       29.3640  -33.9270  -24.3210 C.ar   28  TYR28       0.0417
     37  CE2       28.4560  -35.6400  -22.9320 C.ar   28  TYR28       0.0417
     38  CZ        29.5490  -34.9540  -23.4280 C.ar   28  TYR28       0.1957
     39  OH        30.8180  -35.3380  -23.0380 O.3    28  TYR28      -0.2866
     40  N         42.2290  -39.5700  -20.1810 N.3    89  LEU89      -0.1231
     41  CA        41.0520  -39.4780  -19.3830 C.3    89  LEU89       0.1693
     42  C         39.8940  -39.6800  -20.3390 C.2    89  LEU89       0.2592
     43  O         39.5420  -38.7740  -21.1090 O.2    89  LEU89      -0.2718
     44  CB        40.9950  -38.1220  -18.7040 C.3    89  LEU89       0.0284
     45  CG        40.2220  -38.0490  -17.3940 C.3    89  LEU89       0.0019
     46  CD1       40.4070  -36.6380  -16.7760 C.3    89  LEU89       0.0001
     47  CD2       38.7470  -38.3940  -17.6010 C.3    89  LEU89       0.0001
     48  N         39.3120  -40.8740  -20.3110 N.am   90  LEU90      -0.1966
     49  CA        38.2420  -41.2080  -21.2450 C.3    90  LEU90       0.1728
     50  C         36.9370  -40.5590  -20.8320 C.2    90  LEU90       0.2616
     51  O         36.2080  -40.0050  -21.6700 O.2    90  LEU90      -0.2715
     52  CB        38.0560  -42.7230  -21.3440 C.3    90  LEU90       0.0311
     53  CG        39.2040  -43.5120  -21.9900 C.3    90  LEU90       0.0022
     54  CD1       38.8960  -45.0200  -21.9910 C.3    90  LEU90       0.0001
     55  CD2       39.4870  -43.0370  -23.4250 C.3    90  LEU90       0.0001
     56  N         36.6240  -40.6370  -19.5410 N.am   91  ARG91      -0.1963
     57  CA        35.2950  -40.2420  -19.0730 C.3    91  ARG91       0.1729
     58  C         35.3140  -39.7780  -17.6320 C.2    91  ARG91       0.2616
     59  O         35.9960  -40.3590  -16.7970 O.2    91  ARG91      -0.2715
     60  CB        34.3000  -41.3950  -19.2290 C.3    91  ARG91       0.0348
     61  CG        34.0310  -41.7480  -20.6910 C.3    91  ARG91       0.0492
     62  CD        32.8000  -42.6220  -20.8730 C.3    91  ARG91       0.2205
     63  NE        32.6120  -42.8760  -22.2960 N.pl3  91  ARG91      -0.0865
     64  CZ        33.1410  -43.9030  -22.9580 C.cat  91  ARG91       0.5346
     65  NH1       32.9220  -44.0150  -24.2590 N.pl3  91  ARG91       0.1354
     66  NH2       33.8720  -44.8300  -22.3380 N.pl3  91  ARG91       0.1354
     67  N         34.5490  -38.7270  -17.3590 N.am   92  LEU92      -0.1963
     68  CA        34.3800  -38.2260  -16.0300 C.3    92  LEU92       0.1728
     69  C         33.0310  -37.5320  -15.9730 C.2    92  LEU92       0.2616
     70  O         32.8140  -36.5240  -16.6580 O.2    92  LEU92      -0.2715
     71  CB        35.5110  -37.2710  -15.6840 C.3    92  LEU92       0.0311
     72  CG        35.2780  -36.4340  -14.4310 C.3    92  LEU92       0.0022
     73  CD1       35.0110  -37.3690  -13.2910 C.3    92  LEU92       0.0001
     74  CD2       36.4470  -35.4490  -14.1380 C.3    92  LEU92       0.0001
     75  N         32.1180  -38.1160  -15.1920 N.am   93  TYR93      -0.1960
     76  CA        30.7470  -37.6510  -15.1110 C.3    93  TYR93       0.1771
     77  C         30.1420  -37.8480  -13.7360 C.2    93  TYR93       0.2619
     78  O         30.3590  -38.8830  -13.1010 O.2    93  TYR93      -0.2715
     79  CB        29.8930  -38.4120  -16.1110 C.3    93  TYR93       0.0574
     80  CG        30.2610  -38.1870  -17.5340 C.ar   93  TYR93      -0.0198
     81  CD1       29.7810  -37.0800  -18.2120 C.ar   93  TYR93      -0.0009
     82  CD2       31.0930  -39.0670  -18.2080 C.ar   93  TYR93      -0.0009
     83  CE1       30.1060  -36.8410  -19.5240 C.ar   93  TYR93       0.0417
     84  CE2       31.4610  -38.8160  -19.5290 C.ar   93  TYR93       0.0417
     85  CZ        30.9490  -37.7060  -20.1780 C.ar   93  TYR93       0.1957
     86  OH        31.2690  -37.4470  -21.4880 O.3    93  TYR93      -0.2866
     87  N         29.3600  -36.8630  -13.3030 N.am   94  LEU94      -0.1977
     88  CA        28.5840  -36.9390  -12.0690 C.3    94  LEU94       0.1596
     89  C         27.1110  -36.7790  -12.3850 C.2    94  LEU94       0.2287
     90  O         26.7520  -36.1720  -13.3890 O.2    94  LEU94      -0.2864
     91  CB        28.9780  -35.8100  -11.1150 C.3    94  LEU94       0.0297
     92  CG        30.4580  -35.5140  -10.9030 C.3    94  LEU94       0.0022
     93  CD1       30.6500  -34.3500   -9.8870 C.3    94  LEU94       0.0001
     94  CD2       31.2090  -36.7410  -10.4690 C.3    94  LEU94       0.0001
     95  N         26.9880  -32.0080   -8.8660 N.3    99  THR99      -0.1203
     96  CA        28.0920  -31.2070   -9.4120 C.3    99  THR99       0.1994
     97  C         28.4120  -30.0020   -8.5570 C.2    99  THR99       0.2618
     98  O         27.5920  -29.5790   -7.7820 O.2    99  THR99      -0.2717
     99  CB        27.8280  -30.7020  -10.8520 C.3    99  THR99       0.1784
    100  OG1       26.6260  -29.9160  -10.8970 O.3    99  THR99      -0.2211
    101  CG2       27.7210  -31.8850  -11.8070 C.3    99  THR99       0.0376
    102  N         29.6280  -29.4760   -8.7040 N.am  100  HIS100     -0.1961
    103  CA        30.0280  -28.1750   -8.1610 C.3   100  HIS100      0.1787
    104  C         30.2310  -28.2440   -6.6450 C.2   100  HIS100      0.2620
    105  O         30.0710  -27.2720   -5.9390 O.2   100  HIS100     -0.2715
    106  CB        29.0320  -27.0550   -8.5770 C.3   100  HIS100      0.0785
    107  CG        29.6100  -25.6530   -8.6190 C.ar  100  HIS100      0.0821
    108  ND1       30.0960  -25.0140   -7.5050 N.ar  100  HIS100     -0.2267
    109  CD2       29.6930  -24.7480   -9.6280 C.ar  100  HIS100      0.1154
    110  CE1       30.4860  -23.7890   -7.8290 C.ar  100  HIS100      0.1986
    111  NE2       30.2240  -23.5910   -9.1060 N.ar  100  HIS100     -0.2212
    112  N         30.6480  -29.4110   -6.1730 N.am  101  LYS101     -0.1963
    113  CA        30.9860  -29.6280   -4.7630 C.3   101  LYS101      0.1728
    114  C         32.3130  -30.3560   -4.6520 C.2   101  LYS101      0.2616
    115  O         32.5460  -30.9950   -3.6540 O.2   101  LYS101     -0.2715
    116  CB        29.9120  -30.4850   -4.0810 C.3   101  LYS101      0.0311
    117  CG        28.5180  -29.8450   -4.0670 C.3   101  LYS101      0.0038
    118  CD        27.4060  -30.8730   -3.8340 C.3   101  LYS101      0.0206
    119  CE        26.0060  -30.2600   -4.1100 C.3   101  LYS101      0.1093
    120  NZ        25.7070  -29.9670   -5.5950 N.3   101  LYS101     -0.1314
    121  N         33.1620  -30.2890   -5.6840 N.am  102  LYS102     -0.1963
    122  CA        34.5270  -30.8470   -5.6460 C.3   102  LYS102      0.1728
    123  C         34.5900  -32.3820   -5.6640 C.2   102  LYS102      0.2616
    124  O         35.6770  -32.9590   -5.4700 O.2   102  LYS102     -0.2715
    125  CB        35.3180  -30.3610   -4.4270 C.3   102  LYS102      0.0311
    126  CG        35.2940  -28.8530   -4.1400 C.3   102  LYS102      0.0038
    127  CD        36.0720  -28.0880   -5.1740 C.3   102  LYS102      0.0206
    128  CE        36.3790  -26.6470   -4.7360 C.3   102  LYS102      0.1093
    129  NZ        37.2880  -26.0240   -5.7550 N.3   102  LYS102     -0.1314
    130  N         33.4610  -33.0440   -5.9040 N.am  103  ILE103     -0.1963
    131  CA        33.4490  -34.4950   -6.0630 C.3   103  ILE103      0.1727
    132  C         34.2160  -34.8710   -7.3390 C.2   103  ILE103      0.2617
    133  O         34.9950  -35.8040   -7.3290 O.2   103  ILE103     -0.2715
    134  CB        32.0190  -35.0740   -6.0880 C.3   103  ILE103      0.0290
    135  CG1       31.3450  -34.8710   -4.7200 C.3   103  ILE103      0.0022
    136  CG2       32.0420  -36.5680   -6.4280 C.3   103  ILE103      0.0023
    137  CD1       29.7720  -35.0700   -4.7310 C.3   103  ILE103      0.0001
    138  N         34.0420  -34.1070   -8.4200 N.am  104  GLY104     -0.1940
    139  CA        34.8760  -34.2980   -9.6130 C.3   104  GLY104      0.2014
    140  C         36.3820  -34.1190   -9.3910 C.2   104  GLY104      0.2638
    141  O         37.1890  -34.8860   -9.8850 O.2   104  GLY104     -0.2714
    142  N         36.7650  -33.0790   -8.6660 N.am  105  LYS105     -0.1977
    143  CA        38.1600  -32.8580   -8.3220 C.3   105  LYS105      0.1596
    144  C         38.6680  -34.0080   -7.4770 C.2   105  LYS105      0.2287
    145  O         39.8100  -34.3970   -7.6180 O.2   105  LYS105     -0.2864
    146  CB        38.2990  -31.5650   -7.5270 C.3   105  LYS105      0.0298
    147  CG        39.7030  -30.9830   -7.4310 C.3   105  LYS105      0.0038
    148  CD        39.6830  -29.7570   -6.5040 C.3   105  LYS105      0.0206
    149  CE        40.8790  -28.8300   -6.6930 C.3   105  LYS105      0.1093
    150  NZ        40.7250  -27.8610   -7.8530 N.3   105  LYS105     -0.1314
    151  N         43.1970  -35.6720  -22.7530 N.3   125  LEU125     -0.1231
    152  CA        41.7670  -35.8620  -22.7950 C.3   125  LEU125      0.1693
    153  C         41.1940  -35.1160  -23.9750 C.2   125  LEU125      0.2592
    154  O         41.8190  -34.1930  -24.5100 O.2   125  LEU125     -0.2718
    155  CB        41.1170  -35.3680  -21.4980 C.3   125  LEU125      0.0284
    156  CG        41.2200  -33.8600  -21.1930 C.3   125  LEU125      0.0019
    157  CD1       40.1040  -33.0740  -21.8760 C.3   125  LEU125      0.0001
    158  CD2       41.2820  -33.5120  -19.6830 C.3   125  LEU125      0.0001
    159  N         39.9910  -35.5360  -24.3510 N.am  126  TYR126     -0.1962
    160  CA        39.1870  -34.9490  -25.4080 C.3   126  TYR126      0.1771
    161  C         37.8860  -34.4930  -24.7950 C.2   126  TYR126      0.2619
    162  O         37.1440  -35.3260  -24.2650 O.2   126  TYR126     -0.2715
    163  CB        38.7940  -36.0120  -26.4290 C.3   126  TYR126      0.0574
    164  CG        39.8920  -36.5150  -27.3030 C.ar  126  TYR126     -0.0198
    165  CD1       39.9760  -36.1240  -28.6300 C.ar  126  TYR126     -0.0009
    166  CD2       40.8360  -37.4240  -26.8160 C.ar  126  TYR126     -0.0009
    167  CE1       41.0140  -36.6130  -29.4650 C.ar  126  TYR126      0.0417
    168  CE2       41.8690  -37.9150  -27.6270 C.ar  126  TYR126      0.0417
    169  CZ        41.9500  -37.5120  -28.9530 C.ar  126  TYR126      0.1957
    170  OH        42.9520  -38.0050  -29.7680 O.3   126  TYR126     -0.2866
    171  N         37.6050  -33.1940  -24.8880 N.am  127  VAL127     -0.1963
    172  CA        36.3850  -32.6000  -24.3490 C.3   127  VAL127      0.1727
    173  C         35.7010  -31.8380  -25.4770 C.2   127  VAL127      0.2616
    174  O         36.3620  -31.1060  -26.2510 O.2   127  VAL127     -0.2715
    175  CB        36.6990  -31.6450  -23.1680 C.3   127  VAL127      0.0290
    176  CG1       37.7140  -30.5530  -23.5720 C.3   127  VAL127      0.0023
    177  CG2       35.4030  -31.0230  -22.6060 C.3   127  VAL127      0.0023
    178  N         34.3920  -32.0360  -25.6080 N.am  128  HIS128     -0.1973
    179  CA        33.6250  -31.3480  -26.6330 C.3   128  HIS128      0.1656
    180  C         33.7570  -29.8350  -26.4350 C.2   128  HIS128      0.2291
    181  O         33.6540  -29.3150  -25.3130 O.2   128  HIS128     -0.2864
    182  CB        32.1520  -31.7660  -26.5820 C.3   128  HIS128      0.0771
    183  CG        31.3920  -31.4040  -27.8090 C.ar  128  HIS128      0.0820
    184  ND1       31.1480  -30.0940  -28.1730 N.ar  128  HIS128     -0.2267
    185  CD2       30.8380  -32.1780  -28.7750 C.ar  128  HIS128      0.1154
    186  CE1       30.4730  -30.0750  -29.3110 C.ar  128  HIS128      0.1986
    187  NE2       30.2670  -31.3270  -29.6940 N.ar  128  HIS128     -0.2212
    188  N         31.1790  -27.9780  -24.4850 N.3   131  ASN131     -0.1240
    189  CA        30.9360  -28.3680  -23.0960 C.3   131  ASN131      0.1653
    190  C         31.7560  -27.4700  -22.1530 C.2   131  ASN131      0.2266
    191  O         32.8840  -27.8090  -21.7500 O.2   131  ASN131     -0.2867
    192  CB        31.2720  -29.8370  -22.8950 C.3   131  ASN131      0.1155
    193  CG        31.1170  -30.2760  -21.4600 C.2   131  ASN131      0.2627
    194  OD1       30.5340  -29.5660  -20.6170 O.2   131  ASN131     -0.2716
    195  ND2       31.6760  -31.4320  -21.1550 N.am  131  ASN131     -0.0877
    196  N         31.0020  -26.6330  -19.1380 N.3   133  VAL133     -0.1231
    197  CA        31.0350  -27.1840  -17.8020 C.3   133  VAL133      0.1692
    198  C         32.3230  -27.9950  -17.6520 C.2   133  VAL133      0.2592
    199  O         33.1500  -27.6870  -16.7910 O.2   133  VAL133     -0.2718
    200  CB        29.7260  -27.9560  -17.4740 C.3   133  VAL133      0.0266
    201  CG1       29.8340  -28.7260  -16.1430 C.3   133  VAL133      0.0020
    202  CG2       28.4850  -26.9310  -17.4630 C.3   133  VAL133      0.0020
    203  N         32.5260  -28.9770  -18.5290 N.am  134  GLY134     -0.1957
    204  CA        33.7170  -29.8110  -18.4720 C.3   134  GLY134      0.1869
    205  C         35.0040  -29.0550  -18.7640 C.2   134  GLY134      0.2309
    206  O         35.9990  -29.2090  -18.0530 O.2   134  GLY134     -0.2863
    207  N         35.7680  -25.8010  -18.5250 N.3   136  SER136     -0.1202
    208  CA        36.1610  -24.8990  -17.4540 C.3   136  SER136      0.2020
    209  C         36.6930  -25.6570  -16.2170 C.2   136  SER136      0.2619
    210  O         37.7260  -25.2840  -15.6520 O.2   136  SER136     -0.2717
    211  CB        35.0420  -23.8970  -17.1060 C.3   136  SER136      0.2103
    212  OG        33.9330  -24.4800  -16.4520 O.3   136  SER136     -0.2182
    213  N         36.0410  -26.7490  -15.8330 N.am  137  PHE137     -0.1961
    214  CA        36.5770  -27.5800  -14.7750 C.3   137  PHE137      0.1771
    215  C         38.0120  -28.0290  -15.0710 C.2   137  PHE137      0.2619
    216  O         38.8540  -28.0700  -14.1690 O.2   137  PHE137     -0.2715
    217  CB        35.6990  -28.8360  -14.5950 C.3   137  PHE137      0.0574
    218  CG        36.3300  -29.9110  -13.7360 C.ar  137  PHE137     -0.0200
    219  CD1       36.9200  -31.0300  -14.3210 C.ar  137  PHE137     -0.0042
    220  CD2       36.3460  -29.7890  -12.3540 C.ar  137  PHE137     -0.0042
    221  CE1       37.4890  -32.0410  -13.5340 C.ar  137  PHE137     -0.0003
    222  CE2       36.9170  -30.7960  -11.5450 C.ar  137  PHE137     -0.0003
    223  CZ        37.4870  -31.9290  -12.1360 C.ar  137  PHE137     -0.0000
    224  N         38.2640  -28.4360  -16.3190 N.am  138  TYR138     -0.1974
    225  CA        39.5490  -29.0040  -16.6660 C.3   138  TYR138      0.1639
    226  C         40.6450  -27.9590  -16.6630 C.2   138  TYR138      0.2290
    227  O         41.7660  -28.2400  -16.2100 O.2   138  TYR138     -0.2864
    228  CB        39.5190  -29.7020  -18.0230 C.3   138  TYR138      0.0560
    229  CG        38.8030  -31.0290  -18.0350 C.ar  138  TYR138     -0.0198
    230  CD1       39.0970  -32.0060  -17.1130 C.ar  138  TYR138     -0.0009
    231  CD2       37.8380  -31.3060  -18.9890 C.ar  138  TYR138     -0.0009
    232  CE1       38.4320  -33.2230  -17.1080 C.ar  138  TYR138      0.0417
    233  CE2       37.1740  -32.5260  -19.0070 C.ar  138  TYR138      0.0417
    234  CZ        37.4830  -33.4720  -18.0560 C.ar  138  TYR138      0.1957
    235  OH        36.8560  -34.6810  -18.0730 O.3   138  TYR138     -0.2866
    236  N         40.5890  -25.3620  -14.9180 N.3   140  LYS140     -0.1231
    237  CA        40.7890  -24.9760  -13.5070 C.3   140  LYS140      0.1693
    238  C         41.5650  -26.0290  -12.7320 C.2   140  LYS140      0.2592
    239  O         41.8920  -25.8080  -11.5740 O.2   140  LYS140     -0.2718
    240  CB        39.4540  -24.6740  -12.8010 C.3   140  LYS140      0.0285
    241  CG        38.8330  -23.3420  -13.2780 C.3   140  LYS140      0.0035
    242  CD        37.3190  -23.2760  -13.0440 C.3   140  LYS140      0.0206
    243  CE        36.7210  -22.0810  -13.7870 C.3   140  LYS140      0.1093
    244  NZ        35.2600  -21.9440  -13.5380 N.3   140  LYS140     -0.1314
    245  N         41.8140  -27.1880  -13.3430 N.am  141  ASN141     -0.1974
    246  CA        42.6030  -28.2370  -12.7030 C.3   141  ASN141      0.1688
    247  C         43.9320  -28.5750  -13.4250 C.2   141  ASN141      0.2292
    248  O         44.3510  -29.7390  -13.4180 O.2   141  ASN141     -0.2864
    249  CB        41.7330  -29.4840  -12.5170 C.3   141  ASN141      0.1181
    250  CG        40.6920  -29.3040  -11.4210 C.2   141  ASN141      0.2629
    251  OD1       41.0220  -29.4400  -10.2530 O.2   141  ASN141     -0.2716
    252  ND2       39.4350  -28.9880  -11.7880 N.am  141  ASN141     -0.0877
@<TRIPOS>BOND
     1   170   169    1
     2   187   186   ar
     3   187   185   ar
     4   167   169   ar
     5   167   165   ar
     6   186   184   ar
     7   169   168   ar
     8   185   183   ar
     9   165   164   ar
    10   184   183   ar
    11   183   182    1
    12   168   166   ar
    13   164   166   ar
    14   164   163    1
    15   179   182    1
    16   179   180    1
    17   179   178    1
    18   180   181    2
    19   163   160    1
    20   174   173    2
    21   178   173   am
    22    31    30    2
    23   173   172    1
    24   160   161    1
    25   160   159    1
    26   171   161   am
    27   171   172    1
    28   161   162    2
    29    34    36   ar
    30    34    33   ar
    31    32    33    1
    32    32    29    1
    33   154   153    2
    34   188   189    1
    35    30    29    1
    36   159   153   am
    37   172   175    1
    38    36    38   ar
    39    65    64    1
    40    33    35   ar
    41   153   152    1
    42    29    28    1
    43   176   175    1
    44    38    39    1
    45    38    37   ar
    46    55    53    1
    47    35    37   ar
    48   175   177    1
    49   189   192    1
    50   189   190    1
    51    64    66    1
    52    64    63    2
    53   192   193    1
    54   152   151    1
    55   152   155    1
    56    28    23   am
    57    63    62    1
    58   190   191    2
    59    54    53    1
    60    53    52    1
    61    24    23    2
    62   157   156    1
    63    51    50    2
    64    23    22    1
    65   155   156    1
    66    86    85    1
    67   193   195   am
    68   193   194    2
    69    52    49    1
    70    49    50    1
    71    49    48    1
    72   156   158    1
    73    43    42    2
    74    62    61    1
    75    50    56   am
    76    61    60    1
    77    42    48   am
    78    42    41    1
    79    27    25    1
    80    40    41    1
    81    85    84   ar
    82    85    83   ar
    83    22    25    1
    84    22    21    1
    85    10     9    2
    86    25    26    1
    87    21     9   am
    88     9     8    1
    89    56    57    1
    90    84    82   ar
    91    83    81   ar
    92     7     8    1
    93    41    44    1
    94    60    57    1
    95   196   197    1
    96    57    58    1
    97   233   231   ar
    98   233   234   ar
    99   231   229   ar
   100     8    11    1
   101   205   204    1
   102   205   206    2
   103    44    45    1
   104   203   204    1
   105   203   198   am
   106   207   208    1
   107     4     3    2
   108    81    80   ar
   109    82    80   ar
   110     3     2    1
   111   235   234    1
   112   234   232   ar
   113   229   228    1
   114   229   230   ar
   115   228   225    1
   116   197   198    1
   117   197   200    1
   118   198   199    2
   119    58    67   am
   120    58    59    2
   121    47    45    1
   122    80    79    1
   123   200   202    1
   124   200   201    1
   125   208   211    1
   126   208   209    1
   127    11    12    1
   128    45    46    1
   129    67    68    1
   130   230   232   ar
   131   211   212    1
   132    12    13   ar
   133    12    14   ar
   134   225   226    1
   135   225   224    1
   136   226   227    2
   137    70    69    2
   138     2     1    1
   139     2     5    1
   140    13    15   ar
   141   224   215   am
   142    14    17   ar
   143    14    16   ar
   144    17    19   ar
   145   209   213   am
   146   209   210    2
   147     5     6    1
   148    79    76    1
   149    68    69    1
   150    68    71    1
   151    69    75   am
   152    15    16   ar
   153   213   214    1
   154    16    18   ar
   155    71    72    1
   156    19    20   ar
   157    75    76    1
   158    18    20   ar
   159    76    77    1
   160   215   214    1
   161   215   216    2
   162   236   237    1
   163   214   217    1
   164   217   218    1
   165    72    74    1
   166    72    73    1
   167   219   218   ar
   168   219   221   ar
   169   243   244    1
   170   243   242    1
   171   218   220   ar
   172    77    87   am
   173    77    78    2
   174   221   223   ar
   175   237   240    1
   176   237   238    1
   177   247   248    2
   178   247   246    1
   179    90    89    2
   180   245   238   am
   181   245   246    1
   182    87    88    1
   183   241   242    1
   184   241   240    1
   185   238   239    2
   186   246   249    1
   187   249   250    1
   188    89    88    1
   189   220   222   ar
   190   223   222   ar
   191    88    91    1
   192   101    99    1
   193   252   250   am
   194   250   251    2
   195    91    92    1
   196    92    94    1
   197    92    93    1
   198   100    99    1
   199    99    96    1
   200   141   140    2
   201   109   111   ar
   202   109   107   ar
   203   139   140    1
   204   139   138    1
   205    96    95    1
   206    96    97    1
   207   140   142   am
   208   111   110   ar
   209   102    97   am
   210   102   103    1
   211   142   143    1
   212   107   106    1
   213   107   108   ar
   214   106   103    1
   215    97    98    2
   216   138   132   am
   217   143   146    1
   218   143   144    1
   219   103   104    1
   220   150   149    1
   221   110   108   ar
   222   145   144    2
   223   146   147    1
   224   147   148    1
   225   132   133    2
   226   132   131    1
   227   149   148    1
   228   104   112   am
   229   104   105    2
   230   136   134    1
   231   112   113    1
   232   134   131    1
   233   134   135    1
   234   131   130    1
   235   130   123   am
   236   129   128    1
   237   121   122    1
   238   121   114   am
   239   123   122    1
   240   123   124    2
   241   122   125    1
   242   120   119    1
   243   127   128    1
   244   127   126    1
   245   113   114    1
   246   113   116    1
   247   137   135    1
   248   114   115    2
   249   125   126    1
   250   119   118    1
   251   116   117    1
   252   117   118    1
