@<TRIPOS>MOLECULE
tmp/3k9vB01.pdb
 176 167 0 0 0
SMALL
GASTEIGER

@<TRIPOS>ATOM
      1  N        -27.0200  -15.0530   73.9540 N.3    78  ARG78      -0.1245
      2  CA       -28.1420  -14.2120   74.3190 C.3    78  ARG78       0.1563
      3  C        -28.9650  -13.9870   73.0500 C.2    78  ARG78       0.2260
      4  O        -28.6190  -14.5070   71.9940 O.2    78  ARG78      -0.2867
      5  CB       -27.6320  -12.9080   74.9410 C.3    78  ARG78       0.0307
      6  CG       -26.9650  -13.1410   76.2880 C.3    78  ARG78       0.0489
      7  CD       -26.6890  -11.8870   77.0550 C.3    78  ARG78       0.2205
      8  NE       -25.5440  -11.2460   76.4660 N.pl3  78  ARG78      -0.0865
      9  CZ       -24.2920  -11.3590   76.8930 C.cat  78  ARG78       0.5346
     10  NH1      -23.3460  -10.7330   76.2140 N.pl3  78  ARG78       0.1354
     11  NH2      -23.9850  -12.0620   77.9810 N.pl3  78  ARG78       0.1354
     12  N        -28.4690   -8.9200   68.7670 N.3    81  ILE81      -0.1245
     13  CA       -28.6400   -7.5070   68.5050 C.3    81  ILE81       0.1561
     14  C        -28.2880   -7.3350   67.0270 C.2    81  ILE81       0.2260
     15  O        -27.1220   -7.1690   66.6650 O.2    81  ILE81      -0.2867
     16  CB       -27.6880   -6.6950   69.3960 C.3    81  ILE81       0.0252
     17  CG1      -27.8340   -7.1510   70.8590 C.3    81  ILE81       0.0019
     18  CG2      -27.9190   -5.1890   69.2330 C.3    81  ILE81       0.0019
     19  CD1      -26.6330   -6.8320   71.7570 C.3    81  ILE81       0.0001
     20  N        -26.4350   -3.8800   65.5330 N.3    84  TRP84      -0.1241
     21  CA       -24.9970   -3.8460   65.7970 C.3    84  TRP84       0.1605
     22  C        -24.2180   -4.7120   64.8210 C.2    84  TRP84       0.2264
     23  O        -23.1830   -4.2870   64.3150 O.2    84  TRP84      -0.2867
     24  CB       -24.6650   -4.2400   67.2340 C.3    84  TRP84       0.0550
     25  CG       -25.0760   -3.2250   68.2490 C.ar   84  TRP84       0.0003
     26  CD1      -25.9340   -2.1810   68.0680 C.ar   84  TRP84       0.0946
     27  CD2      -24.6910   -3.1890   69.6300 C.ar   84  TRP84       0.0152
     28  NE1      -26.0850   -1.4830   69.2360 N.ar   84  TRP84      -0.2442
     29  CE2      -25.3420   -2.0830   70.2150 C.ar   84  TRP84       0.0810
     30  CE3      -23.8470   -3.9720   70.4220 C.ar   84  TRP84       0.0012
     31  CZ2      -25.1760   -1.7410   71.5550 C.ar   84  TRP84       0.0191
     32  CZ3      -23.6820   -3.6310   71.7500 C.ar   84  TRP84       0.0001
     33  CH2      -24.3440   -2.5300   72.3070 C.ar   84  TRP84       0.0015
     34  N        -20.1960   -8.8480   72.9320 N.3    98  MET98      -0.1245
     35  CA       -21.6540   -8.8280   73.0120 C.3    98  MET98       0.1570
     36  C        -22.3720   -9.4880   71.8270 C.2    98  MET98       0.2261
     37  O        -23.5110   -9.9260   71.9550 O.2    98  MET98      -0.2867
     38  CB       -22.1670   -7.4060   73.2600 C.3    98  MET98       0.0387
     39  CG       -21.9910   -6.9610   74.7050 C.3    98  MET98       0.0595
     40  SD       -22.6720   -5.3350   75.0540 S.3    98  MET98      -0.1393
     41  CE       -21.5700   -4.2590   74.1440 C.3    98  MET98       0.0692
     42  N        -27.1990   11.6320   88.2690 N.3   154  TYR154     -0.1227
     43  CA       -27.0190   10.4660   87.3960 C.3   154  TYR154      0.1736
     44  C        -26.0970   10.7630   86.2020 C.2   154  TYR154      0.2596
     45  O        -25.2170    9.9650   85.8670 O.2   154  TYR154     -0.2718
     46  CB       -28.3600    9.9110   86.9280 C.3   154  TYR154      0.0548
     47  CG       -28.2500    8.5670   86.2520 C.ar  154  TYR154     -0.0200
     48  CD1      -27.5790    7.5030   86.8640 C.ar  154  TYR154     -0.0009
     49  CD2      -28.8230    8.3530   85.0020 C.ar  154  TYR154     -0.0009
     50  CE1      -27.4830    6.2600   86.2450 C.ar  154  TYR154      0.0417
     51  CE2      -28.7400    7.1170   84.3730 C.ar  154  TYR154      0.0417
     52  CZ       -28.0690    6.0790   84.9980 C.ar  154  TYR154      0.1957
     53  OH       -27.9940    4.8680   84.3680 O.3   154  TYR154     -0.2866
     54  N        -26.3090   11.9190   85.5820 N.am  155  SER155     -0.1952
     55  CA       -25.4350   12.4200   84.5260 C.3   155  SER155      0.1924
     56  C        -23.9750   12.5320   84.9900 C.2   155  SER155      0.2314
     57  O        -23.0530   12.1250   84.2760 O.2   155  SER155     -0.2863
     58  CB       -25.9620   13.7770   84.0660 C.3   155  SER155      0.2116
     59  OG       -25.2550   14.2590   82.9500 O.3   155  SER155     -0.2180
     60  N        -22.1950    9.2200   85.5350 N.3   158  ASN158     -0.1240
     61  CA       -21.8330    8.7260   84.2180 C.3   158  ASN158      0.1653
     62  C        -20.5530    9.3490   83.6560 C.2   158  ASN158      0.2266
     63  O        -19.7410    8.6540   83.0370 O.2   158  ASN158     -0.2867
     64  CB       -23.0010    8.8610   83.2380 C.3   158  ASN158      0.1155
     65  CG       -23.9540    7.6940   83.3240 C.2   158  ASN158      0.2627
     66  OD1      -23.8520    6.7500   82.5440 O.2   158  ASN158     -0.2716
     67  ND2      -24.8700    7.7320   84.2880 N.am  158  ASN158     -0.0877
     68  N        -24.7740    8.5940   72.5270 N.3   193  LYS193     -0.1245
     69  CA       -26.1940    8.8950   72.7640 C.3   193  LYS193      0.1561
     70  C        -27.0140    8.5660   71.5220 C.2   193  LYS193      0.2260
     71  O        -28.0110    7.8500   71.5960 O.2   193  LYS193     -0.2867
     72  CB       -26.4010   10.3790   73.1110 C.3   193  LYS193      0.0271
     73  CG       -26.6260   10.7030   74.5860 C.3   193  LYS193      0.0035
     74  CD       -25.3090   10.9920   75.3140 C.3   193  LYS193      0.0206
     75  CE       -25.5430   11.4900   76.7490 C.3   193  LYS193      0.1093
     76  NZ       -24.3210   11.3360   77.5940 N.3   193  LYS193     -0.1314
     77  N        -27.2180    4.8170   70.8820 N.3   196  MET196     -0.1245
     78  CA       -28.1290    4.2130   71.8440 C.3   196  MET196      0.1570
     79  C        -29.6030    4.4630   71.5230 C.2   196  MET196      0.2261
     80  O        -30.4470    3.5880   71.7460 O.2   196  MET196     -0.2867
     81  CB       -27.8240    4.6930   73.2650 C.3   196  MET196      0.0387
     82  CG       -26.5280    4.1350   73.8900 C.3   196  MET196      0.0595
     83  SD       -26.2540    2.3480   73.6970 S.3   196  MET196     -0.1393
     84  CE       -27.8310    1.6670   74.1880 C.3   196  MET196      0.0692
     85  N        -30.4480    2.5380   67.6720 N.3   199  PHE199     -0.1241
     86  CA       -30.3720    1.0750   67.4930 C.3   199  PHE199      0.1605
     87  C        -31.6390    0.3870   68.0020 C.2   199  PHE199      0.2264
     88  O        -32.0740   -0.6190   67.4380 O.2   199  PHE199     -0.2867
     89  CB       -29.0760    0.4580   68.0640 C.3   199  PHE199      0.0534
     90  CG       -29.2520   -0.2810   69.3660 C.ar  199  PHE199     -0.0203
     91  CD1      -28.9120    0.3200   70.5710 C.ar  199  PHE199     -0.0042
     92  CD2      -29.7300   -1.5880   69.3830 C.ar  199  PHE199     -0.0042
     93  CE1      -29.0680   -0.3640   71.7780 C.ar  199  PHE199     -0.0003
     94  CE2      -29.8950   -2.2780   70.5810 C.ar  199  PHE199     -0.0003
     95  CZ       -29.5560   -1.6670   71.7840 C.ar  199  PHE199     -0.0000
     96  N        -18.8620    0.3290   76.1510 N.3   275  LEU275     -0.1231
     97  CA       -20.3000    0.5230   76.0660 C.3   275  LEU275      0.1693
     98  C        -21.0100   -0.1890   77.2060 C.2   275  LEU275      0.2591
     99  O        -21.9710    0.3320   77.7540 O.2   275  LEU275     -0.2718
    100  CB       -20.8620    0.0830   74.7130 C.3   275  LEU275      0.0284
    101  CG       -20.3730    0.8740   73.4940 C.3   275  LEU275      0.0019
    102  CD1      -20.9400    0.2720   72.1780 C.3   275  LEU275      0.0001
    103  CD2      -20.6810    2.3910   73.6280 C.3   275  LEU275      0.0001
    104  N        -20.5220   -1.3670   77.5750 N.am  276  ALA276     -0.1980
    105  CA       -21.1430   -2.1390   78.6410 C.3   276  ALA276      0.1597
    106  C        -20.7880   -1.6630   80.0470 C.2   276  ALA276      0.2287
    107  O        -21.4640   -2.0060   81.0010 O.2   276  ALA276     -0.2864
    108  CB       -20.7690   -3.6050   78.4890 C.3   276  ALA276      0.0319
    109  N        -22.5750    3.1080   81.7510 N.3   279  GLU279     -0.1231
    110  CA       -23.8560    3.3200   82.4060 C.3   279  GLU279      0.1699
    111  C        -24.1450    2.3360   83.5510 C.2   279  GLU279      0.2592
    112  O        -24.6630    2.7440   84.5900 O.2   279  GLU279     -0.2718
    113  CB       -25.0300    3.4080   81.4370 C.3   279  GLU279      0.0402
    114  CG       -26.0930    4.3370   82.0070 C.3   279  GLU279      0.1161
    115  CD       -27.4150    4.3250   81.2740 C.2   279  GLU279      0.3649
    116  OE1      -28.4360    4.6610   81.9090 O.co2 279  GLU279     -0.2457
    117  OE2      -27.4440    3.9920   80.0740 O.co2 279  GLU279     -0.2457
    118  N        -23.8010    1.0660   83.3620 N.am  280  THR280     -0.1953
    119  CA       -24.0310    0.0560   84.3900 C.3   280  THR280      0.1897
    120  C        -23.2940    0.3960   85.6950 C.2   280  THR280      0.2313
    121  O        -23.8650    0.2970   86.7850 O.2   280  THR280     -0.2863
    122  CB       -23.5970   -1.3540   83.9180 C.3   280  THR280      0.1794
    123  OG1      -22.2060   -1.3150   83.5330 O.3   280  THR280     -0.2208
    124  CG2      -24.4340   -1.8270   82.7340 C.3   280  THR280      0.0378
    125  N        -29.2640   -4.2420   86.3280 N.3   341  VAL341     -0.1245
    126  CA       -29.6930   -5.0610   85.2050 C.3   341  VAL341      0.1561
    127  C        -30.5770   -6.2010   85.7470 C.2   341  VAL341      0.2260
    128  O        -30.0780   -7.1790   86.2910 O.2   341  VAL341     -0.2867
    129  CB       -28.4620   -5.6320   84.4300 C.3   341  VAL341      0.0252
    130  CG1      -28.9010   -6.4520   83.2440 C.3   341  VAL341      0.0019
    131  CG2      -27.5280   -4.5090   83.9670 C.3   341  VAL341      0.0019
    132  N        -32.5840   -8.4630   84.2730 N.3   343  PHE343     -0.1227
    133  CA       -32.6190   -9.7360   83.5800 C.3   343  PHE343      0.1736
    134  C        -31.6330   -9.8970   82.4310 C.2   343  PHE343      0.2596
    135  O        -31.1570   -8.9210   81.8630 O.2   343  PHE343     -0.2718
    136  CB       -34.0510  -10.0830   83.1160 C.3   343  PHE343      0.0547
    137  CG       -34.6590   -9.0830   82.1900 C.ar  343  PHE343     -0.0202
    138  CD1      -34.4050   -9.1400   80.8190 C.ar  343  PHE343     -0.0042
    139  CD2      -35.5150   -8.1060   82.6800 C.ar  343  PHE343     -0.0042
    140  CE1      -34.9890   -8.2150   79.9390 C.ar  343  PHE343     -0.0003
    141  CE2      -36.0940   -7.1710   81.8290 C.ar  343  PHE343     -0.0003
    142  CZ       -35.8350   -7.2210   80.4540 C.ar  343  PHE343     -0.0000
    143  N        -31.3310  -11.1500   82.1050 N.am  344  THR344     -0.1939
    144  CA       -30.6020  -11.4750   80.8920 C.3   344  THR344      0.2028
    145  C        -31.3700  -12.5860   80.1400 C.2   344  THR344      0.2642
    146  O        -32.4270  -13.0120   80.5770 O.2   344  THR344     -0.2714
    147  CB       -29.1220  -11.8350   81.2010 C.3   344  THR344      0.1808
    148  OG1      -28.4000  -11.9820   79.9720 O.3   344  THR344     -0.2208
    149  CG2      -29.0220  -13.1100   82.0130 C.3   344  THR344      0.0379
    150  N        -30.8340  -13.0320   79.0110 N.am  345  THR345     -0.1950
    151  CA       -31.5160  -14.0120   78.1720 C.3   345  THR345      0.1897
    152  C        -30.5710  -15.0870   77.6660 C.2   345  THR345      0.2313
    153  O        -29.3660  -14.8430   77.4640 O.2   345  THR345     -0.2863
    154  CB       -32.1660  -13.3770   76.9080 C.3   345  THR345      0.1794
    155  OG1      -31.1750  -12.6470   76.1710 O.3   345  THR345     -0.2208
    156  CG2      -33.3310  -12.4560   77.2570 C.3   345  THR345      0.0378
    157  N        -35.3450    1.8650   81.7910 N.3   448  LEU448     -0.1231
    158  CA       -34.8770    2.5580   80.5950 C.3   448  LEU448      0.1693
    159  C        -33.5210    1.9880   80.1940 C.2   448  LEU448      0.2593
    160  O        -32.4750    2.6300   80.3690 O.2   448  LEU448     -0.2718
    161  CB       -34.7920    4.0660   80.8490 C.3   448  LEU448      0.0284
    162  CG       -36.1050    4.7790   81.2140 C.3   448  LEU448      0.0019
    163  CD1      -35.8430    6.1530   81.8550 C.3   448  LEU448      0.0001
    164  CD2      -37.0260    4.9010   79.9900 C.3   448  LEU448      0.0001
    165  N        -33.5430    0.7680   79.6640 N.am  449  GLY449     -0.1942
    166  CA       -32.3090    0.0400   79.3320 C.3   449  GLY449      0.2014
    167  C        -31.6570   -0.5240   80.5800 C.2   449  GLY449      0.2638
    168  O        -30.9390   -1.5170   80.5300 O.2   449  GLY449     -0.2714
    169  N        -31.9240    0.1190   81.7100 N.am  450  ILE450     -0.1977
    170  CA       -31.3080   -0.2300   82.9740 C.3   450  ILE450      0.1596
    171  C        -32.2560    0.3820   84.0010 C.2   450  ILE450      0.2287
    172  O        -33.0410    1.2760   83.6600 O.2   450  ILE450     -0.2864
    173  CB       -29.8570    0.3490   83.0390 C.3   450  ILE450      0.0276
    174  CG1      -29.0640   -0.2490   84.1900 C.3   450  ILE450      0.0022
    175  CG2      -29.8410    1.8830   83.0790 C.3   450  ILE450      0.0022
    176  CD1      -27.5840   -0.2420   83.9550 C.3   450  ILE450      0.0001
@<TRIPOS>BOND
     1    23    22    2
     2    22    21    1
     3    20    21    1
     4    21    24    1
     5    15    14    2
     6    14    13    1
     7    24    25    1
     8    88    87    2
     9    86    85    1
    10    86    87    1
    11    86    89    1
    12    89    90    1
    13    26    25   ar
    14    26    28   ar
    15    25    27   ar
    16    13    12    1
    17    13    16    1
    18    18    16    1
    19    28    29   ar
    20    90    92   ar
    21    90    91   ar
    22    92    94   ar
    23    16    17    1
    24    27    29   ar
    25    27    30   ar
    26    29    31   ar
    27    30    32   ar
    28    91    93   ar
    29    94    95   ar
    30    17    19    1
    31    77    78    1
    32    70    71    2
    33    70    69    1
    34    79    80    2
    35    79    78    1
    36    31    33   ar
    37    32    33   ar
    38    93    95   ar
    39    36    37    2
    40    36    35    1
    41    78    81    1
    42     4     3    2
    43   102   101    1
    44    68    69    1
    45    69    72    1
    46    34    35    1
    47    35    38    1
    48     3     2    1
    49    72    73    1
    50    38    39    1
    51    81    82    1
    52   101   103    1
    53   101   100    1
    54    83    82    1
    55    83    84    1
    56     1     2    1
    57    41    40    1
    58     2     5    1
    59    73    74    1
    60    39    40    1
    61   100    97    1
    62     5     6    1
    63    74    75    1
    64    97    96    1
    65    97    98    1
    66   155   154    1
    67    10     9    1
    68     6     7    1
    69     8     9    2
    70     8     7    1
    71    75    76    1
    72     9    11    1
    73   154   156    1
    74   154   151    1
    75    98   104   am
    76    98    99    2
    77   153   152    2
    78   104   105    1
    79   152   151    1
    80   151   150    1
    81   108   105    1
    82   105   106    1
    83   150   145   am
    84   166   165    1
    85   166   167    1
    86   165   159   am
    87   140   142   ar
    88   140   138   ar
    89   148   147    1
    90   164   162    1
    91   106   107    2
    92   117   115   ar
    93   145   146    2
    94   145   144    1
    95   159   160    2
    96   159   158    1
    97   142   141   ar
    98   168   167    2
    99   167   169   am
   100   158   161    1
   101   158   157    1
   102   138   137   ar
   103   161   162    1
   104   144   147    1
   105   144   143    1
   106   147   149    1
   107   162   163    1
   108   115   116   ar
   109   115   114    1
   110   113   114    1
   111   113   110    1
   112   169   170    1
   113   109   110    1
   114   141   139   ar
   115   135   134    2
   116   143   134   am
   117   137   139   ar
   118   137   136    1
   119   110   111    1
   120   134   133    1
   121    66    65    2
   122   124   122    1
   123    59    58    1
   124   170   173    1
   125   170   171    1
   126    63    62    2
   127   173   175    1
   128   173   174    1
   129   136   133    1
   130    64    65    1
   131    64    61    1
   132   130   129    1
   133    65    67   am
   134   118   111   am
   135   118   119    1
   136   123   122    1
   137   111   112    2
   138   133   132    1
   139    62    61    1
   140   172   171    2
   141   122   119    1
   142   176   174    1
   143   131   129    1
   144    58    55    1
   145    61    60    1
   146    57    56    2
   147    53    52    1
   148    51    52   ar
   149    51    49   ar
   150   119   120    1
   151   129   126    1
   152    55    56    1
   153    55    54    1
   154    52    50   ar
   155    49    47   ar
   156   126   127    1
   157   126   125    1
   158    54    44   am
   159   120   121    2
   160   127   128    2
   161    45    44    2
   162    44    43    1
   163    50    48   ar
   164    47    48   ar
   165    47    46    1
   166    46    43    1
   167    43    42    1
