@<TRIPOS>MOLECULE
tmp/3k9vB02.pdb
 112 106 0 0 0
SMALL
GASTEIGER

@<TRIPOS>ATOM
      1  N        -49.5050   -9.3120   74.8280 N.3    20  LEU20      -0.1245
      2  CA       -48.9700   -8.0040   74.5080 C.3    20  LEU20       0.1561
      3  C        -49.7640   -6.8450   75.1090 C.2    20  LEU20       0.2260
      4  O        -49.1810   -5.8850   75.6190 O.2    20  LEU20      -0.2867
      5  CB       -48.8990   -7.8550   73.0020 C.3    20  LEU20       0.0270
      6  CG       -47.9430   -6.8300   72.4190 C.3    20  LEU20       0.0019
      7  CD1      -46.5530   -6.9490   73.0370 C.3    20  LEU20       0.0001
      8  CD2      -47.9050   -7.0510   70.9100 C.3    20  LEU20       0.0001
      9  N        -49.1420   -6.2040   78.7810 N.3    23  ILE23      -0.1231
     10  CA       -47.8660   -5.4990   78.9180 C.3    23  ILE23       0.1692
     11  C        -47.9980   -3.9710   78.9100 C.2    23  ILE23       0.2592
     12  O        -47.3700   -3.2880   79.7260 O.2    23  ILE23      -0.2718
     13  CB       -46.8450   -5.9920   77.8370 C.3    23  ILE23       0.0266
     14  CG1      -46.0230   -7.1610   78.3790 C.3    23  ILE23       0.0019
     15  CG2      -45.9310   -4.8640   77.3310 C.3    23  ILE23       0.0020
     16  CD1      -45.2570   -6.8550   79.6570 C.3    23  ILE23       0.0001
     17  N        -48.8100   -3.4480   77.9920 N.am   24  PHE24      -0.1976
     18  CA       -49.0070   -2.0020   77.8720 C.3    24  PHE24       0.1639
     19  C        -49.9290   -1.4420   78.9420 C.2    24  PHE24       0.2290
     20  O        -49.7400   -0.3170   79.3980 O.2    24  PHE24      -0.2864
     21  CB       -49.5250   -1.6250   76.4830 C.3    24  PHE24       0.0560
     22  CG       -48.5770   -1.9700   75.3720 C.ar   24  PHE24      -0.0200
     23  CD1      -47.2560   -1.5330   75.4050 C.ar   24  PHE24      -0.0042
     24  CD2      -49.0080   -2.7240   74.2860 C.ar   24  PHE24      -0.0042
     25  CE1      -46.3720   -1.8520   74.3770 C.ar   24  PHE24      -0.0003
     26  CE2      -48.1360   -3.0460   73.2420 C.ar   24  PHE24      -0.0003
     27  CZ       -46.8140   -2.6100   73.2860 C.ar   24  PHE24      -0.0000
     28  N        -47.7440   -0.7980   81.7920 N.3    27  GLY27      -0.1210
     29  CA       -46.8140    0.3240   81.6480 C.3    27  GLY27       0.1956
     30  C        -45.8250    0.2190   80.4970 C.2    27  GLY27       0.2612
     31  O        -45.0080    1.1150   80.2880 O.2    27  GLY27      -0.2717
     32  N        -45.9010   -0.8720   79.7440 N.am   28  GLY28      -0.1942
     33  CA       -44.9600   -1.1160   78.6570 C.3    28  GLY28       0.2014
     34  C        -43.5530   -1.3920   79.1610 C.2    28  GLY28       0.2639
     35  O        -43.3690   -1.8820   80.2840 O.2    28  GLY28      -0.2714
     36  N        -42.5630   -1.0740   78.3290 N.am   29  LEU29      -0.1963
     37  CA       -41.1530   -1.2820   78.6690 C.3    29  LEU29       0.1728
     38  C        -40.7400   -0.6730   80.0060 C.2    29  LEU29       0.2616
     39  O        -40.0240   -1.3070   80.7840 O.2    29  LEU29      -0.2715
     40  CB       -40.2510   -0.7120   77.5720 C.3    29  LEU29       0.0311
     41  CG       -40.0110   -1.5010   76.2880 C.3    29  LEU29       0.0022
     42  CD1      -39.0170   -0.7280   75.4110 C.3    29  LEU29       0.0001
     43  CD2      -39.4860   -2.9120   76.5860 C.3    29  LEU29       0.0001
     44  N        -41.1940    0.5490   80.2690 N.am   30  LYS30      -0.1977
     45  CA       -40.8120    1.2760   81.4860 C.3    30  LYS30       0.1596
     46  C        -41.0310    0.5130   82.7910 C.2    30  LYS30       0.2287
     47  O        -40.3460    0.7650   83.7800 O.2    30  LYS30      -0.2864
     48  CB       -41.5260    2.6300   81.5580 C.3    30  LYS30       0.0298
     49  CG       -41.0550    3.6140   80.5000 C.3    30  LYS30       0.0038
     50  CD       -41.7770    4.9570   80.5770 C.3    30  LYS30       0.0206
     51  CE       -41.3150    5.8630   79.4270 C.3    30  LYS30       0.1093
     52  NZ       -41.2930    7.3140   79.7930 N.3    30  LYS30      -0.1314
     53  N        -41.6720   -3.0930   82.8490 N.3    32  GLN32      -0.1245
     54  CA       -41.5060   -4.5330   82.6040 C.3    32  GLN32       0.1566
     55  C        -40.9970   -5.3200   83.8150 C.2    32  GLN32       0.2260
     56  O        -41.4820   -6.4120   84.0880 O.2    32  GLN32      -0.2867
     57  CB       -40.5940   -4.7670   81.3940 C.3    32  GLN32       0.0367
     58  CG       -40.4900   -6.2270   80.9410 C.3    32  GLN32       0.0905
     59  CD       -39.6060   -6.4230   79.7030 C.2    32  GLN32       0.2608
     60  OE1      -38.6290   -5.6930   79.4820 O.2    32  GLN32      -0.2717
     61  NE2      -39.9480   -7.4270   78.8940 N.am   32  GLN32      -0.0878
     62  N        -45.4700  -12.5500   73.2230 N.3    51  LEU51      -0.1245
     63  CA       -45.7270  -11.1870   72.7790 C.3    51  LEU51       0.1561
     64  C        -45.6490  -11.2300   71.2720 C.2    51  LEU51       0.2260
     65  O        -44.5570  -11.1880   70.6930 O.2    51  LEU51      -0.2867
     66  CB       -44.6890  -10.2340   73.3520 C.3    51  LEU51       0.0270
     67  CG       -44.5810  -10.2200   74.8820 C.3    51  LEU51       0.0019
     68  CD1      -43.4040   -9.3300   75.3480 C.3    51  LEU51       0.0001
     69  CD2      -45.9060   -9.7870   75.5270 C.3    51  LEU51       0.0001
     70  N        -42.9370  -13.3240   69.5420 N.3    54  PHE54      -0.1241
     71  CA       -41.8970  -13.5090   70.5630 C.3    54  PHE54       0.1605
     72  C        -42.3230  -14.4400   71.6910 C.2    54  PHE54       0.2264
     73  O        -43.1510  -14.0910   72.5370 O.2    54  PHE54      -0.2867
     74  CB       -41.4240  -12.1860   71.1540 C.3    54  PHE54       0.0534
     75  CG       -40.2430  -12.3260   72.0830 C.ar   54  PHE54      -0.0203
     76  CD1      -40.3350  -11.9280   73.4150 C.ar   54  PHE54      -0.0042
     77  CD2      -39.0340  -12.8490   71.6210 C.ar   54  PHE54      -0.0042
     78  CE1      -39.2410  -12.0460   74.2780 C.ar   54  PHE54      -0.0003
     79  CE2      -37.9370  -12.9840   72.4760 C.ar   54  PHE54      -0.0003
     80  CZ       -38.0390  -12.5780   73.8120 C.ar   54  PHE54      -0.0000
     81  N        -30.0580  -13.2370   73.1520 N.3    79  LEU79      -0.1231
     82  CA       -30.7870  -12.8140   71.9550 C.3    79  LEU79       0.1693
     83  C        -29.8470  -11.9510   71.1460 C.2    79  LEU79       0.2591
     84  O        -29.0110  -11.2530   71.7120 O.2    79  LEU79      -0.2718
     85  CB       -32.0220  -12.0040   72.3190 C.3    79  LEU79       0.0284
     86  CG       -33.2030  -12.7850   72.8770 C.3    79  LEU79       0.0019
     87  CD1      -34.1420  -11.8190   73.5340 C.3    79  LEU79       0.0001
     88  CD2      -33.9000  -13.5430   71.7720 C.3    79  LEU79       0.0001
     89  N        -29.9700  -12.0040   69.8250 N.am   80  GLU80      -0.1979
     90  CA       -29.0820  -11.2340   68.9670 C.3    80  GLU80       0.1602
     91  C        -29.4810   -9.7760   68.8550 C.2    80  GLU80       0.2287
     92  O        -30.6590   -9.4370   68.8680 O.2    80  GLU80      -0.2864
     93  CB       -28.8920  -11.8760   67.5900 C.3    80  GLU80       0.0415
     94  CG       -30.0720  -11.8140   66.6400 C.3    80  GLU80       0.1163
     95  CD       -29.7490  -12.4280   65.2810 C.2    80  GLU80       0.3649
     96  OE1      -28.5990  -12.2580   64.7900 O.co2  80  GLU80      -0.2457
     97  OE2      -30.6480  -13.0890   64.7090 O.co2  80  GLU80      -0.2457
     98  N        -35.0980   -2.4100   66.3000 N.3   203  MET203     -0.1230
     99  CA       -35.1980   -3.7020   66.9740 C.3   203  MET203      0.1702
    100  C        -36.5040   -4.4110   66.6400 C.2   203  MET203      0.2592
    101  O        -36.5820   -5.6390   66.7220 O.2   203  MET203     -0.2718
    102  CB       -35.0370   -3.5430   68.4910 C.3   203  MET203      0.0401
    103  CG       -33.6020   -3.2590   68.9460 C.3   203  MET203      0.0596
    104  SD       -32.4450   -4.6350   68.6530 S.3   203  MET203     -0.1393
    105  CE       -32.7450   -5.6890   70.0870 C.3   203  MET203      0.0692
    106  N        -37.5190   -3.6350   66.2650 N.am  204  VAL204     -0.1980
    107  CA       -38.8180   -4.1800   65.8590 C.3   204  VAL204      0.1595
    108  C        -38.9190   -4.1940   64.3390 C.2   204  VAL204      0.2287
    109  O        -38.9480   -5.2640   63.7330 O.2   204  VAL204     -0.2864
    110  CB       -39.9960   -3.3770   66.4580 C.3   204  VAL204      0.0276
    111  CG1      -41.3440   -3.9930   66.0650 C.3   204  VAL204      0.0022
    112  CG2      -39.8620   -3.3020   67.9700 C.3   204  VAL204      0.0022
@<TRIPOS>BOND
     1   109   108    2
     2   108   107    1
     3    97    95   ar
     4    96    95   ar
     5    95    94    1
     6   107   106    1
     7   107   110    1
     8   111   110    1
     9   106   100   am
    10    98    99    1
    11   110   112    1
    12    94    93    1
    13   100   101    2
    14   100    99    1
    15    99   102    1
    16    93    90    1
    17   102   103    1
    18   104   103    1
    19   104   105    1
    20    91    92    2
    21    91    90    1
    22    90    89    1
    23    70    71    1
    24    89    83   am
    25    71    74    1
    26    71    72    1
    27    65    64    2
    28     8     6    1
    29    83    84    2
    30    83    82    1
    31    74    75    1
    32    64    63    1
    33    77    75   ar
    34    77    79   ar
    35    72    73    2
    36    88    86    1
    37    82    85    1
    38    82    81    1
    39    75    76   ar
    40    85    86    1
    41     6     5    1
    42     6     7    1
    43    79    80   ar
    44    63    62    1
    45    63    66    1
    46    86    87    1
    47     5     2    1
    48    26    27   ar
    49    26    24   ar
    50    27    25   ar
    51    66    67    1
    52    76    78   ar
    53    80    78   ar
    54    24    22   ar
    55    25    23   ar
    56     2     1    1
    57     2     3    1
    58    67    68    1
    59    67    69    1
    60     3     4    2
    61    22    23   ar
    62    22    21    1
    63    42    41    1
    64    41    43    1
    65    41    40    1
    66    21    18    1
    67    15    13    1
    68    40    37    1
    69    13    14    1
    70    13    10    1
    71    18    17    1
    72    18    19    1
    73    17    11   am
    74    36    37    1
    75    36    34   am
    76    14    16    1
    77    33    34    1
    78    33    32    1
    79    37    38    1
    80     9    10    1
    81    61    59   am
    82    11    10    1
    83    11    12    2
    84    19    20    2
    85    34    35    2
    86    51    52    1
    87    51    50    1
    88    60    59    2
    89    59    58    1
    90    32    30   am
    91    38    44   am
    92    38    39    2
    93    44    45    1
    94    31    30    2
    95    30    29    1
    96    49    50    1
    97    49    48    1
    98    58    57    1
    99    57    54    1
   100    45    48    1
   101    45    46    1
   102    29    28    1
   103    54    53    1
   104    54    55    1
   105    46    47    2
   106    55    56    2
