@<TRIPOS>MOLECULE
tmp/3k9wA00.pdb
 174 168 0 0 0
SMALL
GASTEIGER

@<TRIPOS>ATOM
      1  N        -26.0940   43.9730  -11.2010 N.3     8  TYR8       -0.1228
      2  CA       -25.6040   43.4020  -12.4580 C.3     8  TYR8        0.1721
      3  C        -24.8830   42.1210  -12.0800 C.2     8  TYR8        0.2437
      4  O        -23.7270   42.1660  -11.6510 O.2     8  TYR8       -0.2733
      5  CB       -24.6400   44.3820  -13.1300 C.3     8  TYR8        0.0547
      6  CG       -24.0090   43.9400  -14.4300 C.ar    8  TYR8       -0.0200
      7  CD1      -24.7510   43.2990  -15.4170 C.ar    8  TYR8       -0.0009
      8  CD2      -22.6670   44.1950  -14.6770 C.ar    8  TYR8       -0.0009
      9  CE1      -24.1550   42.9110  -16.6250 C.ar    8  TYR8        0.0417
     10  CE2      -22.0730   43.8360  -15.8790 C.ar    8  TYR8        0.0417
     11  CZ       -22.8140   43.1930  -16.8340 C.ar    8  TYR8        0.1957
     12  OH       -22.2190   42.8170  -18.0170 O.3     8  TYR8       -0.2866
     13  N        -25.5650   40.9800  -12.2170 N.am    9  PRO9       -0.2718
     14  CA       -24.9920   39.7200  -11.7540 C.3     9  PRO9        0.1535
     15  C        -24.3080   38.9690  -12.8830 C.2     9  PRO9        0.2599
     16  O        -24.7050   39.0890  -14.0360 O.2     9  PRO9       -0.2715
     17  CB       -26.2140   38.9450  -11.2780 C.3     9  PRO9        0.0310
     18  CG       -27.3070   39.3980  -12.2380 C.3     9  PRO9        0.0237
     19  CD       -26.9830   40.8300  -12.6160 C.3     9  PRO9        0.0939
     20  N        -23.3180   38.1590  -12.5440 N.am   10  GLY10      -0.1941
     21  CA       -22.6600   37.3360  -13.5610 C.3    10  GLY10       0.2014
     22  C        -21.6010   36.4650  -12.9410 C.2    10  GLY10       0.2640
     23  O        -21.3120   36.5680  -11.7420 O.2    10  GLY10      -0.2714
     24  N        -21.0460   35.5710  -13.7450 N.am   11  THR11      -0.1936
     25  CA       -19.9120   34.7650  -13.2870 C.3    11  THR11       0.2028
     26  C        -18.6060   35.5620  -13.4360 C.2    11  THR11       0.2642
     27  O        -17.7120   35.4730  -12.5910 O.2    11  THR11      -0.2714
     28  CB       -19.8900   33.4100  -14.0120 C.3    11  THR11       0.1808
     29  OG1      -21.1050   32.7120  -13.7220 O.3    11  THR11      -0.2208
     30  CG2      -18.7230   32.5510  -13.5320 C.3    11  THR11       0.0379
     31  N        -18.5140   36.3690  -14.4920 N.am   12  PHE12      -0.1959
     32  CA       -17.3740   37.2800  -14.7140 C.3    12  PHE12       0.1771
     33  C        -16.0340   36.5530  -14.6500 C.2    12  PHE12       0.2619
     34  O        -15.1550   36.8850  -13.8450 O.2    12  PHE12      -0.2715
     35  CB       -17.4150   38.4990  -13.7770 C.3    12  PHE12       0.0574
     36  CG       -18.6990   39.2760  -13.8510 C.ar   12  PHE12      -0.0200
     37  CD1      -19.5350   39.3700  -12.7400 C.ar   12  PHE12      -0.0042
     38  CD2      -19.0790   39.9150  -15.0410 C.ar   12  PHE12      -0.0042
     39  CE1      -20.7310   40.0950  -12.8050 C.ar   12  PHE12      -0.0003
     40  CE2      -20.2800   40.6300  -15.1180 C.ar   12  PHE12      -0.0003
     41  CZ       -21.1020   40.7220  -13.9960 C.ar   12  PHE12      -0.0000
     42  N        -15.9010   35.5710  -15.5370 N.am   13  ASP13      -0.1971
     43  CA       -14.7520   34.6590  -15.5780 C.3    13  ASP13       0.1709
     44  C        -13.9320   34.7850  -16.8770 C.2    13  ASP13       0.2293
     45  O        -13.9340   33.8700  -17.6930 O.2    13  ASP13      -0.2864
     46  CB       -15.2680   33.2150  -15.4090 C.3    13  ASP13       0.1436
     47  CG       -14.1500   32.1940  -15.2540 C.2    13  ASP13       0.3671
     48  OD1      -13.1260   32.5200  -14.6180 O.co2  13  ASP13      -0.2456
     49  OD2      -14.3060   31.0530  -15.7560 O.co2  13  ASP13      -0.2456
     50  N        -18.4530   43.5890  -20.4310 N.3    19  HIS19      -0.1241
     51  CA       -18.9980   43.7890  -19.0750 C.3    19  HIS19       0.1621
     52  C        -18.7070   45.1850  -18.5430 C.2    19  HIS19       0.2264
     53  O        -19.5710   45.8290  -17.9430 O.2    19  HIS19      -0.2867
     54  CB       -18.3950   42.7950  -18.0770 C.3    19  HIS19       0.0745
     55  CG       -18.6590   41.3600  -18.3930 C.ar   19  HIS19       0.0817
     56  ND1      -17.6550   40.4160  -18.4180 N.ar   19  HIS19      -0.2268
     57  CD2      -19.8130   40.6880  -18.6100 C.ar   19  HIS19       0.1154
     58  CE1      -18.1700   39.2340  -18.7000 C.ar   19  HIS19       0.1986
     59  NE2      -19.4810   39.3690  -18.8120 N.ar   19  HIS19      -0.2212
     60  N        -21.2000   35.8430   -8.8990 N.3    38  ALA38      -0.1245
     61  CA       -21.7000   34.5650   -8.4060 C.3    38  ALA38       0.1562
     62  C        -20.5880   33.5320   -8.3330 C.2    38  ALA38       0.2260
     63  O        -19.7680   33.4270   -9.2480 O.2    38  ALA38      -0.2867
     64  CB       -22.7950   34.0550   -9.3350 C.3    38  ALA38       0.0290
     65  N        -20.7990   30.3420   -8.7520 N.3    40  SER40      -0.1217
     66  CA       -20.9960   29.5370   -9.9720 C.3    40  SER40       0.1889
     67  C        -20.1640   28.2510   -9.9940 C.2    40  SER40       0.2288
     68  O        -19.5960   27.8760  -11.0190 O.2    40  SER40      -0.2866
     69  CB       -20.7610   30.3870  -11.2320 C.3    40  SER40       0.2089
     70  OG       -21.7510   31.3970  -11.3590 O.3    40  SER40      -0.2183
     71  N        -20.3740   25.6610  -12.8120 N.3    43  LYS43      -0.1245
     72  CA       -19.9100   26.0830  -14.1000 C.3    43  LYS43       0.1561
     73  C        -18.4340   25.8680  -14.2370 C.2    43  LYS43       0.2260
     74  O        -17.8970   26.0790  -15.2510 O.2    43  LYS43      -0.2867
     75  CB       -20.2040   27.5540  -14.3680 C.3    43  LYS43       0.0271
     76  CG       -21.6590   27.9650  -14.3090 C.3    43  LYS43       0.0035
     77  CD       -21.8670   29.0800  -15.2800 C.3    43  LYS43       0.0206
     78  CE       -22.9050   30.0080  -14.8670 C.3    43  LYS43       0.1093
     79  NZ       -22.4000   31.2430  -15.3350 N.3    43  LYS43      -0.1314
     80  N        -21.2040   36.4780   -4.1770 N.3    71  PHE71      -0.1241
     81  CA       -22.2780   35.7600   -3.4860 C.3    71  PHE71       0.1605
     82  C        -22.2980   34.2860   -3.8410 C.2    71  PHE71       0.2264
     83  O        -22.0120   33.9160   -4.9830 O.2    71  PHE71      -0.2867
     84  CB       -23.6490   36.4330   -3.6850 C.3    71  PHE71       0.0534
     85  CG       -24.2210   36.3190   -5.0780 C.ar   71  PHE71      -0.0203
     86  CD1      -23.8010   37.1630   -6.1040 C.ar   71  PHE71      -0.0042
     87  CD2      -25.2440   35.4090   -5.3400 C.ar   71  PHE71      -0.0042
     88  CE1      -24.3490   37.0630   -7.3940 C.ar   71  PHE71      -0.0003
     89  CE2      -25.8100   35.3110   -6.6220 C.ar   71  PHE71      -0.0003
     90  CZ       -25.3590   36.1380   -7.6480 C.ar   71  PHE71      -0.0000
     91  N        -24.9690   32.1680   -2.8340 N.3    73  GLY73      -0.1210
     92  CA       -26.3260   31.6380   -2.8060 C.3    73  GLY73       0.1956
     93  C        -27.1830   32.0950   -3.9640 C.2    73  GLY73       0.2612
     94  O        -26.7160   32.3190   -5.0890 O.2    73  GLY73      -0.2717
     95  N        -28.4650   32.2340   -3.6860 N.am   74  LEU74      -0.1965
     96  CA       -29.4190   32.5760   -4.7080 C.3    74  LEU74       0.1728
     97  C        -29.3510   34.0610   -5.0440 C.2    74  LEU74       0.2616
     98  O        -29.1830   34.9020   -4.1550 O.2    74  LEU74      -0.2715
     99  CB       -30.8210   32.1810   -4.2260 C.3    74  LEU74       0.0311
    100  CG       -30.9220   30.6830   -3.9360 C.3    74  LEU74       0.0022
    101  CD1      -32.0370   30.3660   -2.9500 C.3    74  LEU74       0.0001
    102  CD2      -31.0810   29.9060   -5.2430 C.3    74  LEU74       0.0001
    103  N        -29.4940   34.3780   -6.3300 N.am   75  LEU75      -0.1963
    104  CA       -29.5450   35.7710   -6.7850 C.3    75  LEU75       0.1728
    105  C        -30.6780   36.5100   -6.0830 C.2    75  LEU75       0.2616
    106  O        -30.4940   37.6600   -5.6720 O.2    75  LEU75      -0.2715
    107  CB       -29.7340   35.8690   -8.3110 C.3    75  LEU75       0.0311
    108  CG       -29.8600   37.2920   -8.8910 C.3    75  LEU75       0.0022
    109  CD1      -28.6530   38.1490   -8.5820 C.3    75  LEU75       0.0001
    110  CD2      -30.0990   37.2720  -10.3960 C.3    75  LEU75       0.0001
    111  N        -31.8280   35.8400   -5.9470 N.am   76  LYS76      -0.1977
    112  CA       -32.9980   36.3980   -5.2340 C.3    76  LYS76       0.1596
    113  C        -32.5720   37.0130   -3.9100 C.2    76  LYS76       0.2287
    114  O        -32.9200   38.1560   -3.5870 O.2    76  LYS76      -0.2864
    115  CB       -34.0700   35.3130   -4.9810 C.3    76  LYS76       0.0298
    116  CG       -35.1570   35.7110   -3.9600 C.3    76  LYS76       0.0038
    117  CD       -36.3020   34.7060   -3.8800 C.3    76  LYS76       0.0206
    118  CE       -35.8930   33.4320   -3.1480 C.3    76  LYS76       0.1093
    119  NZ       -35.2080   32.4570   -4.0460 N.3    76  LYS76      -0.1314
    120  N        -29.1010   43.1520  -17.0720 N.3    89  ARG89      -0.1245
    121  CA       -28.3450   42.1730  -17.8440 C.3    89  ARG89       0.1563
    122  C        -27.9610   42.7730  -19.1810 C.2    89  ARG89       0.2260
    123  O        -28.6710   43.6220  -19.7070 O.2    89  ARG89      -0.2867
    124  CB       -29.1660   40.8960  -18.0420 C.3    89  ARG89       0.0307
    125  CG       -29.4250   40.1280  -16.7340 C.3    89  ARG89       0.0489
    126  CD       -28.2000   39.3270  -16.2890 C.3    89  ARG89       0.2205
    127  NE       -27.9380   38.1760  -17.1590 N.pl3  89  ARG89      -0.0865
    128  CZ       -26.9580   37.3040  -16.9640 C.cat  89  ARG89       0.5346
    129  NH1      -26.1400   37.4420  -15.9210 N.pl3  89  ARG89       0.1354
    130  NH2      -26.7980   36.2810  -17.8100 N.pl3  89  ARG89       0.1354
    131  N        -31.5540   31.5960  -22.6920 N.3    99  TYR99      -0.1241
    132  CA       -31.0300   31.6310  -21.3460 C.3    99  TYR99       0.1605
    133  C        -31.4870   32.9140  -20.6120 C.2    99  TYR99       0.2264
    134  O        -31.9580   32.8770  -19.4780 O.2    99  TYR99      -0.2867
    135  CB       -29.5140   31.5390  -21.4990 C.3    99  TYR99       0.0534
    136  CG       -28.6810   31.6470  -20.2660 C.ar   99  TYR99      -0.0201
    137  CD1      -27.7200   32.6370  -20.1600 C.ar   99  TYR99      -0.0009
    138  CD2      -28.8220   30.7480  -19.2210 C.ar   99  TYR99      -0.0009
    139  CE1      -26.9360   32.7410  -19.0490 C.ar   99  TYR99       0.0417
    140  CE2      -28.0370   30.8450  -18.1010 C.ar   99  TYR99       0.0417
    141  CZ       -27.0950   31.8490  -18.0230 C.ar   99  TYR99       0.1957
    142  OH       -26.3030   31.9600  -16.9090 O.3    99  TYR99      -0.2866
    143  N        -34.1270   33.0150  -17.4250 N.3   103  MET103     -0.1245
    144  CA       -33.7210   33.5800  -16.1480 C.3   103  MET103      0.1570
    145  C        -34.6530   34.7240  -15.7400 C.2   103  MET103      0.2261
    146  O        -35.1230   34.7890  -14.6040 O.2   103  MET103     -0.2867
    147  CB       -32.2720   34.0540  -16.2180 C.3   103  MET103      0.0387
    148  CG       -31.8760   35.0060  -15.1260 C.3   103  MET103      0.0595
    149  SD       -30.2360   35.6650  -15.4320 S.3   103  MET103     -0.1393
    150  CE       -30.2110   37.1270  -14.3780 C.3   103  MET103      0.0692
    151  N        -38.0700   33.3110  -14.7190 N.3   106  MET106     -0.1230
    152  CA       -38.0350   32.5870  -13.4530 C.3   106  MET106      0.1702
    153  C        -37.7660   33.5160  -12.2740 C.2   106  MET106      0.2592
    154  O        -38.3410   33.3470  -11.1910 O.2   106  MET106     -0.2718
    155  CB       -37.0220   31.4500  -13.5160 C.3   106  MET106      0.0401
    156  CG       -37.5040   30.3210  -14.4200 C.3   106  MET106      0.0596
    157  SD       -36.2990   29.0050  -14.5650 S.3   106  MET106     -0.1393
    158  CE       -36.5350   28.1770  -12.9830 C.3   106  MET106      0.0692
    159  N        -36.9010   34.5040  -12.4800 N.am  107  ASN107     -0.1974
    160  CA       -36.6660   35.5110  -11.4410 C.3   107  ASN107      0.1688
    161  C        -37.9080   36.3450  -11.1450 C.2   107  ASN107      0.2292
    162  O        -38.0620   36.8280  -10.0080 O.2   107  ASN107     -0.2864
    163  CB       -35.4560   36.4090  -11.7620 C.3   107  ASN107      0.1181
    164  CG       -34.1290   35.7580  -11.4160 C.2   107  ASN107      0.2629
    165  OD1      -34.0170   34.9920  -10.4530 O.2   107  ASN107     -0.2716
    166  ND2      -33.1030   36.0650  -12.2010 N.am  107  ASN107     -0.0877
    167  N        -39.7230   34.4490   -8.6740 N.3   110  LEU110     -0.1245
    168  CA       -39.0070   34.5320   -7.4090 C.3   110  LEU110      0.1561
    169  C        -39.0350   35.9350   -6.7980 C.2   110  LEU110      0.2260
    170  O        -39.0330   36.0680   -5.5750 O.2   110  LEU110     -0.2867
    171  CB       -37.5590   34.0690   -7.5720 C.3   110  LEU110      0.0270
    172  CG       -37.3540   32.6330   -8.0550 C.3   110  LEU110      0.0019
    173  CD1      -35.8940   32.4080   -8.3980 C.3   110  LEU110      0.0001
    174  CD2      -37.8200   31.6260   -7.0090 C.3   110  LEU110      0.0001
@<TRIPOS>BOND
     1   131   132    1
     2   135   132    1
     3   135   136    1
     4   132   133    1
     5   133   134    2
     6    50    51    1
     7   136   137   ar
     8   136   138   ar
     9   137   139   ar
    10   123   122    2
    11   138   140   ar
    12   122   121    1
    13    51    52    1
    14    51    54    1
    15   139   141   ar
    16    59    58   ar
    17    59    57   ar
    18    58    56   ar
    19    57    55   ar
    20    52    53    2
    21    56    55   ar
    22    55    54    1
    23   140   141   ar
    24   124   121    1
    25   124   125    1
    26   141   142    1
    27    12    11    1
    28   121   120    1
    29   130   128    1
    30    45    44    2
    31   143   144    1
    32   127   128    2
    33   127   126    1
    34   128   129    1
    35    44    43    1
    36    11     9   ar
    37    11    10   ar
    38   125   126    1
    39     9     7   ar
    40   147   144    1
    41   147   148    1
    42   144   145    1
    43    10     8   ar
    44    49    47   ar
    45   145   146    2
    46    43    42    1
    47    43    46    1
    48    42    33   am
    49   149   148    1
    50   149   150    1
    51     7     6   ar
    52    46    47    1
    53    79    78    1
    54    77    78    1
    55    77    76    1
    56    47    48   ar
    57    74    73    2
    58    40    38   ar
    59    40    41   ar
    60    38    36   ar
    61   151   152    1
    62    32    33    1
    63    32    31    1
    64    32    35    1
    65     8     6   ar
    66    33    34    2
    67   157   156    1
    68   157   158    1
    69    31    26   am
    70     6     5    1
    71   156   155    1
    72    75    76    1
    73    75    72    1
    74    73    72    1
    75    72    71    1
    76    16    15    2
    77    28    29    1
    78    28    30    1
    79    28    25    1
    80    41    39   ar
    81    36    35    1
    82    36    37   ar
    83    24    25    1
    84    24    22   am
    85    21    22    1
    86    21    20    1
    87   155   152    1
    88   152   153    1
    89    26    25    1
    90    26    27    2
    91     5     2    1
    92    22    23    2
    93    15    20   am
    94    15    14    1
    95    39    37   ar
    96    19    18    1
    97    19    13    1
    98   159   153   am
    99   159   160    1
   100     2     3    1
   101     2     1    1
   102   153   154    2
   103    18    17    1
   104    13     3   am
   105    13    14    1
   106   166   164   am
   107     3     4    2
   108   163   160    1
   109   163   164    1
   110    14    17    1
   111   160   161    1
   112   164   165    2
   113    70    69    1
   114    69    66    1
   115   161   162    2
   116    68    67    2
   117   110   108    1
   118    67    66    1
   119    66    65    1
   120    64    61    1
   121    63    62    2
   122    60    61    1
   123   108   109    1
   124   108   107    1
   125   167   168    1
   126    61    62    1
   127   173   172    1
   128   107   104    1
   129   172   171    1
   130   172   174    1
   131    90    88   ar
   132    90    89   ar
   133   171   168    1
   134   168   169    1
   135    88    86   ar
   136   169   170    2
   137   104   103    1
   138   104   105    1
   139    89    87   ar
   140   103    97   am
   141    86    85   ar
   142   105   111   am
   143   105   106    2
   144   111   112    1
   145    87    85   ar
   146   102   100    1
   147   112   115    1
   148   112   113    1
   149    94    93    2
   150    85    84    1
   151    97    96    1
   152    97    98    2
   153    83    82    2
   154   115   116    1
   155    96    99    1
   156    96    95    1
   157    99   100    1
   158    80    81    1
   159   119   118    1
   160    93    95   am
   161    93    92    1
   162   116   117    1
   163   100   101    1
   164   113   114    2
   165   117   118    1
   166    82    81    1
   167    84    81    1
   168    91    92    1
