@<TRIPOS>MOLECULE
tmp/3k9wA01.pdb
 93 88 0 0 0
SMALL
GASTEIGER

@<TRIPOS>ATOM
      1  N        -26.0940   43.9730  -11.2010 N.3     8  TYR8       -0.1241
      2  CA       -25.6040   43.4020  -12.4580 C.3     8  TYR8        0.1605
      3  C        -24.8830   42.1210  -12.0800 C.2     8  TYR8        0.2264
      4  O        -23.7270   42.1660  -11.6510 O.2     8  TYR8       -0.2867
      5  CB       -24.6400   44.3820  -13.1300 C.3     8  TYR8        0.0534
      6  CG       -24.0090   43.9400  -14.4300 C.ar    8  TYR8       -0.0201
      7  CD1      -24.7510   43.2990  -15.4170 C.ar    8  TYR8       -0.0009
      8  CD2      -22.6670   44.1950  -14.6770 C.ar    8  TYR8       -0.0009
      9  CE1      -24.1550   42.9110  -16.6250 C.ar    8  TYR8        0.0417
     10  CE2      -22.0730   43.8360  -15.8790 C.ar    8  TYR8        0.0417
     11  CZ       -22.8140   43.1930  -16.8340 C.ar    8  TYR8        0.1957
     12  OH       -22.2190   42.8170  -18.0170 O.3     8  TYR8       -0.2866
     13  N        -14.8560   41.1470  -18.8860 N.3    16  THR16      -0.1218
     14  CA       -14.3970   41.5640  -20.2300 C.3    16  THR16       0.1862
     15  C        -14.6830   43.0450  -20.4740 C.2    16  THR16       0.2287
     16  O        -15.3100   43.7270  -19.6490 O.2    16  THR16      -0.2866
     17  CB       -15.0670   40.7680  -21.3800 C.3    16  THR16       0.1770
     18  OG1      -16.4390   41.1850  -21.5140 O.3    16  THR16      -0.2211
     19  CG2      -15.0020   39.2660  -21.1310 C.3    16  THR16       0.0375
     20  N        -16.7320   44.0330  -22.6390 N.3    18  GLY18      -0.1210
     21  CA       -18.1930   44.0860  -22.7950 C.3    18  GLY18       0.1956
     22  C        -18.8590   44.3470  -21.4520 C.2    18  GLY18       0.2611
     23  O        -19.7220   45.2340  -21.3370 O.2    18  GLY18      -0.2717
     24  N        -18.4530   43.5890  -20.4310 N.am   19  HIS19      -0.1975
     25  CA       -18.9980   43.7890  -19.0750 C.3    19  HIS19       0.1656
     26  C        -18.7070   45.1850  -18.5430 C.2    19  HIS19       0.2291
     27  O        -19.5710   45.8290  -17.9430 O.2    19  HIS19      -0.2864
     28  CB       -18.3950   42.7950  -18.0770 C.3    19  HIS19       0.0771
     29  CG       -18.6590   41.3600  -18.3930 C.ar   19  HIS19       0.0820
     30  ND1      -17.6550   40.4160  -18.4180 N.ar   19  HIS19      -0.2267
     31  CD2      -19.8130   40.6880  -18.6100 C.ar   19  HIS19       0.1154
     32  CE1      -18.1700   39.2340  -18.7000 C.ar   19  HIS19       0.1986
     33  NE2      -19.4810   39.3690  -18.8120 N.ar   19  HIS19      -0.2212
     34  N        -20.9570   47.7460  -19.9720 N.3    22  LEU22      -0.1245
     35  CA       -22.2970   47.6340  -19.3970 C.3    22  LEU22       0.1561
     36  C        -22.3100   48.2990  -18.0150 C.2    22  LEU22       0.2260
     37  O        -23.2610   48.9980  -17.6560 O.2    22  LEU22      -0.2867
     38  CB       -22.7160   46.1580  -19.3300 C.3    22  LEU22       0.0270
     39  CG       -24.1410   45.8070  -19.7560 C.3    22  LEU22       0.0019
     40  CD1      -25.1510   46.4260  -18.8070 C.3    22  LEU22       0.0001
     41  CD2      -24.4030   46.2670  -21.2050 C.3    22  LEU22       0.0001
     42  N        -26.8230   42.3540  -19.7110 N.3    90  GLY90      -0.1225
     43  CA       -26.4330   42.7740  -21.0550 C.3    90  GLY90       0.1811
     44  C        -27.1700   41.9250  -22.0610 C.2    90  GLY90       0.2280
     45  O        -27.3340   40.7170  -21.8830 O.2    90  GLY90      -0.2866
     46  N        -27.1180   41.3780  -26.2190 N.3    92  ARG92      -0.1245
     47  CA       -26.4080   41.6870  -27.4360 C.3    92  ARG92       0.1563
     48  C        -27.1340   40.9570  -28.5340 C.2    92  ARG92       0.2260
     49  O        -27.9410   40.0660  -28.2720 O.2    92  ARG92      -0.2867
     50  CB       -24.9800   41.1750  -27.3410 C.3    92  ARG92       0.0307
     51  CG       -24.2090   41.6720  -26.1430 C.3    92  ARG92       0.0489
     52  CD       -22.9400   40.8840  -26.0160 C.3    92  ARG92       0.2205
     53  NE       -23.1440   39.5520  -25.4500 N.pl3  92  ARG92      -0.0865
     54  CZ       -22.4300   38.4790  -25.7840 C.cat  92  ARG92       0.5346
     55  NH1      -21.4800   38.5640  -26.7070 N.pl3  92  ARG92       0.1354
     56  NH2      -22.6770   37.3120  -25.2060 N.pl3  92  ARG92       0.1354
     57  N        -24.2800   46.8070  -24.8670 N.3   121  PRO121     -0.2116
     58  CA       -22.9610   47.4310  -24.8790 C.3   121  PRO121      0.1372
     59  C        -22.6990   48.0980  -26.2340 C.2   121  PRO121      0.2244
     60  O        -23.4730   47.9020  -27.1790 O.2   121  PRO121     -0.2868
     61  CB       -22.0180   46.2410  -24.6780 C.3   121  PRO121      0.0268
     62  CG       -22.7360   45.1130  -25.3570 C.3   121  PRO121      0.0207
     63  CD       -24.1970   45.3440  -25.0740 C.3   121  PRO121      0.0892
     64  N        -18.0880   45.8240  -28.7360 N.3   125  TYR125     -0.1241
     65  CA       -18.0050   44.7500  -27.7400 C.3   125  TYR125      0.1605
     66  C        -19.1130   43.7010  -27.8760 C.2   125  TYR125      0.2264
     67  O        -19.1340   42.7290  -27.1110 O.2   125  TYR125     -0.2867
     68  CB       -18.0020   45.3240  -26.3040 C.3   125  TYR125      0.0534
     69  CG       -17.0630   46.4920  -26.0890 C.ar  125  TYR125     -0.0201
     70  CD1      -15.7010   46.3840  -26.3640 C.ar  125  TYR125     -0.0009
     71  CD2      -17.5420   47.7090  -25.5960 C.ar  125  TYR125     -0.0009
     72  CE1      -14.8320   47.4660  -26.1720 C.ar  125  TYR125      0.0417
     73  CE2      -16.6820   48.7920  -25.4030 C.ar  125  TYR125      0.0417
     74  CZ       -15.3330   48.6590  -25.6840 C.ar  125  TYR125      0.1957
     75  OH       -14.4760   49.7270  -25.5030 O.3   125  TYR125     -0.2866
     76  N        -17.9550   39.8090  -28.2290 N.3   128  ILE128     -0.1231
     77  CA       -16.9640   39.2040  -27.3280 C.3   128  ILE128      0.1692
     78  C        -17.5870   38.0790  -26.4890 C.2   128  ILE128      0.2593
     79  O        -18.5760   38.2930  -25.7710 O.2   128  ILE128     -0.2718
     80  CB       -16.3030   40.2500  -26.3980 C.3   128  ILE128      0.0266
     81  CG1      -15.5920   41.3400  -27.2100 C.3   128  ILE128      0.0019
     82  CG2      -15.3170   39.5700  -25.4260 C.3   128  ILE128      0.0020
     83  CD1      -15.1400   42.5490  -26.3700 C.3   128  ILE128      0.0001
     84  N        -17.0120   36.8850  -26.6050 N.am  129  SER129     -0.1938
     85  CA       -17.3980   35.7290  -25.7950 C.3   129  SER129      0.2055
     86  C        -16.3350   35.4240  -24.7490 C.2   129  SER129      0.2643
     87  O        -15.1670   35.2560  -25.0800 O.2   129  SER129     -0.2714
     88  CB       -17.5950   34.5040  -26.6830 C.3   129  SER129      0.2130
     89  OG       -17.5400   33.3110  -25.9180 O.3   129  SER129     -0.2179
     90  N        -16.7450   35.3390  -23.4870 N.am  130  GLY130     -0.1954
     91  CA       -15.8160   35.0070  -22.4080 C.3   130  GLY130      0.1869
     92  C        -15.2020   33.6260  -22.5680 C.2   130  GLY130      0.2309
     93  O        -14.0220   33.4220  -22.2700 O.2   130  GLY130     -0.2863
@<TRIPOS>BOND
     1    64    65    1
     2    48    49    2
     3    48    47    1
     4    76    77    1
     5    66    65    1
     6    66    67    2
     7    65    68    1
     8    47    50    1
     9    47    46    1
    10    50    51    1
    11    77    78    1
    12    77    80    1
    13    81    80    1
    14    81    83    1
    15    60    59    2
    16    55    54    1
    17    88    89    1
    18    88    85    1
    19    84    78   am
    20    84    85    1
    21    78    79    2
    22    80    82    1
    23    70    72   ar
    24    70    69   ar
    25    68    69    1
    26    59    58    1
    27    72    74   ar
    28    51    52    1
    29    69    71   ar
    30    52    53    1
    31    85    86    1
    32    54    53    2
    33    54    56    1
    34    74    75    1
    35    74    73   ar
    36    71    73   ar
    37    62    63    1
    38    62    61    1
    39    87    86    2
    40    63    57    1
    41    58    57    1
    42    58    61    1
    43    86    90   am
    44    90    91    1
    45    21    20    1
    46    21    22    1
    47    92    91    1
    48    92    93    2
    49    44    45    2
    50    44    43    1
    51    18    17    1
    52    22    23    2
    53    22    24   am
    54    17    19    1
    55    17    14    1
    56    41    39    1
    57    43    42    1
    58    15    14    1
    59    15    16    2
    60    24    25    1
    61    14    13    1
    62    34    35    1
    63    39    38    1
    64    39    40    1
    65    35    38    1
    66    35    36    1
    67    25    26    1
    68    25    28    1
    69    33    32   ar
    70    33    31   ar
    71    32    30   ar
    72    31    29   ar
    73    26    27    2
    74    30    29   ar
    75    29    28    1
    76    12    11    1
    77    36    37    2
    78    11     9   ar
    79    11    10   ar
    80     9     7   ar
    81    10     8   ar
    82     7     6   ar
    83     8     6   ar
    84     6     5    1
    85     5     2    1
    86     2     3    1
    87     2     1    1
    88     3     4    2
