@<TRIPOS>MOLECULE
tmp/3k9xD00.pdb
 193 190 0 0 0
SMALL
GASTEIGER

@<TRIPOS>ATOM
      1  N         48.2710    2.4400   13.1370 N.3    46  GLN46      -0.1245
      2  CA        49.5620    3.0170   12.7820 C.3    46  GLN46       0.1566
      3  C         49.9250    4.3020   13.5190 C.2    46  GLN46       0.2260
      4  O         50.9060    4.9340   13.1970 O.2    46  GLN46      -0.2867
      5  CB        49.6630    3.1760   11.2680 C.3    46  GLN46       0.0367
      6  CG        49.6700    1.7540   10.6520 C.3    46  GLN46       0.0905
      7  CD        49.9420    1.7190    9.2070 C.2    46  GLN46       0.2608
      8  OE1       49.5330    2.6130    8.4940 O.2    46  GLN46      -0.2717
      9  NE2       50.6430    0.6800    8.7390 N.am   46  GLN46      -0.0878
     10  N         45.4740   -9.7420    8.0720 N.3    83  GLU83      -0.1231
     11  CA        46.3560  -10.5780    7.2380 C.3    83  GLU83       0.1699
     12  C         46.2170  -10.3210    5.7430 C.2    83  GLU83       0.2593
     13  O         47.2000  -10.4060    5.0300 O.2    83  GLU83      -0.2718
     14  CB        46.0900  -12.0870    7.4130 C.3    83  GLU83       0.0402
     15  CG        46.3420  -12.6230    8.8000 C.3    83  GLU83       0.1161
     16  CD        45.2540  -12.2850    9.8170 C.2    83  GLU83       0.3649
     17  OE1       44.1900  -11.7020    9.4450 O.co2  83  GLU83      -0.2457
     18  OE2       45.4900  -12.6210   11.0300 O.co2  83  GLU83      -0.2457
     19  N         45.0110   -9.9370    5.3070 N.am   84  THR84      -0.1939
     20  CA        44.6720   -9.8380    3.8930 C.3    84  THR84       0.2028
     21  C         44.2720   -8.4410    3.4850 C.2    84  THR84       0.2642
     22  O         44.3160   -8.1070    2.2890 O.2    84  THR84      -0.2714
     23  CB        43.4290  -10.6970    3.5160 C.3    84  THR84       0.1808
     24  OG1       42.3110  -10.2870    4.3210 O.3    84  THR84      -0.2208
     25  CG2       43.6860  -12.2130    3.7340 C.3    84  THR84       0.0379
     26  N         43.9700   -7.6090    4.4780 N.am   85  TYR85      -0.1973
     27  CA        43.4240   -6.2490    4.2860 C.3    85  TYR85       0.1639
     28  C         42.0370   -6.2660    3.5970 C.2    85  TYR85       0.2290
     29  O         41.6100   -5.2390    3.0520 O.2    85  TYR85      -0.2864
     30  CB        44.3960   -5.3140    3.5580 C.3    85  TYR85       0.0560
     31  CG        45.5000   -4.6780    4.4220 C.ar   85  TYR85      -0.0198
     32  CD1       45.9070   -5.2450    5.5830 C.ar   85  TYR85      -0.0009
     33  CD2       46.1430   -3.5020    3.9970 C.ar   85  TYR85      -0.0009
     34  CE1       46.9320   -4.6090    6.4090 C.ar   85  TYR85       0.0417
     35  CE2       47.1730   -2.9280    4.7250 C.ar   85  TYR85       0.0417
     36  CZ        47.5610   -3.4750    5.9350 C.ar   85  TYR85       0.1957
     37  OH        48.6320   -2.9000    6.6420 O.3    85  TYR85      -0.2866
     38  N         59.4370    5.0900   -4.3950 N.3   135  GLU135     -0.1231
     39  CA        59.3450    3.9840   -3.4580 C.3   135  GLU135      0.1699
     40  C         60.3480    4.1100   -2.2680 C.2   135  GLU135      0.2592
     41  O         60.0060    3.8830   -1.0820 O.2   135  GLU135     -0.2718
     42  CB        59.4880    2.6450   -4.1940 C.3   135  GLU135      0.0402
     43  CG        59.5760    1.4340   -3.2680 C.3   135  GLU135      0.1161
     44  CD        59.6820    0.1090   -4.0200 C.2   135  GLU135      0.3649
     45  OE1       59.0070   -0.0400   -5.0400 O.co2 135  GLU135     -0.2457
     46  OE2       60.3860   -0.8150   -3.5600 O.co2 135  GLU135     -0.2457
     47  N         61.6030    4.4270   -2.5930 N.am  136  LYS136     -0.1980
     48  CA        62.6250    4.6850   -1.5890 C.3   136  LYS136      0.1596
     49  C         62.8130    6.1920   -1.6790 C.2   136  LYS136      0.2287
     50  O         63.6080    6.7070   -2.5130 O.2   136  LYS136     -0.2864
     51  CB        63.9380    3.9520   -1.9210 C.3   136  LYS136      0.0298
     52  CG        63.8880    2.4380   -1.6890 C.3   136  LYS136      0.0038
     53  CD        63.3750    2.1120   -0.2830 C.3   136  LYS136      0.0206
     54  CE        63.6460    0.6670    0.1340 C.3   136  LYS136      0.1093
     55  NZ        62.9580   -0.3510   -0.6930 N.3   136  LYS136     -0.1314
     56  N         49.3160  -11.5620   -3.6500 N.3   162  PHE162     -0.1227
     57  CA        48.3840  -11.7750   -2.5830 C.3   162  PHE162      0.1736
     58  C         46.9470  -11.7960   -3.0990 C.2   162  PHE162      0.2595
     59  O         46.6400  -11.3040   -4.1830 O.2   162  PHE162     -0.2718
     60  CB        48.6030  -10.6940   -1.5220 C.3   162  PHE162      0.0547
     61  CG        50.0220  -10.6240   -1.0610 C.ar  162  PHE162     -0.0202
     62  CD1       50.5360  -11.5990   -0.2430 C.ar  162  PHE162     -0.0042
     63  CD2       50.8710   -9.6060   -1.4880 C.ar  162  PHE162     -0.0042
     64  CE1       51.9100  -11.5830    0.1540 C.ar  162  PHE162     -0.0003
     65  CE2       52.2030   -9.5700   -1.0990 C.ar  162  PHE162     -0.0003
     66  CZ        52.7350  -10.5630   -0.2640 C.ar  162  PHE162     -0.0000
     67  N         46.0450  -12.3670   -2.3200 N.am  163  ILE163     -0.1980
     68  CA        44.7020  -12.4630   -2.7880 C.3   163  ILE163      0.1595
     69  C         44.1070  -11.0660   -2.9990 C.2   163  ILE163      0.2287
     70  O         44.2620  -10.1600   -2.1260 O.2   163  ILE163     -0.2864
     71  CB        43.8690  -13.1660   -1.7520 C.3   163  ILE163      0.0276
     72  CG1       44.2950  -14.6120   -1.6450 C.3   163  ILE163      0.0022
     73  CG2       42.4100  -13.1130   -2.1470 C.3   163  ILE163      0.0022
     74  CD1       43.8270  -15.4020   -2.8730 C.3   163  ILE163      0.0001
     75  N         52.3140    5.9190   -9.3970 N.3   179  ASP179     -0.1225
     76  CA        51.4600    5.0900   -8.5340 C.3   179  ASP179      0.1805
     77  C         51.1930    5.9400   -7.2760 C.2   179  ASP179      0.2598
     78  O         51.8410    7.0070   -7.0640 O.2   179  ASP179     -0.2718
     79  CB        52.2810    3.8330   -8.0880 C.3   179  ASP179      0.1424
     80  CG        51.4230    2.6820   -7.6100 C.2   179  ASP179      0.3668
     81  OD1       52.0430    1.5760   -7.2970 O.co2 179  ASP179     -0.2456
     82  OD2       50.1640    2.8830   -7.4740 O.co2 179  ASP179     -0.2456
     83  N         50.2940    5.4350   -6.4110 N.am  180  ALA180     -0.1966
     84  CA        50.2670    5.8100   -5.0030 C.3   180  ALA180      0.1728
     85  C         51.4260    5.1290   -4.2600 C.2   180  ALA180      0.2616
     86  O         52.1130    4.2670   -4.8200 O.2   180  ALA180     -0.2715
     87  CB        48.9240    5.4360   -4.3900 C.3   180  ALA180      0.0334
     88  N         51.6810    5.5000   -3.0000 N.am  181  CYS181     -0.1954
     89  CA        52.8590    4.9500   -2.3090 C.3   181  CYS181      0.1843
     90  C         52.6100    5.0560   -0.7840 C.2   181  CYS181      0.2625
     91  O         51.5950    5.6040   -0.4070 O.2   181  CYS181     -0.2714
     92  CB        54.1190    5.7000   -2.8010 C.3   181  CYS181      0.0997
     93  SG        55.7070    4.9060   -2.3420 S.3   181  CYS181     -0.0797
     94  N         53.4830    4.5270    0.0740 N.am  182  GLN182     -0.1977
     95  CA        53.2590    4.6490    1.5360 C.3   182  GLN182      0.1601
     96  C         53.0400    6.0950    1.9050 C.2   182  GLN182      0.2287
     97  O         53.7260    6.9970    1.3730 O.2   182  GLN182     -0.2864
     98  CB        54.4420    4.1460    2.3590 C.3   182  GLN182      0.0394
     99  CG        54.9440    2.7880    1.9730 C.3   182  GLN182      0.0908
    100  CD        56.0010    2.3200    2.9330 C.2   182  GLN182      0.2608
    101  OE1       55.7000    2.0010    4.0610 O.2   182  GLN182     -0.2717
    102  NE2       57.2570    2.2960    2.4920 N.am  182  GLN182     -0.0878
    103  N         48.0550    5.7940    1.9360 N.3   185  SER185     -0.1217
    104  CA        46.9880    4.9300    2.4290 C.3   185  SER185      0.1889
    105  C         45.8770    5.6570    3.1420 C.2   185  SER185      0.2288
    106  O         46.1280    6.5520    3.9010 O.2   185  SER185     -0.2866
    107  CB        47.5510    3.9370    3.4030 C.3   185  SER185      0.2089
    108  OG        48.3670    3.0510    2.7600 O.3   185  SER185     -0.2183
    109  N         42.7510    4.2640   -0.7840 N.3   203  VAL203     -0.1231
    110  CA        44.0940    3.7400   -1.0050 C.3   203  VAL203      0.1692
    111  C         44.4040    2.6480    0.0490 C.2   203  VAL203      0.2593
    112  O         44.2740    2.9100    1.2440 O.2   203  VAL203     -0.2718
    113  CB        45.1880    4.8820   -0.8970 C.3   203  VAL203      0.0266
    114  CG1       46.5920    4.3250   -1.1530 C.3   203  VAL203      0.0020
    115  CG2       44.9170    6.0150   -1.9050 C.3   203  VAL203      0.0020
    116  N         44.7620    1.4200   -0.3550 N.am  204  SER204     -0.1938
    117  CA        44.8590    0.3970    0.6760 C.3   204  SER204      0.2055
    118  C         46.2570   -0.2090    0.7550 C.2   204  SER204      0.2643
    119  O         46.8680   -0.2180    1.8060 O.2   204  SER204     -0.2714
    120  CB        43.8080   -0.7070    0.4170 C.3   204  SER204      0.2130
    121  OG        43.8500   -1.7010    1.4280 O.3   204  SER204     -0.2179
    122  N         46.7450   -0.7480   -0.3560 N.am  205  TRP205     -0.1959
    123  CA        48.0350   -1.4430   -0.3360 C.3   205  TRP205      0.1771
    124  C         48.6340   -1.6590   -1.7190 C.2   205  TRP205      0.2620
    125  O         47.9970   -1.3980   -2.7340 O.2   205  TRP205     -0.2715
    126  CB        47.9410   -2.7780    0.4670 C.3   205  TRP205      0.0590
    127  CG        47.0550   -3.8350   -0.0950 C.ar  205  TRP205      0.0006
    128  CD1       45.7190   -4.0510    0.1770 C.ar  205  TRP205      0.0946
    129  CD2       47.4670   -4.9240   -0.9820 C.ar  205  TRP205      0.0152
    130  NE1       45.2910   -5.1680   -0.5350 N.ar  205  TRP205     -0.2442
    131  CE2       46.3470   -5.7200   -1.2150 C.ar  205  TRP205      0.0810
    132  CE3       48.6840   -5.2710   -1.5930 C.ar  205  TRP205      0.0012
    133  CZ2       46.3840   -6.8570   -2.0540 C.ar  205  TRP205      0.0191
    134  CZ3       48.7170   -6.4180   -2.4390 C.ar  205  TRP205      0.0001
    135  CH2       47.5650   -7.1910   -2.6310 C.ar  205  TRP205      0.0015
    136  N         49.9270   -2.0300   -1.7570 N.am  206  GLY206     -0.1940
    137  CA        50.5910   -2.1940   -3.0300 C.3   206  GLY206      0.2014
    138  C         51.9290   -2.8870   -2.7610 C.2   206  GLY206      0.2639
    139  O         52.5160   -2.7480   -1.6740 O.2   206  GLY206     -0.2714
    140  N         52.3920   -3.6710   -3.7300 N.am  207  GLU207     -0.1963
    141  CA        53.7260   -4.2730   -3.6150 C.3   207  GLU207      0.1733
    142  C         54.8110   -3.2880   -4.1530 C.2   207  GLU207      0.2617
    143  O         55.0410   -3.1880   -5.3560 O.2   207  GLU207     -0.2715
    144  CB        53.7580   -5.5740   -4.3950 C.3   207  GLU207      0.0429
    145  CG        52.7000   -6.5280   -3.8900 C.3   207  GLU207      0.1163
    146  CD        52.6690   -7.8540   -4.6090 C.2   207  GLU207      0.3649
    147  OE1       53.7020   -8.5360   -4.6170 O.co2 207  GLU207     -0.2457
    148  OE2       51.5870   -8.2430   -5.1310 O.co2 207  GLU207     -0.2457
    149  N         55.4720   -2.5630   -3.2730 N.am  208  GLY208     -0.1940
    150  CA        56.3520   -1.5120   -3.7560 C.3   208  GLY208      0.2014
    151  C         55.5370   -0.3420   -4.2150 C.2   208  GLY208      0.2639
    152  O         54.2700   -0.3220   -4.0130 O.2   208  GLY208     -0.2714
    153  N         56.2170    0.6860   -4.7430 N.am  209  CYS209     -0.1967
    154  CA        55.4720    1.7770   -5.4410 C.3   209  CYS209      0.1712
    155  C         55.8510    1.8370   -6.9200 C.2   209  CYS209      0.2296
    156  O         57.0330    1.9020   -7.2670 O.2   209  CYS209     -0.2864
    157  CB        55.7060    3.1610   -4.8000 C.3   209  CYS209      0.0983
    158  SG        55.5040    2.9970   -3.0380 S.3   209  CYS209     -0.0798
    159  N         55.9360   -0.3560   -9.2580 N.3   211  ARG211     -0.1245
    160  CA        56.8090   -1.4380   -9.7550 C.3   211  ARG211      0.1563
    161  C         56.2620   -2.0180  -11.0350 C.2   211  ARG211      0.2260
    162  O         55.0570   -2.1900  -11.1860 O.2   211  ARG211     -0.2867
    163  CB        57.0040   -2.5170   -8.6890 C.3   211  ARG211      0.0307
    164  CG        57.6570   -1.9040   -7.4330 C.3   211  ARG211      0.0489
    165  CD        58.7770   -2.7030   -6.7050 C.3   211  ARG211      0.2205
    166  NE        58.2830   -3.8460   -5.9470 N.pl3 211  ARG211     -0.0865
    167  CZ        58.4770   -4.1530   -4.6480 C.cat 211  ARG211      0.5346
    168  NH1       59.1880   -3.4160   -3.7690 N.pl3 211  ARG211      0.1354
    169  NH2       57.8920   -5.2740   -4.2160 N.pl3 211  ARG211      0.1354
    170  N         48.4670   -0.4200   -7.9060 N.3   216  GLY216     -0.1210
    171  CA        47.9710   -0.1300   -6.5880 C.3   216  GLY216      0.1956
    172  C         46.6530   -0.8190   -6.2920 C.2   216  GLY216      0.2612
    173  O         45.8040   -1.0120   -7.1990 O.2   216  GLY216     -0.2717
    174  N         46.4500   -1.1730   -5.0200 N.am  217  ILE217     -0.1965
    175  CA        45.2030   -1.8470   -4.6360 C.3   217  ILE217      0.1727
    176  C         44.3820   -0.8830   -3.7780 C.2   217  ILE217      0.2616
    177  O         44.8800   -0.2490   -2.7940 O.2   217  ILE217     -0.2715
    178  CB        45.4790   -3.1370   -3.8290 C.3   217  ILE217      0.0290
    179  CG1       46.5610   -3.9630   -4.5450 C.3   217  ILE217      0.0022
    180  CG2       44.1330   -4.0100   -3.6160 C.3   217  ILE217      0.0023
    181  CD1       46.2010   -4.3550   -6.0620 C.3   217  ILE217      0.0001
    182  N         43.1100   -0.8010   -4.1130 N.am  218  TYR218     -0.1974
    183  CA        42.1430    0.1030   -3.4760 C.3   218  TYR218      0.1639
    184  C         40.9970   -0.6440   -2.8750 C.2   218  TYR218      0.2290
    185  O         40.5480   -1.6280   -3.4400 O.2   218  TYR218     -0.2864
    186  CB        41.5720    1.0840   -4.5150 C.3   218  TYR218      0.0560
    187  CG        42.6480    1.9700   -5.0930 C.ar  218  TYR218     -0.0198
    188  CD1       43.4660    1.5090   -6.1250 C.ar  218  TYR218     -0.0009
    189  CD2       42.8810    3.2390   -4.5680 C.ar  218  TYR218     -0.0009
    190  CE1       44.5290    2.3510   -6.6370 C.ar  218  TYR218      0.0417
    191  CE2       43.8710    4.0470   -5.0770 C.ar  218  TYR218      0.0417
    192  CZ        44.6950    3.5810   -6.0980 C.ar  218  TYR218      0.1957
    193  OH        45.6620    4.3810   -6.6120 O.3   218  TYR218     -0.2866
@<TRIPOS>BOND
     1   162   161    2
     2   161   160    1
     3   160   159    1
     4   160   163    1
     5    75    76    1
     6   163   164    1
     7    76    79    1
     8    76    77    1
     9    79    80    1
    10   170   171    1
    11    80    82   ar
    12    80    81   ar
    13   164   165    1
    14    77    78    2
    15    77    83   am
    16   156   155    2
    17   173   172    2
    18   155   154    1
    19   165   166    1
    20   190   188   ar
    21   190   192   ar
    22   193   192    1
    23   171   172    1
    24    83    84    1
    25   172   174   am
    26   188   187   ar
    27   192   191   ar
    28   181   179    1
    29   166   167    2
    30   154   157    1
    31   154   153    1
    32   143   142    2
    33   148   146   ar
    34   187   189   ar
    35   187   186    1
    36   191   189   ar
    37    45    44   ar
    38   174   175    1
    39    84    87    1
    40    84    85    1
    41    86    85    2
    42   157   158    1
    43   153   151   am
    44   167   169    1
    45   167   168    1
    46   175   178    1
    47   175   176    1
    48   147   146   ar
    49   146   145    1
    50   179   178    1
    51   186   183    1
    52   144   145    1
    53   144   141    1
    54    38    39    1
    55    85    88   am
    56   151   152    2
    57   151   150    1
    58    42    39    1
    59    42    43    1
    60    59    58    2
    61   142   141    1
    62   142   149   am
    63   182   176   am
    64   182   183    1
    65    44    46   ar
    66    44    43    1
    67   178   180    1
    68   176   177    2
    69   150   149    1
    70   140   141    1
    71   140   138   am
    72    56    57    1
    73   183   184    1
    74    39    40    1
    75   185   184    2
    76    58    57    1
    77    58    67   am
    78   158    93    1
    79   137   138    1
    80   137   136    1
    81    88    89    1
    82    69    68    1
    83    69    70    2
    84    74    72    1
    85    92    93    1
    86    92    89    1
    87    68    67    1
    88    68    71    1
    89   138   139    2
    90   125   124    2
    91   135   134   ar
    92   135   133   ar
    93    47    40   am
    94    47    48    1
    95    57    60    1
    96    50    49    2
    97   134   132   ar
    98    89    90    1
    99    40    41    2
   100    73    71    1
   101   133   131   ar
   102    51    52    1
   103    51    48    1
   104   115   113    1
   105   136   124   am
   106    71    72    1
   107   124   123    1
   108    52    53    1
   109    49    48    1
   110   132   129   ar
   111    60    61    1
   112    63    65   ar
   113    63    61   ar
   114   131   129   ar
   115   131   130   ar
   116   114   113    1
   117    65    66   ar
   118    61    62   ar
   119   110   113    1
   120   110   109    1
   121   110   111    1
   122   129   127   ar
   123    90    91    2
   124    90    94   am
   125    55    54    1
   126   130   128   ar
   127   122   123    1
   128   122   118   am
   129   116   111   am
   130   116   117    1
   131   123   126    1
   132    53    54    1
   133    66    64   ar
   134    62    64   ar
   135   127   128   ar
   136   127   126    1
   137   111   112    2
   138    94    95    1
   139   120   117    1
   140   120   121    1
   141   117   118    1
   142   118   119    2
   143    97    96    2
   144    95    96    1
   145    95    98    1
   146   103   104    1
   147    99    98    1
   148    99   100    1
   149    22    21    2
   150   104   105    1
   151   104   107    1
   152   102   100   am
   153   108   107    1
   154   100   101    2
   155    29    28    2
   156   105   106    2
   157    21    20    1
   158    21    26   am
   159    23    25    1
   160    23    20    1
   161    23    24    1
   162    30    27    1
   163    30    31    1
   164    28    27    1
   165    20    19    1
   166    33    31   ar
   167    33    35   ar
   168    27    26    1
   169    31    32   ar
   170    35    36   ar
   171    13    12    2
   172    19    12   am
   173    32    34   ar
   174    12    11    1
   175    36    34   ar
   176    36    37    1
   177    11    14    1
   178    11    10    1
   179    14    15    1
   180     8     7    2
   181     9     7   am
   182    15    16    1
   183     7     6    1
   184    17    16   ar
   185    16    18   ar
   186     6     5    1
   187     5     2    1
   188     2     1    1
   189     2     3    1
   190     4     3    2
