@<TRIPOS>MOLECULE
tmp/3k9yA02.pdb
 165 156 0 0 0
SMALL
GASTEIGER

@<TRIPOS>ATOM
      1  N        -12.8000  -12.3070   31.9440 N.3    17  LEU17      -0.1245
      2  CA       -11.6540  -11.4330   32.1380 C.3    17  LEU17       0.1561
      3  C        -12.1330  -10.1370   32.7890 C.2    17  LEU17       0.2260
      4  O        -11.3790   -9.1830   32.9320 O.2    17  LEU17      -0.2867
      5  CB       -10.9990  -11.1210   30.7880 C.3    17  LEU17       0.0270
      6  CG        -9.4990  -10.8230   30.7440 C.3    17  LEU17       0.0019
      7  CD1       -8.7090  -12.0610   31.1360 C.3    17  LEU17       0.0001
      8  CD2       -9.1180  -10.4060   29.3310 C.3    17  LEU17       0.0001
      9  N        -10.7800   -9.2680   37.2490 N.3    21  PHE21      -0.1241
     10  CA       -10.1650   -8.0180   37.6810 C.3    21  PHE21       0.1605
     11  C        -11.0180   -7.3400   38.7630 C.2    21  PHE21       0.2264
     12  O        -10.5050   -6.9470   39.7960 O.2    21  PHE21      -0.2867
     13  CB        -9.9610   -7.0880   36.4940 C.3    21  PHE21       0.0534
     14  CG        -8.7970   -7.4490   35.6530 C.ar   21  PHE21      -0.0203
     15  CD1       -7.5020   -7.3530   36.1620 C.ar   21  PHE21      -0.0042
     16  CD2       -8.9790   -7.9360   34.3640 C.ar   21  PHE21      -0.0042
     17  CE1       -6.3940   -7.7510   35.3940 C.ar   21  PHE21      -0.0003
     18  CE2       -7.8740   -8.3350   33.5890 C.ar   21  PHE21      -0.0003
     19  CZ        -6.5880   -8.2440   34.1050 C.ar   21  PHE21      -0.0000
     20  N         -5.0130  -10.6290   38.0330 N.3    26  LEU26      -0.1245
     21  CA        -4.3080  -11.8820   37.9170 C.3    26  LEU26       0.1561
     22  C         -3.6580  -12.3580   39.2010 C.2    26  LEU26       0.2260
     23  O         -3.6950  -13.5610   39.4910 O.2    26  LEU26      -0.2867
     24  CB        -3.2520  -11.7910   36.8260 C.3    26  LEU26       0.0270
     25  CG        -3.7570  -11.7790   35.3930 C.3    26  LEU26       0.0019
     26  CD1       -2.5920  -12.1150   34.4650 C.3    26  LEU26       0.0001
     27  CD2       -4.8790  -12.7960   35.2310 C.3    26  LEU26       0.0001
     28  N         -5.9690  -14.4220   40.9930 N.3    29  GLN29      -0.1245
     29  CA        -6.6760  -15.4030   40.1730 C.3    29  GLN29       0.1566
     30  C         -7.0220  -16.7020   40.8810 C.2    29  GLN29       0.2260
     31  O         -8.1380  -17.2080   40.7550 O.2    29  GLN29      -0.2867
     32  CB        -5.8660  -15.7170   38.9220 C.3    29  GLN29       0.0367
     33  CG        -6.4250  -16.8580   38.0980 C.3    29  GLN29       0.0905
     34  CD        -5.7290  -16.9660   36.7700 C.2    29  GLN29       0.2608
     35  OE1       -4.5200  -16.7370   36.6810 O.2    29  GLN29      -0.2717
     36  NE2       -6.4760  -17.3160   35.7280 N.am   29  GLN29      -0.0878
     37  N        -10.9620  -16.2900   29.1940 N.3    48  LEU48      -0.1245
     38  CA       -10.3540  -14.9950   29.4170 C.3    48  LEU48       0.1561
     39  C        -10.0080  -14.6020   27.9950 C.2    48  LEU48       0.2260
     40  O         -9.0880  -15.1590   27.3870 O.2    48  LEU48      -0.2867
     41  CB        -9.0890  -15.1250   30.2610 C.3    48  LEU48       0.0270
     42  CG        -9.1920  -15.9900   31.5190 C.3    48  LEU48       0.0019
     43  CD1       -8.0450  -15.6270   32.4510 C.3    48  LEU48       0.0001
     44  CD2      -10.5280  -15.7730   32.2170 C.3    48  LEU48       0.0001
     45  N         -9.1720  -16.8980   24.9850 N.3    51  PHE51      -0.1241
     46  CA        -8.5850  -18.0760   25.6160 C.3    51  PHE51       0.1605
     47  C         -9.6450  -18.8480   26.3730 C.2    51  PHE51       0.2264
     48  O        -10.2330  -18.3420   27.3290 O.2    51  PHE51      -0.2867
     49  CB        -7.4590  -17.6720   26.5690 C.3    51  PHE51       0.0534
     50  CG        -6.9020  -18.8160   27.3830 C.ar   51  PHE51      -0.0203
     51  CD1       -7.5470  -19.2560   28.5460 C.ar   51  PHE51      -0.0042
     52  CD2       -5.7320  -19.4520   26.9950 C.ar   51  PHE51      -0.0042
     53  CE1       -7.0270  -20.3120   29.3050 C.ar   51  PHE51      -0.0003
     54  CE2       -5.2070  -20.5130   27.7500 C.ar   51  PHE51      -0.0003
     55  CZ        -5.8550  -20.9410   28.9040 C.ar   51  PHE51      -0.0000
     56  N          0.5850  -26.0290   28.6680 N.3    76  LEU76      -0.1245
     57  CA         0.5830  -24.9030   27.7430 C.3    76  LEU76       0.1561
     58  C          1.9060  -24.7260   27.0140 C.2    76  LEU76       0.2260
     59  O          2.9650  -25.1110   27.4990 O.2    76  LEU76      -0.2867
     60  CB         0.2310  -23.6130   28.4690 C.3    76  LEU76       0.0270
     61  CG        -1.2230  -23.2020   28.2370 C.3    76  LEU76       0.0019
     62  CD1       -2.1540  -24.2330   28.8610 C.3    76  LEU76       0.0001
     63  CD2       -1.4670  -21.8180   28.8270 C.3    76  LEU76       0.0001
     64  N          5.0250  -22.8810   25.9800 N.3    78  ILE78      -0.1245
     65  CA         5.8680  -21.7420   26.3310 C.3    78  ILE78       0.1561
     66  C          6.6620  -21.4430   25.0640 C.2    78  ILE78       0.2260
     67  O          7.8470  -21.7960   24.9160 O.2    78  ILE78      -0.2867
     68  CB         6.8220  -22.0410   27.5190 C.3    78  ILE78       0.0252
     69  CG1        6.0200  -22.1180   28.8180 C.3    78  ILE78       0.0019
     70  CG2        7.8460  -20.9280   27.6760 C.3    78  ILE78       0.0019
     71  CD1        6.8850  -22.3080   30.0590 C.3    78  ILE78       0.0001
     72  N         10.3240  -19.3870   25.0250 N.3    81  TRP81      -0.1241
     73  CA        11.5470  -20.1430   25.2970 C.3    81  TRP81       0.1605
     74  C         11.8400  -20.9320   24.0630 C.2    81  TRP81       0.2264
     75  O         12.9920  -20.9970   23.6030 O.2    81  TRP81      -0.2867
     76  CB        11.3740  -21.0790   26.4850 C.3    81  TRP81       0.0550
     77  CG        11.2620  -20.3540   27.7930 C.ar   81  TRP81       0.0003
     78  CD1       11.2300  -19.0030   27.9870 C.ar   81  TRP81       0.0946
     79  CD2       11.0460  -20.9470   29.0710 C.ar   81  TRP81       0.0152
     80  NE1       10.9910  -18.7230   29.3020 N.ar   81  TRP81      -0.2442
     81  CE2       10.8720  -19.9000   29.9920 C.ar   81  TRP81       0.0810
     82  CE3       10.9740  -22.2680   29.5280 C.ar   81  TRP81       0.0012
     83  CZ2       10.6250  -20.1300   31.3420 C.ar   81  TRP81       0.0191
     84  CZ3       10.7280  -22.4950   30.8700 C.ar   81  TRP81       0.0001
     85  CH2       10.5550  -21.4320   31.7600 C.ar   81  TRP81       0.0015
     86  N         10.7000  -28.6940   30.1270 N.3    95  MET95      -0.1245
     87  CA         9.6080  -27.7510   30.3190 C.3    95  MET95       0.1570
     88  C          8.8320  -27.6090   29.0370 C.2    95  MET95       0.2261
     89  O          7.6060  -27.4850   29.0600 O.2    95  MET95      -0.2867
     90  CB        10.1260  -26.3690   30.7420 C.3    95  MET95       0.0387
     91  CG        10.5930  -26.2590   32.1890 C.3    95  MET95       0.0595
     92  SD         9.3410  -26.7590   33.4030 S.3    95  MET95      -0.1393
     93  CE         8.0480  -25.5860   33.1270 C.3    95  MET95       0.0692
     94  N          9.8120  -12.8100   29.1140 N.3   196  PHE196     -0.1241
     95  CA         9.1460  -13.8630   28.3380 C.3   196  PHE196      0.1605
     96  C          7.6590  -13.8430   28.6300 C.2   196  PHE196      0.2264
     97  O          6.8490  -14.1380   27.7600 O.2   196  PHE196     -0.2867
     98  CB         9.7110  -15.2680   28.6470 C.3   196  PHE196      0.0534
     99  CG         9.0030  -15.9850   29.7700 C.ar  196  PHE196     -0.0203
    100  CD1        9.3810  -15.7810   31.0910 C.ar  196  PHE196     -0.0042
    101  CD2        7.9050  -16.8040   29.5060 C.ar  196  PHE196     -0.0042
    102  CE1        8.6730  -16.3730   32.1300 C.ar  196  PHE196     -0.0003
    103  CE2        7.1900  -17.4000   30.5440 C.ar  196  PHE196     -0.0003
    104  CZ         7.5740  -17.1820   31.8540 C.ar  196  PHE196     -0.0000
    105  N          3.7810  -13.9370   25.5990 N.3   200  MET200     -0.1230
    106  CA         2.8960  -15.0870   25.6900 C.3   200  MET200      0.1702
    107  C          1.5290  -14.5770   25.2670 C.2   200  MET200      0.2592
    108  O          0.8320  -15.2100   24.4720 O.2   200  MET200     -0.2718
    109  CB         2.8170  -15.6080   27.1290 C.3   200  MET200      0.0401
    110  CG         4.0200  -16.4160   27.6040 C.3   200  MET200      0.0596
    111  SD         3.6990  -18.1940   27.6350 S.3   200  MET200     -0.1393
    112  CE         2.3570  -18.2830   28.8240 C.3   200  MET200      0.0692
    113  N          1.1520  -13.4270   25.8210 N.am  201  VAL201     -0.1980
    114  CA        -0.1240  -12.8000   25.5090 C.3   201  VAL201      0.1595
    115  C          0.0300  -12.0760   24.1830 C.2   201  VAL201      0.2287
    116  O         -0.9320  -11.5290   23.6530 O.2   201  VAL201     -0.2864
    117  CB        -0.5480  -11.7630   26.5890 C.3   201  VAL201      0.0276
    118  CG1       -0.8870  -12.4570   27.9010 C.3   201  VAL201      0.0022
    119  CG2        0.5660  -10.7510   26.8000 C.3   201  VAL201      0.0022
    120  N         -1.8120  -24.3990   40.5710 N.3   340  PHE340     -0.1227
    121  CA        -2.3040  -25.2920   39.5390 C.3   340  PHE340      0.1736
    122  C         -1.3250  -25.5000   38.4150 C.2   340  PHE340      0.2596
    123  O         -0.4580  -24.6700   38.1710 O.2   340  PHE340     -0.2718
    124  CB        -3.5930  -24.7210   38.9530 C.3   340  PHE340      0.0547
    125  CG        -3.5370  -23.2410   38.7150 C.ar  340  PHE340     -0.0202
    126  CD1       -2.5040  -22.6840   37.9720 C.ar  340  PHE340     -0.0042
    127  CD2       -4.5000  -22.3940   39.2690 C.ar  340  PHE340     -0.0042
    128  CE1       -2.4220  -21.3040   37.7850 C.ar  340  PHE340     -0.0003
    129  CE2       -4.4300  -21.0080   39.0890 C.ar  340  PHE340     -0.0003
    130  CZ        -3.3860  -20.4650   38.3450 C.ar  340  PHE340     -0.0000
    131  N         -1.4780  -26.6260   37.7350 N.am  341  THR341     -0.1939
    132  CA        -0.6460  -26.9490   36.5880 C.3   341  THR341      0.2028
    133  C         -1.6530  -27.0160   35.4530 C.2   341  THR341      0.2642
    134  O         -2.8670  -26.9350   35.6900 O.2   341  THR341     -0.2714
    135  CB         0.0620  -28.3240   36.7470 C.3   341  THR341      0.1808
    136  OG1        0.9790  -28.5180   35.6600 O.3   341  THR341     -0.2208
    137  CG2       -0.9600  -29.4640   36.7680 C.3   341  THR341      0.0379
    138  N         -1.1700  -27.1640   34.2280 N.am  342  THR342     -0.1950
    139  CA        -2.0740  -27.2240   33.0930 C.3   342  THR342      0.1897
    140  C         -1.7940  -28.4300   32.2200 C.2   342  THR342      0.2313
    141  O         -0.6610  -28.8950   32.1410 O.2   342  THR342     -0.2863
    142  CB        -1.9650  -25.9350   32.2380 C.3   342  THR342      0.1794
    143  OG1       -3.1890  -25.7520   31.5110 O.3   342  THR342     -0.2208
    144  CG2       -0.7670  -26.0030   31.2800 C.3   342  THR342      0.0378
    145  N         -6.9290  -26.8310   33.2130 N.3   363  THR363     -0.1218
    146  CA        -6.2080  -26.1740   34.3030 C.3   363  THR363      0.1862
    147  C         -6.5320  -26.9820   35.5590 C.2   363  THR363      0.2287
    148  O         -7.6090  -26.8470   36.1430 O.2   363  THR363     -0.2866
    149  CB        -6.6420  -24.6920   34.4950 C.3   363  THR363      0.1770
    150  OG1       -7.9950  -24.6380   34.9710 O.3   363  THR363     -0.2211
    151  CG2       -6.5200  -23.9220   33.1700 C.3   363  THR363      0.0375
    152  N         -0.5890  -14.6100   43.5390 N.3   444  HIS444     -0.1241
    153  CA        -0.0400  -15.3560   42.4330 C.3   444  HIS444      0.1621
    154  C          0.7910  -14.4500   41.5440 C.2   444  HIS444      0.2264
    155  O          0.3220  -13.4120   41.1050 O.2   444  HIS444     -0.2867
    156  CB        -1.1240  -16.0570   41.6210 C.3   444  HIS444      0.0745
    157  CG        -0.5820  -17.1390   40.7380 C.ar  444  HIS444      0.0817
    158  ND1       -1.3640  -18.1470   40.2180 N.ar  444  HIS444     -0.2268
    159  CD2        0.6760  -17.3750   40.2970 C.ar  444  HIS444      0.1154
    160  CE1       -0.6110  -18.9590   39.4980 C.ar  444  HIS444      0.1986
    161  NE2        0.6310  -18.5120   39.5290 N.ar  444  HIS444     -0.2212
    162  N          3.3250  -16.3270   39.4850 N.3   446  GLY446     -0.1225
    163  CA         4.0720  -17.4870   39.0460 C.3   446  GLY446      0.1811
    164  C          3.8240  -18.5050   40.1390 C.2   446  GLY446      0.2280
    165  O          3.2950  -19.5930   39.9030 O.2   446  GLY446     -0.2866
@<TRIPOS>BOND
     1    75    74    2
     2   116   115    2
     3    74    73    1
     4   115   114    1
     5   108   107    2
     6    67    66    2
     7    45    46    1
     8    72    73    1
     9    66    65    1
    10   107   106    1
    11   107   113   am
    12    73    76    1
    13   114   113    1
    14   114   117    1
    15   105   106    1
    16    46    47    1
    17    46    49    1
    18   106   109    1
    19    64    65    1
    20    65    68    1
    21    47    48    2
    22    76    77    1
    23    49    50    1
    24   117   119    1
    25   117   118    1
    26    52    50   ar
    27    52    54   ar
    28    58    59    2
    29    58    57    1
    30   109   110    1
    31    50    51   ar
    32    40    39    2
    33    68    70    1
    34    68    69    1
    35   110   111    1
    36   111   112    1
    37    57    60    1
    38    57    56    1
    39    54    55   ar
    40    97    96    2
    41    77    78   ar
    42    77    79   ar
    43    78    80   ar
    44    39    38    1
    45    61    60    1
    46    61    63    1
    47    61    62    1
    48    95    96    1
    49    95    98    1
    50    95    94    1
    51    51    53   ar
    52    98    99    1
    53    69    71    1
    54    55    53   ar
    55    88    89    2
    56    88    87    1
    57    79    82   ar
    58    79    81   ar
    59    37    38    1
    60    80    81   ar
    61     8     6    1
    62    38    41    1
    63   101    99   ar
    64   101   103   ar
    65    82    84   ar
    66    99   100   ar
    67    81    83   ar
    68    86    87    1
    69    41    42    1
    70    87    90    1
    71   103   104   ar
    72    90    91    1
    73     6     5    1
    74     6     7    1
    75     5     2    1
    76    84    85   ar
    77   100   102   ar
    78   144   142    1
    79    83    85   ar
    80   143   142    1
    81    42    44    1
    82    42    43    1
    83   104   102   ar
    84     1     2    1
    85     2     3    1
    86   141   140    2
    87    91    92    1
    88   140   139    1
    89   142   139    1
    90     3     4    2
    91   139   138    1
    92    93    92    1
    93   151   149    1
    94   145   146    1
    95    18    19   ar
    96    18    16   ar
    97    19    17   ar
    98   138   133   am
    99   146   149    1
   100   146   147    1
   101    16    14   ar
   102    26    25    1
   103   149   150    1
   104    27    25    1
   105    25    24    1
   106    17    15   ar
   107   133   134    2
   108   133   132    1
   109   147   148    2
   110    14    15   ar
   111    14    13    1
   112   136   135    1
   113    36    34   am
   114    13    10    1
   115   132   135    1
   116   132   131    1
   117    35    34    2
   118   135   137    1
   119    34    33    1
   120    24    21    1
   121     9    10    1
   122    10    11    1
   123   131   122   am
   124   128   126   ar
   125   128   130   ar
   126    21    20    1
   127    21    22    1
   128   126   125   ar
   129    33    32    1
   130   123   122    2
   131   130   129   ar
   132   122   121    1
   133   125   124    1
   134   125   127   ar
   135    11    12    2
   136    32    29    1
   137   124   121    1
   138   163   162    1
   139   163   164    1
   140   129   127   ar
   141    22    23    2
   142   160   161   ar
   143   160   158   ar
   144   161   159   ar
   145   121   120    1
   146   165   164    2
   147    29    30    1
   148    29    28    1
   149   158   157   ar
   150   159   157   ar
   151   157   156    1
   152    31    30    2
   153   155   154    2
   154   154   153    1
   155   156   153    1
   156   153   152    1
