@<TRIPOS>MOLECULE
tmp/3k9yA01.pdb
 101 96 0 0 0
SMALL
GASTEIGER

@<TRIPOS>ATOM
      1  N         -5.0130  -10.6290   38.0330 N.3    26  LEU26      -0.1245
      2  CA        -4.3080  -11.8820   37.9170 C.3    26  LEU26       0.1561
      3  C         -3.6580  -12.3580   39.2010 C.2    26  LEU26       0.2260
      4  O         -3.6950  -13.5610   39.4910 O.2    26  LEU26      -0.2867
      5  CB        -3.2520  -11.7910   36.8260 C.3    26  LEU26       0.0270
      6  CG        -3.7570  -11.7790   35.3930 C.3    26  LEU26       0.0019
      7  CD1       -2.5920  -12.1150   34.4650 C.3    26  LEU26       0.0001
      8  CD2       -4.8790  -12.7960   35.2310 C.3    26  LEU26       0.0001
      9  N         16.6140  -13.2240   36.3360 N.3   190  LYS190     -0.1245
     10  CA        15.4850  -12.3880   36.7530 C.3   190  LYS190      0.1561
     11  C         14.8890  -11.5590   35.6210 C.2   190  LYS190      0.2260
     12  O         13.6690  -11.4320   35.5260 O.2   190  LYS190     -0.2867
     13  CB        15.8890  -11.4940   37.9330 C.3   190  LYS190      0.0271
     14  CG        16.4160  -12.2950   39.1230 C.3   190  LYS190      0.0035
     15  CD        16.1340  -11.6400   40.4810 C.3   190  LYS190      0.0206
     16  CE        16.9450  -10.3710   40.7180 C.3   190  LYS190      0.1093
     17  NZ        16.7030   -9.8110   42.0840 N.3   190  LYS190     -0.1314
     18  N         13.1300  -13.8570   33.2940 N.3   193  MET193     -0.1230
     19  CA        11.9460  -14.4220   33.9300 C.3   193  MET193      0.1702
     20  C         10.7200  -13.5580   33.9900 C.2   193  MET193      0.2593
     21  O          9.6780  -14.0070   34.4510 O.2   193  MET193     -0.2718
     22  CB        12.2800  -14.8960   35.3420 C.3   193  MET193      0.0401
     23  CG        12.8070  -16.3070   35.3810 C.3   193  MET193      0.0596
     24  SD        11.6440  -17.4300   34.5880 S.3   193  MET193     -0.1393
     25  CE        10.4590  -17.6970   35.9230 C.3   193  MET193      0.0692
     26  N         10.8270  -12.3230   33.5310 N.am  194  SER194     -0.1952
     27  CA         9.6910  -11.4130   33.5820 C.3   194  SER194      0.1924
     28  C          9.2760  -11.0120   32.1810 C.2   194  SER194      0.2314
     29  O          8.0860  -10.8230   31.8960 O.2   194  SER194     -0.2863
     30  CB        10.0890  -10.1800   34.3650 C.3   194  SER194      0.2116
     31  OG        11.3200   -9.7110   33.8490 O.3   194  SER194     -0.2180
     32  N          9.8120  -12.8100   29.1140 N.3   196  PHE196     -0.1227
     33  CA         9.1460  -13.8630   28.3380 C.3   196  PHE196      0.1736
     34  C          7.6590  -13.8430   28.6300 C.2   196  PHE196      0.2596
     35  O          6.8490  -14.1380   27.7600 O.2   196  PHE196     -0.2718
     36  CB         9.7110  -15.2680   28.6470 C.3   196  PHE196      0.0547
     37  CG         9.0030  -15.9850   29.7700 C.ar  196  PHE196     -0.0202
     38  CD1        9.3810  -15.7810   31.0910 C.ar  196  PHE196     -0.0042
     39  CD2        7.9050  -16.8040   29.5060 C.ar  196  PHE196     -0.0042
     40  CE1        8.6730  -16.3730   32.1300 C.ar  196  PHE196     -0.0003
     41  CE2        7.1900  -17.4000   30.5440 C.ar  196  PHE196     -0.0003
     42  CZ         7.5740  -17.1820   31.8540 C.ar  196  PHE196     -0.0000
     43  N          7.3060  -13.4940   29.8580 N.am  197  GLY197     -0.1942
     44  CA         5.9040  -13.4490   30.2130 C.3   197  GLY197      0.2014
     45  C          5.0990  -12.6150   29.2310 C.2   197  GLY197      0.2638
     46  O          3.9760  -12.9690   28.8880 O.2   197  GLY197     -0.2714
     47  N          5.6740  -11.5090   28.7680 N.am  198  LYS198     -0.1977
     48  CA         4.9850  -10.6170   27.8380 C.3   198  LYS198      0.1596
     49  C          4.7980  -11.1530   26.4210 C.2   198  LYS198      0.2287
     50  O          3.8450  -10.7800   25.7440 O.2   198  LYS198     -0.2864
     51  CB         5.6830   -9.2470   27.7990 C.3   198  LYS198      0.0298
     52  CG         5.4300   -8.4030   29.0630 C.3   198  LYS198      0.0038
     53  CD         5.6050   -6.9040   28.8290 C.3   198  LYS198      0.0206
     54  CE         7.0580   -6.5350   28.5740 C.3   198  LYS198      0.1093
     55  NZ         7.8800   -6.7520   29.7820 N.3   198  LYS198     -0.1314
     56  N          3.7810  -13.9370   25.5990 N.3   200  MET200     -0.1230
     57  CA         2.8960  -15.0870   25.6900 C.3   200  MET200      0.1702
     58  C          1.5290  -14.5770   25.2670 C.2   200  MET200      0.2592
     59  O          0.8320  -15.2100   24.4720 O.2   200  MET200     -0.2718
     60  CB         2.8170  -15.6080   27.1290 C.3   200  MET200      0.0401
     61  CG         4.0200  -16.4160   27.6040 C.3   200  MET200      0.0596
     62  SD         3.6990  -18.1940   27.6350 S.3   200  MET200     -0.1393
     63  CE         2.3570  -18.2830   28.8240 C.3   200  MET200      0.0692
     64  N          1.1520  -13.4270   25.8210 N.am  201  VAL201     -0.1980
     65  CA        -0.1240  -12.8000   25.5090 C.3   201  VAL201      0.1595
     66  C          0.0300  -12.0760   24.1830 C.2   201  VAL201      0.2287
     67  O         -0.9320  -11.5290   23.6530 O.2   201  VAL201     -0.2864
     68  CB        -0.5480  -11.7630   26.5890 C.3   201  VAL201      0.0276
     69  CG1       -0.8870  -12.4570   27.9010 C.3   201  VAL201      0.0022
     70  CG2        0.5660  -10.7510   26.8000 C.3   201  VAL201      0.0022
     71  N         13.6720  -20.7080   43.0910 N.3   276  GLU276     -0.1245
     72  CA        12.5860  -19.9960   43.7280 C.3   276  GLU276      0.1567
     73  C         11.5150  -20.8700   44.3420 C.2   276  GLU276      0.2260
     74  O         11.1290  -20.6540   45.4970 O.2   276  GLU276     -0.2867
     75  CB        11.9320  -19.0180   42.7690 C.3   276  GLU276      0.0388
     76  CG        10.9920  -18.0930   43.4890 C.3   276  GLU276      0.1160
     77  CD        10.5930  -16.9060   42.6520 C.2   276  GLU276      0.3649
     78  OE1       11.4810  -16.3730   41.9460 O.co2 276  GLU276     -0.2457
     79  OE2        9.4060  -16.4960   42.7120 O.co2 276  GLU276     -0.2457
     80  N         -0.5890  -14.6100   43.5390 N.3   444  HIS444     -0.1226
     81  CA        -0.0400  -15.3560   42.4330 C.3   444  HIS444      0.1752
     82  C          0.7910  -14.4500   41.5440 C.2   444  HIS444      0.2596
     83  O          0.3220  -13.4120   41.1050 O.2   444  HIS444     -0.2718
     84  CB        -1.1240  -16.0570   41.6210 C.3   444  HIS444      0.0759
     85  CG        -0.5820  -17.1390   40.7380 C.ar  444  HIS444      0.0818
     86  ND1       -1.3640  -18.1470   40.2180 N.ar  444  HIS444     -0.2268
     87  CD2        0.6760  -17.3750   40.2970 C.ar  444  HIS444      0.1154
     88  CE1       -0.6110  -18.9590   39.4980 C.ar  444  HIS444      0.1986
     89  NE2        0.6310  -18.5120   39.5290 N.ar  444  HIS444     -0.2212
     90  N          2.0440  -14.8490   41.3400 N.am  445  LEU445     -0.1966
     91  CA         3.0250  -14.1540   40.5080 C.3   445  LEU445      0.1728
     92  C          3.9390  -15.2860   40.0370 C.2   445  LEU445      0.2616
     93  O          5.1700  -15.2170   40.1720 O.2   445  LEU445     -0.2715
     94  CB         3.8730  -13.1630   41.3170 C.3   445  LEU445      0.0311
     95  CG         3.2730  -12.1460   42.2900 C.3   445  LEU445      0.0022
     96  CD1        4.4000  -11.2660   42.7900 C.3   445  LEU445      0.0001
     97  CD2        2.2110  -11.2980   41.6320 C.3   445  LEU445      0.0001
     98  N          3.3250  -16.3270   39.4850 N.am  446  GLY446     -0.1955
     99  CA         4.0720  -17.4870   39.0460 C.3   446  GLY446      0.1869
    100  C          3.8240  -18.5050   40.1390 C.2   446  GLY446      0.2309
    101  O          3.2950  -19.5930   39.9030 O.2   446  GLY446     -0.2863
@<TRIPOS>BOND
     1    67    66    2
     2    66    65    1
     3    59    58    2
     4    58    57    1
     5    58    64   am
     6    65    64    1
     7    65    68    1
     8    56    57    1
     9    57    60    1
    10    50    49    2
    11    49    48    1
    12    68    70    1
    13    68    69    1
    14    60    61    1
    15    61    62    1
    16    62    63    1
    17    35    34    2
    18    51    48    1
    19    51    52    1
    20    48    47    1
    21    33    34    1
    22    33    36    1
    23    33    32    1
    24    54    53    1
    25    54    55    1
    26    34    43   am
    27    36    37    1
    28    47    45   am
    29    53    52    1
    30    46    45    2
    31    45    44    1
    32    39    37   ar
    33    39    41   ar
    34    37    38   ar
    35    43    44    1
    36    41    42   ar
    37    38    40   ar
    38    42    40   ar
    39    29    28    2
    40    28    27    1
    41    18    19    1
    42    26    27    1
    43    26    20   am
    44    27    30    1
    45    31    30    1
    46    19    20    1
    47    19    22    1
    48    20    21    2
    49     7     6    1
    50    24    23    1
    51    24    25    1
    52     8     6    1
    53    22    23    1
    54     6     5    1
    55    12    11    2
    56    11    10    1
    57     9    10    1
    58    10    13    1
    59     5     2    1
    60     2     1    1
    61     2     3    1
    62    13    14    1
    63    99    98    1
    64    99   100    1
    65    14    15    1
    66     3     4    2
    67    98    92   am
    68    88    89   ar
    69    88    86   ar
    70    89    87   ar
    71   101   100    2
    72    92    93    2
    73    92    91    1
    74    86    85   ar
    75    87    85   ar
    76    15    16    1
    77    91    94    1
    78    91    90    1
    79    16    17    1
    80    85    84    1
    81    83    82    2
    82    94    95    1
    83    90    82   am
    84    82    81    1
    85    84    81    1
    86    97    95    1
    87    78    77   ar
    88    95    96    1
    89    81    80    1
    90    77    79   ar
    91    77    76    1
    92    75    76    1
    93    75    72    1
    94    71    72    1
    95    72    73    1
    96    73    74    2
