@<TRIPOS>MOLECULE
tmp/3ka0A00.pdb
 176 167 0 0 0
SMALL
GASTEIGER

@<TRIPOS>ATOM
      1  N        230.3480   71.9180  179.1120 N.3    30  GLY30      -0.1210
      2  CA       230.3450   72.9340  180.1760 C.3    30  GLY30       0.1956
      3  C        231.4710   73.9620  180.2970 C.2    30  GLY30       0.2615
      4  O        231.2110   75.1230  180.6730 O.2    30  GLY30      -0.2717
      5  N        232.7070   73.5580  179.9960 N.am   31  LYS31      -0.1920
      6  CA       233.8680   74.4310  180.1930 C.3    31  LYS31       0.1944
      7  C        233.7620   75.7680  179.4450 C.2    31  LYS31       0.2659
      8  O        233.2350   75.8420  178.3270 O.2    31  LYS31      -0.2711
      9  CB       235.1660   73.6840  179.8440 C.2    31  LYS31      -0.0002
     10  CG       236.4320   73.9750  180.7390 C.2    31  LYS31      -0.0270
     11  CD       236.2990   75.0990  181.8550 C.3    31  LYS31       0.0462
     12  CE       235.2050   74.8660  182.9510 C.3    31  LYS31       0.1140
     13  NZ       235.1890   73.4600  183.5010 N.3    31  LYS31      -0.1310
     14  N        234.2260   76.8370  180.0760 N.am   32  VAL32      -0.1961
     15  CA       234.2590   78.1040  179.3750 C.3    32  VAL32       0.1727
     16  C        235.6550   78.3600  178.8090 C.2    32  VAL32       0.2616
     17  O        236.6500   77.9360  179.3750 O.2    32  VAL32      -0.2715
     18  CB       233.7650   79.2610  180.2320 C.3    32  VAL32       0.0290
     19  CG1      232.6300   78.8080  181.1080 C.3    32  VAL32       0.0023
     20  CG2      234.8730   79.7810  181.0510 C.3    32  VAL32       0.0023
     21  N        235.7210   79.0600  177.6860 N.am   33  LEU33      -0.1963
     22  CA       236.9380   79.0820  176.8970 C.3    33  LEU33       0.1728
     23  C        237.4010   80.4510  176.4130 C.2    33  LEU33       0.2616
     24  O        236.6100   81.3870  176.3420 O.2    33  LEU33      -0.2715
     25  CB       236.7660   78.1450  175.7130 C.3    33  LEU33       0.0311
     26  CG       236.7190   76.6630  176.0940 C.3    33  LEU33       0.0022
     27  CD1      236.2290   75.8670  174.9130 C.3    33  LEU33       0.0001
     28  CD2      238.0820   76.1370  176.5890 C.3    33  LEU33       0.0001
     29  N        238.7010   80.5170  176.0890 N.am   34  GLN34      -0.1977
     30  CA       239.4100   81.6640  175.5480 C.3    34  GLN34       0.1601
     31  C        239.0730   81.7740  174.0950 C.2    34  GLN34       0.2287
     32  O        239.4780   80.9020  173.3140 O.2    34  GLN34      -0.2864
     33  CB       240.9600   81.2330  175.5820 C.3    34  GLN34       0.0394
     34  CG       241.9710   82.3580  175.0680 C.3    34  GLN34       0.0908
     35  CD       242.6110   83.1380  176.2350 C.2    34  GLN34       0.2608
     36  OE1      241.9260   83.8710  176.9770 O.2    34  GLN34      -0.2717
     37  NE2      243.9210   82.9580  176.4130 N.am   34  GLN34      -0.0878
     38  N        240.2930   89.7030  173.8190 N.3    43  LYS43      -0.1245
     39  CA       240.0790   88.3890  174.4060 C.3    43  LYS43       0.1561
     40  C        238.6890   88.3470  175.0310 C.2    43  LYS43       0.2260
     41  O        238.2940   89.2750  175.7200 O.2    43  LYS43      -0.2867
     42  CB       241.1540   88.1610  175.4790 C.3    43  LYS43       0.0271
     43  CG       241.8620   86.8080  175.4240 C.3    43  LYS43       0.0035
     44  CD       243.4030   86.9200  175.6550 C.3    43  LYS43       0.0206
     45  CE       243.8000   87.2690  177.1170 C.3    43  LYS43       0.1093
     46  NZ       242.9740   86.5570  178.1730 N.3    43  LYS43      -0.1314
     47  N        235.3920   85.3980  176.6370 N.3    45  ALA45      -0.1245
     48  CA       235.0800   84.0590  177.1160 C.3    45  ALA45       0.1562
     49  C        233.8420   83.4520  176.4330 C.2    45  ALA45       0.2260
     50  O        232.7890   84.1030  176.3040 O.2    45  ALA45      -0.2867
     51  CB       234.8720   84.0950  178.5850 C.3    45  ALA45       0.0290
     52  N        230.9660   80.3640  176.5170 N.3    47  LYS47      -0.1245
     53  CA       230.3140   79.2560  177.2130 C.3    47  LYS47       0.1561
     54  C        229.2190   78.7010  176.3190 C.2    47  LYS47       0.2260
     55  O        228.4110   79.4630  175.8220 O.2    47  LYS47      -0.2867
     56  CB       229.7310   79.7430  178.5330 C.3    47  LYS47       0.0271
     57  CG       228.8610   78.7430  179.2290 C.3    47  LYS47       0.0035
     58  CD       228.2710   79.3420  180.4470 C.3    47  LYS47       0.0206
     59  CE       228.0300   78.2790  181.4640 C.3    47  LYS47       0.1093
     60  NZ       227.2540   78.8570  182.5860 N.3    47  LYS47      -0.1314
     61  N        218.8230   80.8340  181.4550 N.3    58  GLU58      -0.1245
     62  CA       220.0660   81.3290  181.9710 C.3    58  GLU58       0.1567
     63  C        220.4730   82.5920  181.2170 C.2    58  GLU58       0.2260
     64  O        220.6170   83.6540  181.8190 O.2    58  GLU58      -0.2867
     65  CB       221.1420   80.2680  181.8550 C.3    58  GLU58       0.0388
     66  CG       222.4760   80.7820  182.3140 C.3    58  GLU58       0.1160
     67  CD       223.5550   79.7220  182.2780 C.2    58  GLU58       0.3649
     68  OE1      224.7480   80.0950  182.0810 O.co2  58  GLU58      -0.2457
     69  OE2      223.2100   78.5180  182.4520 O.co2  58  GLU58      -0.2457
     70  N        220.9570   86.2630  182.7330 N.3    62  HIS62      -0.1241
     71  CA       222.2910   86.7850  182.7480 C.3    62  HIS62       0.1621
     72  C        222.3720   88.0940  181.9640 C.2    62  HIS62       0.2264
     73  O        223.0550   89.0370  182.3730 O.2    62  HIS62      -0.2867
     74  CB       223.2320   85.7580  182.1790 C.3    62  HIS62       0.0745
     75  CG       224.6680   86.0230  182.4980 C.ar   62  HIS62       0.0817
     76  ND1      225.6320   85.0340  182.4620 N.ar   62  HIS62      -0.2268
     77  CD2      225.3060   87.1680  182.8600 C.ar   62  HIS62       0.1154
     78  CE1      226.8070   85.5730  182.7440 C.ar   62  HIS62       0.1986
     79  NE2      226.6340   86.8580  183.0110 N.ar   62  HIS62      -0.2212
     80  N        229.5780   89.5730  185.4850 N.3    72  VAL72      -0.1245
     81  CA       230.2070   89.3670  184.1770 C.3    72  VAL72       0.1561
     82  C        229.2640   89.7550  183.0820 C.2    72  VAL72       0.2260
     83  O        228.1280   89.3110  183.0420 O.2    72  VAL72      -0.2867
     84  CB       230.6430   87.9080  183.9310 C.3    72  VAL72       0.0252
     85  CG1      231.5490   87.8410  182.7290 C.3    72  VAL72       0.0019
     86  CG2      231.3930   87.4060  185.1030 C.3    72  VAL72       0.0019
     87  N        231.3170   86.3160  176.5350 N.3    92  MET92      -0.1230
     88  CA       231.4510   87.1070  177.7610 C.3    92  MET92       0.1702
     89  C        232.7660   87.8300  177.8370 C.2    92  MET92       0.2592
     90  O        233.7620   87.4180  177.2340 O.2    92  MET92      -0.2718
     91  CB       231.3500   86.2360  179.0230 C.3    92  MET92       0.0401
     92  CG       229.9760   85.6760  179.3100 C.3    92  MET92       0.0596
     93  SD       229.9650   84.2370  180.4120 S.3    92  MET92      -0.1393
     94  CE       231.1910   83.1910  179.6110 C.3    92  MET92       0.0692
     95  N        232.7670   88.8870  178.6440 N.am   93  GLU93      -0.1966
     96  CA       233.9790   89.5990  178.9730 C.3    93  GLU93       0.1733
     97  C        234.9500   88.6330  179.5870 C.2    93  GLU93       0.2616
     98  O        234.5780   87.6760  180.2170 O.2    93  GLU93      -0.2715
     99  CB       233.7220   90.8090  179.8790 C.3    93  GLU93       0.0429
    100  CG       233.3140   90.5140  181.2980 C.3    93  GLU93       0.1163
    101  CD       233.2570   91.7740  182.2050 C.2    93  GLU93       0.3649
    102  OE1      232.2080   91.9720  182.8940 O.co2  93  GLU93      -0.2457
    103  OE2      234.2540   92.5560  182.2360 O.co2  93  GLU93      -0.2457
    104  N        236.2180   88.8730  179.3420 N.am   94  CYS94      -0.1954
    105  CA       237.2500   88.0070  179.8230 C.3    94  CYS94       0.1843
    106  C        237.7010   88.4060  181.2310 C.2    94  CYS94       0.2625
    107  O        237.9170   89.5920  181.5140 O.2    94  CYS94      -0.2714
    108  CB       238.4080   88.0820  178.8680 C.3    94  CYS94       0.0997
    109  SG       239.7220   87.1090  179.4620 S.3    94  CYS94      -0.0797
    110  N        237.8510   87.4100  182.1070 N.am   95  LEU95      -0.1963
    111  CA       238.3010   87.6530  183.4890 C.3    95  LEU95       0.1728
    112  C        239.6530   87.0200  183.8580 C.2    95  LEU95       0.2616
    113  O        239.7190   85.9680  184.5060 O.2    95  LEU95      -0.2715
    114  CB       237.1980   87.2890  184.4970 C.3    95  LEU95       0.0311
    115  CG       235.8610   87.9940  184.2600 C.3    95  LEU95       0.0022
    116  CD1      234.8440   87.4930  185.2420 C.3    95  LEU95       0.0001
    117  CD2      235.9800   89.4810  184.3780 C.3    95  LEU95       0.0001
    118  N        240.7240   87.7000  183.4450 N.am   96  ASP96      -0.1971
    119  CA       242.1150   87.2500  183.6320 C.3    96  ASP96       0.1709
    120  C        242.5470   87.0370  185.0750 C.2    96  ASP96       0.2293
    121  O        243.4900   86.2860  185.3240 O.2    96  ASP96      -0.2864
    122  CB       243.0990   88.2140  182.9520 C.3    96  ASP96       0.1436
    123  CG       243.3620   87.8370  181.5160 C.2    96  ASP96       0.3671
    124  OD1      242.5860   87.0110  180.9850 O.co2  96  ASP96      -0.2456
    125  OD2      244.3320   88.3390  180.9080 O.co2  96  ASP96      -0.2456
    126  N        234.1160   79.6780  193.2210 N.3   138  GLU138     -0.1231
    127  CA       234.4590   79.6820  191.7960 C.3   138  GLU138      0.1699
    128  C        233.5400   80.4950  190.8990 C.2   138  GLU138      0.2592
    129  O        233.6460   80.4080  189.6820 O.2   138  GLU138     -0.2718
    130  CB       234.5590   78.2670  191.2560 C.3   138  GLU138      0.0402
    131  CG       233.2610   77.5250  191.2270 C.3   138  GLU138      0.1161
    132  CD       233.4770   76.0520  191.5110 C.2   138  GLU138      0.3649
    133  OE1      233.5050   75.2750  190.5280 O.co2 138  GLU138     -0.2457
    134  OE2      233.6540   75.6800  192.7060 O.co2 138  GLU138     -0.2457
    135  N        232.6220   81.2640  191.4630 N.am  139  ASN139     -0.1974
    136  CA       231.8110   82.1150  190.6150 C.3   139  ASN139      0.1688
    137  C        232.1100   83.5370  190.9080 C.2   139  ASN139      0.2292
    138  O        231.3460   84.4220  190.5390 O.2   139  ASN139     -0.2864
    139  CB       230.3340   81.8310  190.7760 C.3   139  ASN139      0.1181
    140  CG       229.9790   80.4280  190.3860 C.2   139  ASN139      0.2629
    141  OD1      229.1180   79.8270  190.9970 O.2   139  ASN139     -0.2716
    142  ND2      230.6490   79.8860  189.3740 N.am  139  ASN139     -0.0877
    143  N        235.1080   86.0890  190.2250 N.3   141  LEU141     -0.1245
    144  CA       236.2980   86.2390  189.4380 C.3   141  LEU141      0.1561
    145  C        236.7160   87.7050  189.3870 C.2   141  LEU141      0.2260
    146  O        235.8780   88.6150  189.4780 O.2   141  LEU141     -0.2867
    147  CB       236.0740   85.6680  188.0310 C.3   141  LEU141      0.0270
    148  CG       235.7420   84.1750  187.9020 C.3   141  LEU141      0.0019
    149  CD1      235.6890   83.7560  186.4520 C.3   141  LEU141      0.0001
    150  CD2      236.7830   83.3500  188.6150 C.3   141  LEU141      0.0001
    151  N        229.5730   85.5400  188.4920 N.3   154  THR154     -0.1203
    152  CA       229.3650   84.8400  187.2510 C.3   154  THR154      0.1994
    153  C        228.4840   83.5990  187.3910 C.2   154  THR154      0.2618
    154  O        228.1000   83.2270  188.5010 O.2   154  THR154     -0.2717
    155  CB       230.7150   84.4020  186.6750 C.3   154  THR154      0.1784
    156  OG1      230.5370   84.1130  185.2910 O.3   154  THR154     -0.2211
    157  CG2      231.2360   83.1530  187.3520 C.3   154  THR154      0.0376
    158  N        228.1920   82.9520  186.2540 N.am  155  ASP155     -0.1959
    159  CA       227.4860   81.6400  186.1860 C.3   155  ASP155      0.1840
    160  C        226.0550   81.6320  186.6890 C.2   155  ASP155      0.2622
    161  O        225.8420   81.4960  187.8900 O.2   155  ASP155     -0.2715
    162  CB       228.2690   80.5460  186.8980 C.3   155  ASP155      0.1450
    163  CG       227.7190   79.1560  186.6080 C.2   155  ASP155      0.3671
    164  OD1      226.5420   79.0720  186.1630 O.co2 155  ASP155     -0.2456
    165  OD2      228.4610   78.1510  186.8400 O.co2 155  ASP155     -0.2456
    166  N        225.0910   81.7340  185.7710 N.am  156  PHE156     -0.1974
    167  CA       223.6710   81.7900  186.1060 C.3   156  PHE156      0.1639
    168  C        222.8990   80.5420  185.7580 C.2   156  PHE156      0.2290
    169  O        221.6860   80.6100  185.5390 O.2   156  PHE156     -0.2864
    170  CB       223.0370   82.9810  185.4370 C.3   156  PHE156      0.0560
    171  CG       223.5010   84.2860  186.0000 C.ar  156  PHE156     -0.0200
    172  CD1      224.8440   84.6910  185.8650 C.ar  156  PHE156     -0.0042
    173  CD2      222.6040   85.1260  186.6940 C.ar  156  PHE156     -0.0042
    174  CE1      225.2930   85.9180  186.4130 C.ar  156  PHE156     -0.0003
    175  CE2      223.0280   86.3350  187.2490 C.ar  156  PHE156     -0.0003
    176  CZ       224.3840   86.7350  187.1060 C.ar  156  PHE156     -0.0000
@<TRIPOS>BOND
     1    32    31    2
     2    38    39    1
     3    31    30    1
     4    39    40    1
     5    39    42    1
     6    27    26    1
     7    40    41    2
     8    34    33    1
     9    34    35    1
    10    43    42    1
    11    43    44    1
    12    30    33    1
    13    30    29    1
    14    44    45    1
    15    25    26    1
    16    25    22    1
    17    55    54    2
    18    29    23   am
    19    26    28    1
    20    35    37   am
    21    35    36    2
    22    50    49    2
    23    54    53    1
    24    24    23    2
    25    23    22    1
    26    49    48    1
    27    52    53    1
    28    87    88    1
    29    47    48    1
    30    22    21    1
    31    48    51    1
    32    45    46    1
    33    53    56    1
    34    90    89    2
    35    21    16   am
    36    88    89    1
    37    88    91    1
    38    89    95   am
    39     8     7    2
    40    56    57    1
    41    95    96    1
    42    16    17    2
    43    16    15    1
    44   108   109    1
    45   108   105    1
    46    96    97    1
    47    96    99    1
    48    91    92    1
    49     1     2    1
    50    57    58    1
    51    92    93    1
    52   104    97   am
    53   104   105    1
    54    15    14    1
    55    15    18    1
    56     7    14   am
    57     7     6    1
    58    97    98    2
    59    94    93    1
    60   105   106    1
    61     9     6    1
    62     9    10    2
    63    99   100    1
    64     5     6    1
    65     5     3   am
    66     2     3    1
    67    18    20    1
    68    18    19    1
    69     3     4    2
    70    58    59    1
    71    10    11    1
    72   125   123   ar
    73   124   123   ar
    74    63    64    2
    75    63    62    1
    76   106   107    2
    77   106   110   am
    78   100   101    1
    79    61    62    1
    80    59    60    1
    81   123   122    1
    82    65    62    1
    83    65    66    1
    84    11    12    1
    85    72    73    2
    86    72    71    1
    87    68    67   ar
    88   110   111    1
    89    74    75    1
    90    74    71    1
    91   101   103   ar
    92   101   102   ar
    93    67    66    1
    94    67    69   ar
    95    76    75   ar
    96    76    78   ar
    97    75    77   ar
    98    85    84    1
    99    70    71    1
   100    78    79   ar
   101    77    79   ar
   102    12    13    1
   103   122   119    1
   104    83    82    2
   105    82    81    1
   106   118   119    1
   107   118   112   am
   108   111   112    1
   109   111   114    1
   110   119   120    1
   111   112   113    2
   112    84    81    1
   113    84    86    1
   114    81    80    1
   115   115   117    1
   116   115   114    1
   117   115   116    1
   118   120   121    2
   119   156   155    1
   120   170   171    1
   121   170   167    1
   122   169   168    2
   123   168   167    1
   124   166   167    1
   125   166   160   am
   126   172   171   ar
   127   172   174   ar
   128   171   173   ar
   129   164   163   ar
   130   159   158    1
   131   159   160    1
   132   159   162    1
   133   158   153   am
   134   174   176   ar
   135   149   148    1
   136   163   165   ar
   137   163   162    1
   138   155   152    1
   139   155   157    1
   140   160   161    2
   141   173   175   ar
   142   176   175   ar
   143   152   153    1
   144   152   151    1
   145   153   154    2
   146   148   147    1
   147   148   150    1
   148   147   144    1
   149   142   140   am
   150   145   144    1
   151   145   146    2
   152   144   143    1
   153   129   128    2
   154   140   139    1
   155   140   141    2
   156   133   132   ar
   157   138   137    2
   158   136   139    1
   159   136   137    1
   160   136   135    1
   161   128   135   am
   162   128   127    1
   163   131   130    1
   164   131   132    1
   165   130   127    1
   166   132   134   ar
   167   127   126    1
