@<TRIPOS>MOLECULE
tmp/3kaaB00.pdb
 105 103 0 0 0
SMALL
GASTEIGER

@<TRIPOS>ATOM
      1  N         22.5500  -17.5320   35.2660 N.3    37  TRP37      -0.1227
      2  CA        23.5150  -17.5840   36.3530 C.3    37  TRP37       0.1737
      3  C         24.0810  -16.1900   36.6310 C.2    37  TRP37       0.2596
      4  O         24.6940  -15.9490   37.6720 O.2    37  TRP37      -0.2718
      5  CB        24.6260  -18.5580   35.9590 C.3    37  TRP37       0.0564
      6  CG        25.6190  -18.8580   37.0230 C.ar   37  TRP37       0.0003
      7  CD1       25.4620  -19.7050   38.0770 C.ar   37  TRP37       0.0946
      8  CD2       26.9480  -18.3390   37.1170 C.ar   37  TRP37       0.0152
      9  NE1       26.6070  -19.7320   38.8360 N.ar   37  TRP37      -0.2442
     10  CE2       27.5360  -18.9010   38.2670 C.ar   37  TRP37       0.0810
     11  CE3       27.6960  -17.4430   36.3460 C.ar   37  TRP37       0.0012
     12  CZ2       28.8350  -18.5980   38.6640 C.ar   37  TRP37       0.0191
     13  CZ3       28.9840  -17.1430   36.7400 C.ar   37  TRP37       0.0001
     14  CH2       29.5420  -17.7180   37.8880 C.ar   37  TRP37       0.0015
     15  N         23.8610  -15.2790   35.6870 N.am   38  SER38      -0.1938
     16  CA        24.2660  -13.8860   35.8260 C.3    38  SER38       0.2055
     17  C         23.4550  -13.0110   34.8740 C.2    38  SER38       0.2642
     18  O         23.4880  -13.2020   33.6580 O.2    38  SER38      -0.2714
     19  CB        25.7620  -13.7240   35.5460 C.3    38  SER38       0.2130
     20  OG        26.1440  -12.3550   35.5970 O.3    38  SER38      -0.2179
     21  N         22.7240  -12.0540   35.4330 N.am   39  GLN39      -0.1976
     22  CA        21.8690  -11.1910   34.6310 C.3    39  GLN39       0.1601
     23  C         20.8950  -12.0220   33.7940 C.2    39  GLN39       0.2287
     24  O         20.5150  -13.1300   34.1830 O.2    39  GLN39      -0.2864
     25  CB        22.7170  -10.2760   33.7480 C.3    39  GLN39       0.0394
     26  CG        23.7390   -9.4640   34.5320 C.3    39  GLN39       0.0908
     27  CD        24.6560   -8.6480   33.6430 C.2    39  GLN39       0.2608
     28  OE1       24.3270   -8.3470   32.4960 O.2    39  GLN39      -0.2717
     29  NE2       25.8180   -8.2830   34.1730 N.am   39  GLN39      -0.0878
     30  N         14.4490  -11.5320   36.8940 N.3    89  ARG89      -0.1245
     31  CA        15.5600  -11.5850   37.8410 C.3    89  ARG89       0.1563
     32  C         15.7760  -10.2820   38.6050 C.2    89  ARG89       0.2260
     33  O         16.2740   -9.3010   38.0530 O.2    89  ARG89      -0.2867
     34  CB        16.8500  -11.9850   37.1290 C.3    89  ARG89       0.0307
     35  CG        18.0520  -12.0950   38.0480 C.3    89  ARG89       0.0489
     36  CD        19.2380  -12.6810   37.3080 C.3    89  ARG89       0.2205
     37  NE        20.3190  -13.0620   38.2100 N.pl3  89  ARG89      -0.0865
     38  CZ        21.2810  -13.9210   37.8920 C.cat  89  ARG89       0.5346
     39  NH1       21.2890  -14.4930   36.6960 N.pl3  89  ARG89       0.1354
     40  NH2       22.2290  -14.2160   38.7700 N.pl3  89  ARG89       0.1354
     41  N         17.8830   -8.3160   41.0390 N.3    91  GLN91      -0.1231
     42  CA        19.2830   -8.3640   41.4550 C.3    91  GLN91       0.1698
     43  C         19.5400   -7.6590   42.7870 C.2    91  GLN91       0.2592
     44  O         19.8980   -6.4790   42.8250 O.2    91  GLN91      -0.2718
     45  CB        20.1830   -7.7850   40.3570 C.3    91  GLN91       0.0381
     46  CG        20.0640   -8.5030   39.0140 C.3    91  GLN91       0.0905
     47  CD        20.8300   -7.8080   37.9010 C.2    91  GLN91       0.2608
     48  OE1       21.1980   -8.4290   36.9030 O.2    91  GLN91      -0.2717
     49  NE2       21.0760   -6.5140   38.0690 N.am   91  GLN91      -0.0878
     50  N         19.3690   -8.4010   43.8770 N.am   92  PHE92      -0.1976
     51  CA        19.5950   -7.8740   45.2180 C.3    92  PHE92       0.1639
     52  C         21.0810   -7.7420   45.5360 C.2    92  PHE92       0.2290
     53  O         21.8790   -8.5780   45.1320 O.2    92  PHE92      -0.2864
     54  CB        18.9470   -8.7800   46.2650 C.3    92  PHE92       0.0560
     55  CG        17.4510   -8.6540   46.3480 C.ar   92  PHE92      -0.0200
     56  CD1       16.8650   -7.5690   46.9790 C.ar   92  PHE92      -0.0042
     57  CD2       16.6320   -9.6380   45.8190 C.ar   92  PHE92      -0.0042
     58  CE1       15.4870   -7.4590   47.0660 C.ar   92  PHE92      -0.0003
     59  CE2       15.2550   -9.5350   45.9030 C.ar   92  PHE92      -0.0003
     60  CZ        14.6810   -8.4440   46.5280 C.ar   92  PHE92      -0.0000
     61  N         24.6670   -7.9440   47.4960 N.3    94  GLY94      -0.1210
     62  CA        25.2280   -9.1460   48.0820 C.3    94  GLY94       0.1956
     63  C         25.5080  -10.1480   46.9820 C.2    94  GLY94       0.2612
     64  O         25.5080   -9.7950   45.8090 O.2    94  GLY94      -0.2717
     65  N         25.7420  -11.4000   47.3470 N.am   95  LEU95      -0.1965
     66  CA        25.9600  -12.4280   46.3420 C.3    95  LEU95       0.1728
     67  C         25.1270  -13.6650   46.6700 C.2    95  LEU95       0.2616
     68  O         24.9140  -13.9830   47.8400 O.2    95  LEU95      -0.2715
     69  CB        27.4470  -12.7760   46.2410 C.3    95  LEU95       0.0311
     70  CG        27.9510  -13.3250   44.9020 C.3    95  LEU95       0.0022
     71  CD1       27.8330  -12.2580   43.8280 C.3    95  LEU95       0.0001
     72  CD2       29.3880  -13.8190   45.0110 C.3    95  LEU95       0.0001
     73  N         24.6390  -14.3440   45.6340 N.am   96  MET96      -0.1963
     74  CA        23.8180  -15.5440   45.8030 C.3    96  MET96       0.1736
     75  C         22.5190  -15.2330   46.5260 C.2    96  MET96       0.2616
     76  O         22.1940  -15.8640   47.5290 O.2    96  MET96      -0.2715
     77  CB        24.5800  -16.6250   46.5740 C.3    96  MET96       0.0427
     78  CG        25.9330  -16.9780   45.9850 C.3    96  MET96       0.0599
     79  SD        25.8450  -18.2580   44.7230 S.3    96  MET96      -0.1393
     80  CE        27.5480  -18.2710   44.1770 C.3    96  MET96       0.0692
     81  N         21.7730  -14.2620   46.0140 N.am   97  ASN97      -0.1958
     82  CA        20.5480  -13.8460   46.6820 C.3    97  ASN97       0.1819
     83  C         19.4650  -13.3360   45.7430 C.2    97  ASN97       0.2621
     84  O         18.3530  -13.0520   46.1800 O.2    97  ASN97      -0.2715
     85  CB        20.8590  -12.7820   47.7320 C.3    97  ASN97       0.1195
     86  CG        21.6050  -11.6000   47.1540 C.2    97  ASN97       0.2630
     87  OD1       21.6960  -11.4390   45.9360 O.2    97  ASN97      -0.2716
     88  ND2       22.1470  -10.7650   48.0260 N.am   97  ASN97      -0.0877
     89  N         19.7920  -13.2160   44.4590 N.am   98  ASP98      -0.1971
     90  CA        18.8520  -12.6800   43.4760 C.3    98  ASP98       0.1709
     91  C         17.5860  -13.5270   43.4070 C.2    98  ASP98       0.2293
     92  O         17.6580  -14.7530   43.3440 O.2    98  ASP98      -0.2864
     93  CB        19.4950  -12.6160   42.0890 C.3    98  ASP98       0.1436
     94  CG        20.8420  -11.9240   42.1020 C.2    98  ASP98       0.3671
     95  OD1       21.1280  -11.1650   41.1530 O.co2  98  ASP98      -0.2456
     96  OD2       21.6160  -12.1350   43.0610 O.co2  98  ASP98      -0.2456
     97  N         15.3100  -15.2940   41.5590 N.3   100  LYS100     -0.1245
     98  CA        15.1350  -15.8400   40.2200 C.3   100  LYS100      0.1561
     99  C         13.7390  -16.4280   40.0390 C.2   100  LYS100      0.2260
    100  O         13.4400  -17.5110   40.5450 O.2   100  LYS100     -0.2867
    101  CB        16.2020  -16.8950   39.9260 C.3   100  LYS100      0.0271
    102  CG        17.6180  -16.3460   39.9030 C.3   100  LYS100      0.0035
    103  CD        18.6260  -17.4270   39.5550 C.3   100  LYS100      0.0206
    104  CE        20.0320  -16.8570   39.4580 C.3   100  LYS100      0.1093
    105  NZ        21.0400  -17.9080   39.1480 N.3   100  LYS100     -0.1314
@<TRIPOS>BOND
     1    28    27    2
     2    27    29   am
     3    27    26    1
     4    18    17    2
     5    25    26    1
     6    25    22    1
     7    23    24    2
     8    23    22    1
     9    22    21    1
    10    17    21   am
    11    17    16    1
    12     1     2    1
    13    19    20    1
    14    19    16    1
    15    15    16    1
    16    15     3   am
    17     5     2    1
    18     5     6    1
    19    11    13   ar
    20    11     8   ar
    21     2     3    1
    22     3     4    2
    23    39    38    1
    24    13    14   ar
    25    30    31    1
    26    48    47    2
    27     6     8   ar
    28     6     7   ar
    29     8    10   ar
    30    34    31    1
    31    34    35    1
    32    36    35    1
    33    36    37    1
    34    31    32    1
    35    14    12   ar
    36    38    37    2
    37    38    40    1
    38    47    49   am
    39    47    46    1
    40    33    32    2
    41     7     9   ar
    42    10    12   ar
    43    10     9   ar
    44    46    45    1
    45   105   104    1
    46   104   103    1
    47   103   102    1
    48   102   101    1
    49   101    98    1
    50    99    98    1
    51    99   100    2
    52    98    97    1
    53    45    42    1
    54    41    42    1
    55    95    94   ar
    56    42    43    1
    57    93    94    1
    58    93    90    1
    59    94    96   ar
    60    43    44    2
    61    43    50   am
    62    92    91    2
    63    91    90    1
    64    90    89    1
    65    71    70    1
    66    50    51    1
    67    80    79    1
    68    89    83   am
    69    79    78    1
    70    70    72    1
    71    70    69    1
    72    53    52    2
    73    51    52    1
    74    51    54    1
    75    73    74    1
    76    73    67   am
    77    83    84    2
    78    83    82    1
    79    74    75    1
    80    74    77    1
    81    64    63    2
    82    57    59   ar
    83    57    55   ar
    84    59    60   ar
    85    87    86    2
    86    78    77    1
    87    81    75   am
    88    81    82    1
    89    69    66    1
    90    54    55    1
    91    66    67    1
    92    66    65    1
    93    55    56   ar
    94    75    76    2
    95    60    58   ar
    96    67    68    2
    97    82    85    1
    98    56    58   ar
    99    63    65   am
   100    63    62    1
   101    86    85    1
   102    86    88   am
   103    61    62    1
