@<TRIPOS>MOLECULE
tmp/3kabA01.pdb
 121 114 0 0 0
SMALL
GASTEIGER

@<TRIPOS>ATOM
      1  N         34.9680   17.0370   21.3600 N.3    41  HIS41      -0.1241
      2  CA        34.3710   16.9970   22.6830 C.3    41  HIS41       0.1621
      3  C         32.8750   17.0660   22.4770 C.2    41  HIS41       0.2264
      4  O         32.4100   17.4390   21.3940 O.2    41  HIS41      -0.2867
      5  CB        34.9400   18.1220   23.6360 C.3    41  HIS41       0.0745
      6  CG        34.2990   19.4590   23.4510 C.ar   41  HIS41       0.0817
      7  ND1       33.8690   20.2270   24.5000 N.ar   41  HIS41      -0.2268
      8  CD2       33.9890   20.1570   22.3260 C.ar   41  HIS41       0.1154
      9  CE1       33.3070   21.3380   24.0320 C.ar   41  HIS41       0.1986
     10  NE2       33.4050   21.3370   22.7150 N.ar   41  HIS41      -0.2212
     11  N         29.8040   18.6460   24.7780 N.3    43  LEU43      -0.1245
     12  CA        29.5850   19.4700   25.9680 C.3    43  LEU43       0.1561
     13  C         28.1040   19.2500   26.3310 C.2    43  LEU43       0.2260
     14  O         27.3010   19.3690   25.4520 O.2    43  LEU43      -0.2867
     15  CB        29.8310   20.9460   25.6010 C.3    43  LEU43       0.0270
     16  CG        29.5430   22.0280   26.6670 C.3    43  LEU43       0.0019
     17  CD1       30.4690   21.9960   27.8480 C.3    43  LEU43       0.0001
     18  CD2       29.8480   23.3480   26.0020 C.3    43  LEU43       0.0001
     19  N         25.6590   21.2530   28.7430 N.3    45  LYS45      -0.1245
     20  CA        25.6020   22.4390   29.6330 C.3    45  LYS45       0.1561
     21  C         24.5410   22.2160   30.6710 C.2    45  LYS45       0.2260
     22  O         23.7080   21.2750   30.5470 O.2    45  LYS45      -0.2867
     23  CB        25.2850   23.7000   28.8110 C.3    45  LYS45       0.0271
     24  CG        26.4650   24.1290   27.9210 C.3    45  LYS45       0.0035
     25  CD        26.6380   25.6540   27.8510 C.3    45  LYS45       0.0206
     26  CE        26.8400   26.1530   26.4350 C.3    45  LYS45       0.1093
     27  NZ        27.5530   27.4590   26.4690 N.3    45  LYS45      -0.1314
     28  N         28.5610   28.8900   32.6180 N.3    50  ARG50      -0.1231
     29  CA        28.9570   30.2480   32.2140 C.3    50  ARG50       0.1694
     30  C         27.9390   30.8850   31.2970 C.2    50  ARG50       0.2591
     31  O         27.4650   31.9850   31.5940 O.2    50  ARG50      -0.2718
     32  CB        30.3100   30.2580   31.5310 C.3    50  ARG50       0.0321
     33  CG        31.0520   31.6010   31.5730 C.3    50  ARG50       0.0489
     34  CD        32.5900   31.3730   31.4160 C.3    50  ARG50       0.2205
     35  NE        32.9260   30.4530   30.3070 N.pl3  50  ARG50      -0.0865
     36  CZ        33.7800   30.7130   29.3070 C.cat  50  ARG50       0.5346
     37  NH1       34.4300   31.8740   29.2520 N.pl3  50  ARG50       0.1354
     38  NH2       33.9960   29.8070   28.3560 N.pl3  50  ARG50       0.1354
     39  N         27.5650   30.2090   30.2120 N.am   51  ARG51      -0.1980
     40  CA        26.4820   30.7150   29.3730 C.3    51  ARG51       0.1597
     41  C         25.3330   29.7170   29.1940 C.2    51  ARG51       0.2287
     42  O         25.3240   28.9240   28.2510 O.2    51  ARG51      -0.2864
     43  CB        27.0410   31.2610   28.0520 C.3    51  ARG51       0.0334
     44  CG        27.4880   32.7300   28.2410 C.3    51  ARG51       0.0492
     45  CD        28.9720   32.9870   27.9240 C.3    51  ARG51       0.2205
     46  NE        29.3200   32.2850   26.6900 N.pl3  51  ARG51      -0.0865
     47  CZ        28.9160   32.6360   25.4640 C.cat  51  ARG51       0.5346
     48  NH1       28.1560   33.7190   25.3020 N.pl3  51  ARG51       0.1354
     49  NH2       29.2750   31.9180   24.3930 N.pl3  51  ARG51       0.1354
     50  N         26.3470   20.8410   23.2640 N.3    94  ASP94      -0.1225
     51  CA        25.8860   22.2150   23.4350 C.3    94  ASP94       0.1805
     52  C         26.9850   23.1840   23.0280 C.2    94  ASP94       0.2598
     53  O         27.0040   24.2940   23.4770 O.2    94  ASP94      -0.2718
     54  CB        25.4730   22.5130   24.8730 C.3    94  ASP94       0.1424
     55  CG        24.1340   21.9130   25.2560 C.2    94  ASP94       0.3668
     56  OD1       23.1290   22.1100   24.5610 O.co2  94  ASP94      -0.2456
     57  OD2       24.0300   21.2530   26.3090 O.co2  94  ASP94      -0.2456
     58  N         27.9310   22.7660   22.2110 N.am   95  CYS95      -0.1956
     59  CA        28.9710   23.6510   21.7360 C.3    95  CYS95       0.1843
     60  C         28.6620   23.7380   20.2500 C.2    95  CYS95       0.2626
     61  O         28.0330   22.8210   19.7050 O.2    95  CYS95      -0.2714
     62  CB        30.3010   22.9750   21.9620 C.3    95  CYS95       0.0997
     63  SG        31.7090   23.8910   21.3650 S.3    95  CYS95      -0.0797
     64  N         29.0470   24.8010   19.5540 N.am   96  SER96      -0.1950
     65  CA        28.7150   24.8150   18.1400 C.3    96  SER96       0.1924
     66  C         29.7570   24.0200   17.3460 C.2    96  SER96       0.2314
     67  O         29.5660   23.8200   16.1420 O.2    96  SER96      -0.2863
     68  CB        28.6530   26.2480   17.6160 C.3    96  SER96       0.2116
     69  OG        29.8650   26.8980   17.9980 O.3    96  SER96      -0.2180
     70  N         37.6820   20.4000   17.6270 N.3   104  LEU104     -0.1245
     71  CA        38.1630   21.7280   17.9940 C.3   104  LEU104      0.1561
     72  C         39.5420   22.0840   17.3920 C.2   104  LEU104      0.2260
     73  O         40.0860   23.1320   17.6920 O.2   104  LEU104     -0.2867
     74  CB        38.2300   21.8490   19.5210 C.3   104  LEU104      0.0270
     75  CG        36.9560   21.7500   20.3330 C.3   104  LEU104      0.0019
     76  CD1       37.4420   21.6630   21.7710 C.3   104  LEU104      0.0001
     77  CD2       36.1110   22.9530   20.1240 C.3   104  LEU104      0.0001
     78  N         43.0130   26.7240   26.3070 N.3   112  MET112     -0.1230
     79  CA        41.6900   26.2020   26.7270 C.3   112  MET112      0.1702
     80  C         41.4740   26.3690   28.2480 C.2   112  MET112      0.2592
     81  O         42.4270   26.5000   28.9920 O.2   112  MET112     -0.2718
     82  CB        41.5130   24.7070   26.2610 C.3   112  MET112      0.0401
     83  CG        41.5890   24.4330   24.7190 C.3   112  MET112      0.0596
     84  SD        40.2870   25.2670   23.8180 S.3   112  MET112     -0.1393
     85  CE        40.5150   24.7480   22.1150 C.3   112  MET112      0.0692
     86  N         40.2380   26.3590   28.7170 N.am  113  GLN113     -0.1979
     87  CA        40.0120   26.2100   30.1520 C.3   113  GLN113      0.1601
     88  C         40.8290   25.0460   30.6710 C.2   113  GLN113      0.2287
     89  O         40.9200   23.9840   30.0610 O.2   113  GLN113     -0.2864
     90  CB        38.5540   26.0310   30.4730 C.3   113  GLN113      0.0394
     91  CG        37.6690   27.1150   29.8830 C.3   113  GLN113      0.0908
     92  CD        36.2260   26.8730   30.2080 C.2   113  GLN113      0.2608
     93  OE1       35.7840   27.1380   31.3160 O.2   113  GLN113     -0.2717
     94  NE2       35.4910   26.3160   29.2650 N.am  113  GLN113     -0.0878
     95  N         39.8760   21.1170   31.1090 N.3   116  PHE116     -0.1241
     96  CA        39.8650   20.6720   29.7160 C.3   116  PHE116      0.1605
     97  C         41.2690   20.5640   29.1220 C.2   116  PHE116      0.2264
     98  O         41.5950   19.5800   28.4630 O.2   116  PHE116     -0.2867
     99  CB        39.0430   21.6220   28.8590 C.3   116  PHE116      0.0534
    100  CG        38.7530   21.0930   27.4670 C.ar  116  PHE116     -0.0203
    101  CD1       37.4780   20.5900   27.1480 C.ar  116  PHE116     -0.0042
    102  CD2       39.7450   21.0910   26.4770 C.ar  116  PHE116     -0.0042
    103  CE1       37.2150   20.0840   25.8630 C.ar  116  PHE116     -0.0003
    104  CE2       39.4830   20.5850   25.2030 C.ar  116  PHE116     -0.0003
    105  CZ        38.2170   20.1000   24.8950 C.ar  116  PHE116     -0.0000
    106  N         31.9930   25.9550   31.4310 N.3   136  SER136     -0.1217
    107  CA        30.9900   25.8000   30.3590 C.3   136  SER136      0.1889
    108  C         30.0270   24.6700   30.6370 C.2   136  SER136      0.2288
    109  O         28.9410   24.6690   30.1090 O.2   136  SER136     -0.2866
    110  CB        31.6430   25.5070   29.0370 C.3   136  SER136      0.2089
    111  OG        32.6430   26.4410   28.8430 O.3   136  SER136     -0.2183
    112  N         32.1080   17.9940   29.8880 N.3   139  HIS139     -0.1241
    113  CA        32.6590   17.5400   28.5820 C.3   139  HIS139      0.1621
    114  C         32.9320   15.9960   28.5570 C.2   139  HIS139      0.2264
    115  O         33.2610   15.4080   29.6130 O.2   139  HIS139     -0.2867
    116  CB        34.0310   18.2330   28.2850 C.3   139  HIS139      0.0745
    117  CG        34.0180   19.7200   28.3880 C.ar  139  HIS139      0.0817
    118  ND1       33.9730   20.5400   27.2790 N.ar  139  HIS139     -0.2268
    119  CD2       34.0090   20.5420   29.4690 C.ar  139  HIS139      0.1154
    120  CE1       33.9530   21.8070   27.6700 C.ar  139  HIS139      0.1986
    121  NE2       33.9750   21.8360   28.9940 N.ar  139  HIS139     -0.2212
@<TRIPOS>BOND
     1    67    66    2
     2    66    65    1
     3    72    73    2
     4    72    71    1
     5    68    69    1
     6    68    65    1
     7    70    71    1
     8    71    74    1
     9    65    64    1
    10    74    75    1
    11    64    60   am
    12    61    60    2
    13    77    75    1
    14    60    59    1
    15    75    76    1
    16     1     2    1
    17    63    62    1
    18     4     3    2
    19    59    62    1
    20    59    58    1
    21    85    84    1
    22    58    52   am
    23     8    10   ar
    24     8     6   ar
    25     3     2    1
    26     2     5    1
    27    10     9   ar
    28    52    51    1
    29    52    53    2
    30    50    51    1
    31    51    54    1
    32     6     5    1
    33     6     7   ar
    34    84    83    1
    35     9     7   ar
    36    49    47    1
    37    56    55   ar
    38    83    82    1
    39    11    12    1
    40    54    55    1
    41   105   104   ar
    42   105   103   ar
    43   104   102   ar
    44    55    57   ar
    45    48    47    1
    46    14    13    2
    47    47    46    2
    48    15    12    1
    49    15    16    1
    50   103   101   ar
    51    12    13    1
    52    18    16    1
    53    82    79    1
    54    78    79    1
    55    26    27    1
    56    26    25    1
    57   102   100   ar
    58    16    17    1
    59    46    45    1
    60    79    80    1
    61   101   100   ar
    62   118   120   ar
    63   118   117   ar
    64   100    99    1
    65   120   121   ar
    66    25    24    1
    67    24    23    1
    68    45    44    1
    69    43    44    1
    70    43    40    1
    71    80    86   am
    72    80    81    2
    73    42    41    2
    74   116   117    1
    75   116   113    1
    76    38    36    1
    77   117   119   ar
    78    98    97    2
    79   114   113    1
    80   114   115    2
    81   113   112    1
    82    86    87    1
    83    19    20    1
    84    23    20    1
    85   111   110    1
    86    99    96    1
    87   121   119   ar
    88   110   107    1
    89    97    96    1
    90    41    40    1
    91    37    36    1
    92    94    92   am
    93    36    35    2
    94    40    39    1
    95    20    21    1
    96    96    95    1
    97    91    92    1
    98    91    90    1
    99    89    88    2
   100   109   108    2
   101    87    90    1
   102    87    88    1
   103    92    93    2
   104    39    30   am
   105    35    34    1
   106   107   108    1
   107   107   106    1
   108    22    21    2
   109    30    31    2
   110    30    29    1
   111    34    33    1
   112    32    33    1
   113    32    29    1
   114    29    28    1
