@<TRIPOS>MOLECULE
tmp/3kacA00.pdb
 128 120 0 0 0
SMALL
GASTEIGER

@<TRIPOS>ATOM
      1  N         45.9780    8.7300    5.1580 N.3     9  HIS9       -0.1241
      2  CA        44.5230    8.7040    4.8660 C.3     9  HIS9        0.1621
      3  C         43.7800    7.6700    5.7320 C.2     9  HIS9        0.2264
      4  O         44.3650    6.7910    6.4020 O.2     9  HIS9       -0.2867
      5  CB        44.1720    8.5500    3.3520 C.3     9  HIS9        0.0745
      6  CG        44.3310    7.1410    2.8340 C.ar    9  HIS9        0.0817
      7  ND1       43.4630    6.5730    1.9250 N.ar    9  HIS9       -0.2268
      8  CD2       45.2450    6.1760    3.1410 C.ar    9  HIS9        0.1154
      9  CE1       43.8500    5.3290    1.6720 C.ar    9  HIS9        0.1986
     10  NE2       44.8980    5.0500    2.4390 N.ar    9  HIS9       -0.2212
     11  N         40.6300    5.1390    4.9260 N.3    11  LEU11      -0.1245
     12  CA        39.7060    4.6700    3.8630 C.3    11  LEU11       0.1561
     13  C         38.5310    3.9050    4.4670 C.2    11  LEU11       0.2260
     14  O         38.6950    3.0070    5.2870 O.2    11  LEU11      -0.2867
     15  CB        40.4610    3.8500    2.7990 C.3    11  LEU11       0.0270
     16  CG        39.6150    2.9930    1.8250 C.3    11  LEU11       0.0019
     17  CD1       38.9300    3.8570    0.7520 C.3    11  LEU11       0.0001
     18  CD2       40.3850    1.9120    1.1470 C.3    11  LEU11       0.0001
     19  N         35.7730    1.3930    3.0770 N.3    13  LYS13      -0.1245
     20  CA        35.2450    0.7200    1.8910 C.3    13  LYS13       0.1561
     21  C         33.7540    0.4310    2.0490 C.2    13  LYS13       0.2260
     22  O         33.1960    0.5930    3.1740 O.2    13  LYS13      -0.2867
     23  CB        35.9770   -0.6090    1.6460 C.3    13  LYS13       0.0271
     24  CG        37.3990   -0.4620    1.1400 C.3    13  LYS13       0.0035
     25  CD        37.9760   -1.8200    0.7990 C.3    13  LYS13       0.0206
     26  CE        39.3770   -1.6820    0.2680 C.3    13  LYS13       0.1093
     27  NZ        39.8830   -2.9660   -0.4250 N.3    13  LYS13      -0.1314
     28  N         35.6750   -1.2140   -5.4460 N.3    18  ARG18      -0.1231
     29  CA        36.4540   -1.9730   -6.4470 C.3    18  ARG18       0.1694
     30  C         36.8980   -3.3350   -5.8740 C.2    18  ARG18       0.2591
     31  O         36.8100   -4.3700   -6.5370 O.2    18  ARG18      -0.2718
     32  CB        37.6840   -1.1350   -6.8350 C.3    18  ARG18       0.0321
     33  CG        38.6670   -1.7790   -7.8020 C.3    18  ARG18       0.0489
     34  CD        39.9790   -1.0430   -7.5750 C.3    18  ARG18       0.2205
     35  NE        40.8850   -1.1930   -8.6860 N.pl3  18  ARG18      -0.0865
     36  CZ        40.9780   -0.3300   -9.6830 C.cat  18  ARG18       0.5346
     37  NH1       40.1840    0.7430   -9.7080 N.pl3  18  ARG18       0.1354
     38  NH2       41.8610   -0.5550  -10.6540 N.pl3  18  ARG18       0.1354
     39  N         37.3820   -3.3250   -4.6430 N.am   19  ARG19      -0.1980
     40  CA        37.8130   -4.5460   -3.9990 C.3    19  ARG19       0.1597
     41  C         37.1940   -4.6150   -2.5740 C.2    19  ARG19       0.2287
     42  O         37.7820   -4.0720   -1.5920 O.2    19  ARG19      -0.2864
     43  CB        39.3410   -4.5550   -3.9300 C.3    19  ARG19       0.0334
     44  CG        39.9880   -5.9390   -3.9350 C.3    19  ARG19       0.0492
     45  CD        41.5610   -5.8540   -3.7280 C.3    19  ARG19       0.2205
     46  NE        41.9370   -5.2090   -2.4610 N.pl3  19  ARG19      -0.0865
     47  CZ        42.0910   -5.7970   -1.2720 C.cat  19  ARG19       0.5346
     48  NH1       41.9390   -7.1100   -1.0960 N.pl3  19  ARG19       0.1354
     49  NH2       42.4320   -5.0630   -0.2260 N.pl3  19  ARG19       0.1354
     50  N         40.3500    0.7890    5.9730 N.3    62  ASP62      -0.1225
     51  CA        40.3050   -0.3920    5.1330 C.3    62  ASP62       0.1805
     52  C         41.4600   -0.5110    4.1550 C.2    62  ASP62       0.2598
     53  O         41.5030   -1.4160    3.3130 O.2    62  ASP62      -0.2718
     54  CB        38.9400   -0.4470    4.3750 C.3    62  ASP62       0.1424
     55  CG        37.7740   -0.9000    5.2850 C.2    62  ASP62       0.3668
     56  OD1       37.9910   -1.8720    6.0320 O.co2  62  ASP62      -0.2456
     57  OD2       36.6310   -0.3490    5.2040 O.co2  62  ASP62      -0.2456
     58  N         42.4050    0.4030    4.2480 N.am   63  CYS63      -0.1956
     59  CA        43.6220    0.3350    3.4470 C.3    63  CYS63       0.1843
     60  C         44.6770   -0.2270    4.3720 C.2    63  CYS63       0.2626
     61  O         44.6870    0.1210    5.5480 O.2    63  CYS63      -0.2714
     62  CB        44.0510    1.7670    3.0570 C.3    63  CYS63       0.0997
     63  SG        45.6280    1.8610    2.0810 S.3    63  CYS63      -0.0797
     64  N         45.5600   -1.0950    3.8820 N.am   64  SER64      -0.1950
     65  CA        46.5580   -1.7170    4.7780 C.3    64  SER64       0.1924
     66  C         47.6000   -0.7130    5.1990 C.2    64  SER64       0.2314
     67  O         48.4890   -1.0710    5.9830 O.2    64  SER64      -0.2863
     68  CB        47.2780   -2.8840    4.1040 C.3    64  SER64       0.2116
     69  OG        47.9290   -2.3350    2.9560 O.3    64  SER64      -0.2180
     70  N         50.6760    7.1230    3.7530 N.3    72  LEU72      -0.1245
     71  CA        50.9810    6.5810    2.4250 C.3    72  LEU72       0.1561
     72  C         52.3950    6.8950    1.9450 C.2    72  LEU72       0.2260
     73  O         52.7820    6.4250    0.8770 O.2    72  LEU72      -0.2867
     74  CB        49.9850    7.0900    1.3810 C.3    72  LEU72       0.0270
     75  CG        48.5190    6.6550    1.6440 C.3    72  LEU72       0.0019
     76  CD1       47.6170    7.5420    0.7220 C.3    72  LEU72       0.0001
     77  CD2       48.4530    5.1760    1.2380 C.3    72  LEU72       0.0001
     78  N         48.4180    8.0060   -7.9820 N.3    80  MET80      -0.1230
     79  CA        47.1400    7.7190   -7.2920 C.3    80  MET80       0.1702
     80  C         45.9110    7.9790   -8.2210 C.2    80  MET80       0.2592
     81  O         45.9630    8.8190   -9.1240 O.2    80  MET80      -0.2718
     82  CB        47.0550    8.6260   -6.0180 C.3    80  MET80       0.0401
     83  CG        48.1350    8.4230   -4.9800 C.3    80  MET80       0.0596
     84  SD        48.3110    6.7100   -4.3350 S.3    80  MET80      -0.1393
     85  CE        49.6180    7.0140   -3.1060 C.3    80  MET80       0.0692
     86  N         44.7880    7.3220   -7.9780 N.am   81  GLN81      -0.1979
     87  CA        43.5040    7.6710   -8.6630 C.3    81  GLN81       0.1601
     88  C         43.3310    9.1690   -8.5990 C.2    81  GLN81       0.2287
     89  O         43.6230    9.7630   -7.5330 O.2    81  GLN81      -0.2864
     90  CB        42.3230    7.0000   -7.9440 C.3    81  GLN81       0.0394
     91  CG        42.1650    5.5190   -8.3630 C.3    81  GLN81       0.0908
     92  CD        41.0810    4.8130   -7.6210 C.2    81  GLN81       0.2608
     93  OE1       39.8840    5.1580   -7.7640 O.2    81  GLN81      -0.2717
     94  NE2       41.4630    3.7940   -6.8360 N.am   81  GLN81      -0.0878
     95  N         41.7440   11.3050   -5.6740 N.3    84  PHE84      -0.1241
     96  CA        42.6090   11.2660   -4.4880 C.3    84  PHE84       0.1605
     97  C         43.8440   12.1880   -4.7000 C.2    84  PHE84       0.2264
     98  O         44.2250   13.0030   -3.8530 O.2    84  PHE84      -0.2867
     99  CB        43.0310    9.8280   -4.2110 C.3    84  PHE84       0.0534
    100  CG        43.7670    9.6650   -2.9260 C.ar   84  PHE84      -0.0203
    101  CD1       45.1490    9.9080   -2.8350 C.ar   84  PHE84      -0.0042
    102  CD2       43.0790    9.2520   -1.7800 C.ar   84  PHE84      -0.0042
    103  CE1       45.8060    9.7550   -1.6190 C.ar   84  PHE84      -0.0003
    104  CE2       43.7410    9.0960   -0.5350 C.ar   84  PHE84      -0.0003
    105  CZ        45.0760    9.3900   -0.4360 C.ar   84  PHE84      -0.0000
    106  N         36.8110    7.5570   -4.4750 N.3   102  THR102     -0.1274
    107  CA        37.6100    6.8550   -5.5090 C.3   102  THR102      0.1548
    108  C         36.9320    5.5120   -5.7570 C.3   102  THR102      0.2036
    109  O         35.9790    5.1420   -4.9780 O.3   102  THR102     -0.2187
    110  CB        39.0950    6.5810   -5.1060 C.3   102  THR102      0.1721
    111  OG1       39.1410    5.6290   -4.0530 O.3   102  THR102     -0.2215
    112  CG2       39.8170    7.8440   -4.6340 C.3   102  THR102      0.0371
    113  N         38.0780    2.8290   -4.8430 N.3   104  SER104     -0.1217
    114  CA        38.3490    1.9420   -3.6670 C.3   104  SER104      0.1889
    115  C         37.3640    2.1390   -2.5520 C.2   104  SER104      0.2288
    116  O         37.2480    1.2470   -1.7070 O.2   104  SER104     -0.2866
    117  CB        39.7920    2.1030   -3.1000 C.3   104  SER104      0.2089
    118  OG        40.7780    1.8190   -4.1310 O.3   104  SER104     -0.2183
    119  N         37.4070    8.3520    1.3820 N.3   107  HIS107     -0.1241
    120  CA        38.6010    8.6580    2.1500 C.3   107  HIS107      0.1621
    121  C         38.4670   10.0110    2.8110 C.2   107  HIS107      0.2264
    122  O         37.7720   10.8650    2.3120 O.2   107  HIS107     -0.2867
    123  CB        39.8410    8.8380    1.2420 C.3   107  HIS107      0.0745
    124  CG        40.0540    7.7530    0.2230 C.ar  107  HIS107      0.0817
    125  ND1       41.1730    6.9500    0.2150 N.ar  107  HIS107     -0.2268
    126  CD2       39.3370    7.4130   -0.8760 C.ar  107  HIS107      0.1154
    127  CE1       41.1140    6.1370   -0.8270 C.ar  107  HIS107      0.1986
    128  NE2       40.0040    6.3980   -1.4960 N.ar  107  HIS107     -0.2212
@<TRIPOS>BOND
     1    38    36    1
     2    37    36    1
     3    36    35    2
     4    81    80    2
     5    35    34    1
     6    87    88    1
     7    87    86    1
     8    87    90    1
     9    88    89    2
    10    91    90    1
    11    91    92    1
    12    80    86   am
    13    80    79    1
    14    78    79    1
    15    33    34    1
    16    33    32    1
    17    93    92    2
    18    92    94   am
    19    79    82    1
    20    32    29    1
    21    31    30    2
    22    29    30    1
    23    29    28    1
    24    82    83    1
    25    30    39   am
    26   108   107    1
    27   108   109    1
    28    95    96    1
    29   107   110    1
    30   107   106    1
    31   110   112    1
    32   110   111    1
    33    83    84    1
    34   113   114    1
    35    97    96    1
    36    97    98    2
    37    39    40    1
    38    96    99    1
    39    84    85    1
    40    99   100    1
    41   118   117    1
    42    40    43    1
    43    40    41    1
    44    44    43    1
    45    44    45    1
    46    45    46    1
    47   114   117    1
    48   114   115    1
    49   100   101   ar
    50   100   102   ar
    51   101   103   ar
    52    41    42    2
    53   115   116    2
    54    46    47    2
    55   102   104   ar
    56   103   105   ar
    57   128   126   ar
    58   128   127   ar
    59    47    48    1
    60    47    49    1
    61   126   124   ar
    62   127   125   ar
    63   104   105   ar
    64    27    26    1
    65   125   124   ar
    66   124   123    1
    67    26    25    1
    68    76    75    1
    69    17    16    1
    70    25    24    1
    71    73    72    2
    72    24    23    1
    73    18    16    1
    74    77    75    1
    75   123   120    1
    76    74    75    1
    77    74    71    1
    78   119   120    1
    79    23    20    1
    80     9     7   ar
    81     9    10   ar
    82    16    15    1
    83    20    21    1
    84    20    19    1
    85     7     6   ar
    86    72    71    1
    87    21    22    2
    88    63    62    1
    89   120   121    1
    90   122   121    2
    91    71    70    1
    92    10     8   ar
    93    15    12    1
    94     6     8   ar
    95     6     5    1
    96    69    68    1
    97    62    59    1
    98    53    52    2
    99     5     2    1
   100    59    58    1
   101    59    60    1
   102    12    13    1
   103    12    11    1
   104    64    60   am
   105    64    65    1
   106    68    65    1
   107    52    58   am
   108    52    51    1
   109    60    61    2
   110    54    51    1
   111    54    55    1
   112    13    14    2
   113    65    66    1
   114     2     1    1
   115     2     3    1
   116    51    50    1
   117    66    67    2
   118    57    55   ar
   119    55    56   ar
   120     3     4    2
