@<TRIPOS>MOLECULE
tmp/3kadA00.pdb
 143 134 0 0 0
SMALL
GASTEIGER

@<TRIPOS>ATOM
      1  N         36.8070  -19.9190   -5.3040 N.3    41  HIS41      -0.1241
      2  CA        36.5810  -20.6240   -4.0450 C.3    41  HIS41       0.1621
      3  C         35.8080  -21.8970   -4.2880 C.2    41  HIS41       0.2264
      4  O         35.2150  -22.1380   -5.3850 O.2    41  HIS41      -0.2867
      5  CB        35.9000  -19.7130   -2.9960 C.3    41  HIS41       0.0745
      6  CG        34.4520  -19.5520   -3.2270 C.ar   41  HIS41       0.0817
      7  ND1       33.5120  -19.5510   -2.2160 N.ar   41  HIS41      -0.2268
      8  CD2       33.7700  -19.3750   -4.3870 C.ar   41  HIS41       0.1154
      9  CE1       32.3230  -19.3510   -2.7500 C.ar   41  HIS41       0.1986
     10  NE2       32.4510  -19.2990   -4.0730 N.ar   41  HIS41      -0.2212
     11  N         32.9160  -23.7140   -2.0140 N.3    43  LEU43      -0.1245
     12  CA        31.9810  -23.6040   -0.8490 C.3    43  LEU43       0.1561
     13  C         31.3930  -24.9660   -0.4760 C.2    43  LEU43       0.2260
     14  O         30.8240  -25.6710   -1.3490 O.2    43  LEU43      -0.2867
     15  CB        30.8430  -22.6260   -1.1680 C.3    43  LEU43       0.0270
     16  CG        29.7310  -22.4790   -0.1070 C.3    43  LEU43       0.0019
     17  CD1       30.3610  -21.9720    1.2540 C.3    43  LEU43       0.0001
     18  CD2       28.5890  -21.4800   -0.6160 C.3    43  LEU43       0.0001
     19  N         28.4240  -26.0990    1.9960 N.3    45  LYS45      -0.1245
     20  CA        27.3340  -25.6250    2.8280 C.3    45  LYS45       0.1561
     21  C         26.9720  -26.6870    3.8700 C.2    45  LYS45       0.2260
     22  O         27.3280  -27.8420    3.7150 O.2    45  LYS45      -0.2867
     23  CB        26.1560  -25.2740    1.9540 C.3    45  LYS45       0.0271
     24  CG        26.3240  -23.9140    1.1930 C.3    45  LYS45       0.0035
     25  CD        24.9250  -23.6030    0.5830 C.3    45  LYS45       0.0206
     26  CE        25.0190  -22.3600   -0.2800 C.3    45  LYS45       0.1093
     27  NZ        23.6950  -21.8410   -0.5820 N.3    45  LYS45      -0.1314
     28  N         23.2730  -19.9700    5.8840 N.3    50  ARG50      -0.1231
     29  CA        22.2390  -18.9440    5.6120 C.3    50  ARG50       0.1694
     30  C         21.1730  -19.5290    4.6950 C.2    50  ARG50       0.2591
     31  O         19.9710  -19.4590    5.0020 O.2    50  ARG50      -0.2718
     32  CB        22.8950  -17.8060    4.9020 C.3    50  ARG50       0.0321
     33  CG        22.0440  -16.5780    4.8100 C.3    50  ARG50       0.0489
     34  CD        22.4410  -15.7340    3.5950 C.3    50  ARG50       0.2205
     35  NE        23.4640  -14.7140    3.8870 N.pl3  50  ARG50      -0.0865
     36  CZ        23.8680  -14.2760    5.0960 C.cat  50  ARG50       0.5346
     37  NH1       23.3680  -14.7540    6.2500 N.pl3  50  ARG50       0.1354
     38  NH2       24.8170  -13.3340    5.1560 N.pl3  50  ARG50       0.1354
     39  N         21.5970  -20.1340    3.5860 N.am   51  ARG51      -0.1980
     40  CA        20.6530  -20.7430    2.6540 C.3    51  ARG51       0.1597
     41  C         21.0210  -22.2280    2.3980 C.2    51  ARG51       0.2287
     42  O         21.8490  -22.5430    1.5200 O.2    51  ARG51      -0.2864
     43  CB        20.6610  -19.8840    1.3810 C.3    51  ARG51       0.0334
     44  CG        19.5090  -20.1210    0.3870 C.3    51  ARG51       0.0492
     45  CD        19.6800  -19.1820   -0.8500 C.3    51  ARG51       0.2205
     46  NE        20.7630  -19.6820   -1.7190 N.pl3  51  ARG51      -0.0865
     47  CZ        20.6280  -20.6830   -2.6060 C.cat  51  ARG51       0.5346
     48  NH1       19.4510  -21.2790   -2.7720 N.pl3  51  ARG51       0.1354
     49  NH2       21.6630  -21.0750   -3.3620 N.pl3  51  ARG51       0.1354
     50  N         29.2280  -25.7590   -3.5430 N.3    94  ASP94      -0.1225
     51  CA        27.8150  -25.5140   -3.3610 C.3    94  ASP94       0.1805
     52  C         27.5010  -24.0870   -3.7570 C.2    94  ASP94       0.2598
     53  O         26.3720  -23.6610   -3.5860 O.2    94  ASP94      -0.2718
     54  CB        27.3610  -25.7020   -1.8840 C.3    94  ASP94       0.1424
     55  CG        27.1090  -27.1250   -1.5290 C.2    94  ASP94       0.3668
     56  OD1       26.3920  -27.8290   -2.2860 O.co2  94  ASP94      -0.2456
     57  OD2       27.5830  -27.6110   -0.4660 O.co2  94  ASP94      -0.2456
     58  N         28.4540  -23.3470   -4.3200 N.am   95  CYS95      -0.1956
     59  CA        28.1720  -22.0840   -4.9230 C.3    95  CYS95       0.1843
     60  C         28.0020  -22.2120   -6.4810 C.2    95  CYS95       0.2626
     61  O         28.7070  -22.9990   -7.1250 O.2    95  CYS95      -0.2714
     62  CB        29.3310  -21.1600   -4.6120 C.3    95  CYS95       0.0997
     63  SG        29.2600  -19.4450   -5.2560 S.3    95  CYS95      -0.0797
     64  N         27.1200  -21.4050   -7.0720 N.am   96  SER96      -0.1936
     65  CA        26.9010  -21.4500   -8.5490 C.3    96  SER96       0.2055
     66  C         28.1220  -21.0490   -9.3290 C.2    96  SER96       0.2643
     67  O         28.2230  -21.4060  -10.5220 O.2    96  SER96      -0.2714
     68  CB        25.7070  -20.5610   -8.9700 C.3    96  SER96       0.2130
     69  OG        25.9150  -19.2400   -8.5470 O.3    96  SER96      -0.2179
     70  N         29.0900  -20.3740   -8.6640 N.am   97  SER97      -0.1949
     71  CA        30.4190  -20.1550   -9.2360 C.3    97  SER97       0.1924
     72  C         31.1990  -21.4370   -9.5900 C.2    97  SER97       0.2314
     73  O         32.2260  -21.3410  -10.2670 O.2    97  SER97      -0.2863
     74  CB        31.3030  -19.2180   -8.3620 C.3    97  SER97       0.2116
     75  OG        31.5900  -19.9150   -7.1490 O.3    97  SER97      -0.2180
     76  N         32.0580  -21.8690  -13.1700 N.3   100  ALA100     -0.1245
     77  CA        33.2890  -21.1940  -13.6390 C.3   100  ALA100      0.1562
     78  C         34.5770  -21.6490  -12.8840 C.2   100  ALA100      0.2260
     79  O         35.4840  -20.8520  -12.7130 O.2   100  ALA100     -0.2867
     80  CB        33.1030  -19.6400  -13.5840 C.3   100  ALA100      0.0290
     81  N         35.5860  -19.4340   -9.9520 N.3   103  ASP103     -0.1225
     82  CA        36.0150  -18.0680  -10.1540 C.3   103  ASP103      0.1805
     83  C         34.9140  -17.0840   -9.8010 C.2   103  ASP103      0.2597
     84  O         33.7560  -17.1790  -10.2550 O.2   103  ASP103     -0.2718
     85  CB        36.5490  -17.8530  -11.6130 C.3   103  ASP103      0.1424
     86  CG        37.0520  -16.4450  -11.8630 C.2   103  ASP103      0.3668
     87  OD1       37.6950  -15.7720  -10.9870 O.co2 103  ASP103     -0.2456
     88  OD2       36.7980  -15.9850  -12.9930 O.co2 103  ASP103     -0.2456
     89  N         35.2900  -16.1470   -8.9510 N.am  104  LEU104     -0.1979
     90  CA        34.3770  -15.0680   -8.5440 C.3   104  LEU104      0.1596
     91  C         34.6890  -13.7550   -9.2560 C.2   104  LEU104      0.2287
     92  O         33.9550  -12.7810   -9.0670 O.2   104  LEU104     -0.2864
     93  CB        34.4440  -14.8440   -7.0090 C.3   104  LEU104      0.0297
     94  CG        33.9260  -15.9840   -6.1360 C.3   104  LEU104      0.0022
     95  CD1       34.2920  -15.6920   -4.6840 C.3   104  LEU104      0.0001
     96  CD2       32.3660  -16.2770   -6.2360 C.3   104  LEU104      0.0001
     97  N         32.6520   -8.3930   -0.1930 N.3   112  MET112     -0.1230
     98  CA        32.3090   -9.8240    0.1370 C.3   112  MET112      0.1702
     99  C         32.0730   -9.9300    1.6380 C.2   112  MET112      0.2592
    100  O         32.5690   -9.0970    2.3430 O.2   112  MET112     -0.2718
    101  CB        33.4820  -10.7720   -0.2290 C.3   112  MET112      0.0401
    102  CG        33.8290  -10.9190   -1.7100 C.3   112  MET112      0.0596
    103  SD        32.4760  -11.6080   -2.6450 S.3   112  MET112     -0.1393
    104  CE        33.0590  -11.1570   -4.2700 C.3   112  MET112      0.0692
    105  N         31.3740  -10.9560    2.1480 N.am  113  ALA113     -0.1980
    106  CA        31.4240  -11.1860    3.6220 C.3   113  ALA113      0.1597
    107  C         32.8510  -10.9360    4.2060 C.2   113  ALA113      0.2287
    108  O         33.8990  -11.3210    3.6120 O.2   113  ALA113     -0.2864
    109  CB        30.9150  -12.5520    3.9820 C.3   113  ALA113      0.0319
    110  N         35.4860  -13.8190    4.4430 N.3   116  PHE116     -0.1241
    111  CA        35.9730  -14.1680    3.0630 C.3   116  PHE116      0.1605
    112  C         36.9000  -13.0600    2.5040 C.2   116  PHE116      0.2264
    113  O         38.0340  -13.2830    2.0380 O.2   116  PHE116     -0.2867
    114  CB        34.7420  -14.3350    2.1620 C.3   116  PHE116      0.0534
    115  CG        35.0780  -14.9400    0.7900 C.ar  116  PHE116     -0.0203
    116  CD1       34.9380  -16.2940    0.5910 C.ar  116  PHE116     -0.0042
    117  CD2       35.5700  -14.1370   -0.2580 C.ar  116  PHE116     -0.0042
    118  CE1       35.2390  -16.8940   -0.6840 C.ar  116  PHE116     -0.0003
    119  CE2       35.9320  -14.7750   -1.5380 C.ar  116  PHE116     -0.0003
    120  CZ        35.7250  -16.1250   -1.7070 C.ar  116  PHE116     -0.0000
    121  N         32.0560  -18.6360    6.8060 N.3   134  THR134     -0.1218
    122  CA        31.1900  -17.4720    6.7460 C.3   134  THR134      0.1862
    123  C         29.7700  -17.9740    6.9960 C.2   134  THR134      0.2287
    124  O         29.5540  -19.2080    7.1400 O.2   134  THR134     -0.2866
    125  CB        31.2760  -16.7650    5.3430 C.3   134  THR134      0.1770
    126  OG1       30.6600  -17.6150    4.3980 O.3   134  THR134     -0.2211
    127  CG2       32.7670  -16.4870    4.8950 C.3   134  THR134      0.0375
    128  N         27.5380  -18.3230    4.8070 N.3   136  SER136     -0.1217
    129  CA        27.2260  -19.2120    3.6790 C.3   136  SER136      0.1889
    130  C         27.6280  -20.6470    3.8910 C.2   136  SER136      0.2288
    131  O         26.9790  -21.5530    3.3940 O.2   136  SER136     -0.2866
    132  CB        27.8820  -18.7190    2.4020 C.3   136  SER136      0.2089
    133  OG        27.3040  -17.5040    2.1070 O.3   136  SER136     -0.2183
    134  N         34.5900  -22.3450    3.3100 N.3   139  HIS139     -0.1241
    135  CA        35.2040  -22.0470    1.9740 C.3   139  HIS139      0.1621
    136  C         36.6870  -22.4620    1.9130 C.2   139  HIS139      0.2264
    137  O         37.3800  -22.4480    2.9430 O.2   139  HIS139     -0.2867
    138  CB        35.2360  -20.5430    1.7240 C.3   139  HIS139      0.0745
    139  CG        33.9050  -19.8490    1.7930 C.ar  139  HIS139      0.0817
    140  ND1       33.2620  -19.3790    0.6630 N.ar  139  HIS139     -0.2268
    141  CD2       33.1410  -19.4690    2.8520 C.ar  139  HIS139      0.1154
    142  CE1       32.1460  -18.7540    1.0240 C.ar  139  HIS139      0.1986
    143  NE2       32.0470  -18.8070    2.3510 N.ar  139  HIS139     -0.2212
@<TRIPOS>BOND
     1    77    80    1
     2    77    76    1
     3    77    78    1
     4    88    86   ar
     5    78    79    2
     6    86    85    1
     7    86    87   ar
     8    85    82    1
     9    67    66    2
    10    73    72    2
    11    84    83    2
    12    82    81    1
    13    82    83    1
    14    83    89   am
    15    72    71    1
    16    66    70   am
    17    66    65    1
    18    91    92    2
    19    91    90    1
    20    71    70    1
    21    71    74    1
    22    68    65    1
    23    68    69    1
    24    89    90    1
    25    65    64    1
    26    90    93    1
    27    74    75    1
    28    61    60    2
    29    64    60   am
    30    93    94    1
    31    60    59    1
    32    96    94    1
    33    94    95    1
    34     4     3    2
    35     1     2    1
    36    63    62    1
    37    59    62    1
    38    59    58    1
    39     8    10   ar
    40     8     6   ar
    41    58    52   am
    42     3     2    1
    43   104   103    1
    44    10     9   ar
    45     2     5    1
    46    52    53    2
    47    52    51    1
    48    50    51    1
    49    49    47    1
    50    51    54    1
    51     6     5    1
    52     6     7   ar
    53    48    47    1
    54     9     7   ar
    55   103   102    1
    56    47    46    2
    57    56    55   ar
    58    11    12    1
    59    54    55    1
    60    46    45    1
    61   102   101    1
    62   120   119   ar
    63   120   118   ar
    64   119   117   ar
    65    55    57   ar
    66    14    13    2
    67    15    12    1
    68    15    16    1
    69    45    44    1
    70    12    13    1
    71   118   116   ar
    72    18    16    1
    73    27    26    1
    74    26    25    1
    75   117   115   ar
    76   101    98    1
    77    97    98    1
    78    16    17    1
    79    98    99    1
    80    44    43    1
    81    25    24    1
    82   116   115   ar
    83   140   142   ar
    84   140   139   ar
    85   115   114    1
    86   142   143   ar
    87    24    23    1
    88    43    40    1
    89    42    41    2
    90    99   105   am
    91    99   100    2
    92   138   139    1
    93   138   135    1
    94   139   141   ar
    95   136   135    1
    96   136   137    2
    97    23    20    1
    98   135   134    1
    99    19    20    1
   100   113   112    2
   101   133   132    1
   102   105   106    1
   103   114   111    1
   104   143   141   ar
   105    41    40    1
   106   132   129    1
   107   112   111    1
   108    40    39    1
   109    20    21    1
   110   111   110    1
   111   131   130    2
   112    39    30   am
   113    34    35    1
   114    34    33    1
   115   108   107    2
   116   106   109    1
   117   106   107    1
   118   129   130    1
   119   129   128    1
   120    22    21    2
   121    35    36    2
   122   126   125    1
   123    30    31    2
   124    30    29    1
   125    33    32    1
   126   127   125    1
   127    32    29    1
   128    36    38    1
   129    36    37    1
   130   125   122    1
   131    29    28    1
   132   122   121    1
   133   122   123    1
   134   123   124    2
