@<TRIPOS>MOLECULE
tmp/3kafA00.pdb
 144 135 0 0 0
SMALL
GASTEIGER

@<TRIPOS>ATOM
      1  N         32.2760  -21.8920    8.0280 N.3    41  HIS41      -0.1241
      2  CA        31.7860  -21.3480    9.3000 C.3    41  HIS41       0.1621
      3  C         31.0880  -19.9930    9.0750 C.2    41  HIS41       0.2264
      4  O         31.2360  -19.3880    8.0290 O.2    41  HIS41      -0.2867
      5  CB        32.9290  -21.2680   10.3630 C.3    41  HIS41       0.0745
      6  CG        33.8960  -20.1230   10.1770 C.ar   41  HIS41       0.0817
      7  ND1       34.4550  -19.4460   11.2440 N.ar   41  HIS41      -0.2268
      8  CD2       34.3450  -19.4910    9.0670 C.ar   41  HIS41       0.1154
      9  CE1       35.2310  -18.4660   10.7950 C.ar   41  HIS41       0.1986
     10  NE2       35.1640  -18.4580    9.4770 N.ar   41  HIS41      -0.2212
     11  N         30.9340  -16.5490   11.3820 N.3    43  LEU43      -0.1245
     12  CA        31.5580  -15.9600   12.5360 C.3    43  LEU43       0.1561
     13  C         30.7580  -14.7290   12.8880 C.2    43  LEU43       0.2260
     14  O         30.4070  -13.9790   12.0070 O.2    43  LEU43      -0.2867
     15  CB        33.0040  -15.5090   12.2090 C.3    43  LEU43       0.0270
     16  CG        33.7950  -14.5980   13.1870 C.3    43  LEU43       0.0019
     17  CD1       34.1660  -15.3000   14.4950 C.3    43  LEU43       0.0001
     18  CD2       35.1060  -14.0840   12.6400 C.3    43  LEU43       0.0001
     19  N         31.5550  -11.5200   15.2000 N.3    45  LYS45      -0.1245
     20  CA        32.5540  -10.9000   16.0650 C.3    45  LYS45       0.1561
     21  C         31.8760  -10.1420   17.2160 C.2    45  LYS45       0.2260
     22  O         30.6810   -9.7840   17.1140 O.2    45  LYS45      -0.2867
     23  CB        33.4670   -9.9960   15.2380 C.3    45  LYS45       0.0271
     24  CG        34.7170  -10.6750   14.7010 C.3    45  LYS45       0.0035
     25  CD        35.4380   -9.8220   13.6700 C.3    45  LYS45       0.0206
     26  CE        36.4760  -10.6750   12.9790 C.3    45  LYS45       0.1093
     27  NZ        36.9240  -10.1350   11.6200 N.3    45  LYS45      -0.1314
     28  N         39.3660  -10.4610   18.7750 N.3    50  ARG50      -0.1231
     29  CA        40.7060  -10.0010   18.4140 C.3    50  ARG50       0.1694
     30  C         40.7100   -8.6840   17.6280 C.2    50  ARG50       0.2591
     31  O         41.1250   -7.6410   18.1520 O.2    50  ARG50      -0.2718
     32  CB        41.4670  -11.0900   17.6350 C.3    50  ARG50       0.0321
     33  CG        42.9950  -11.0460   17.8570 C.3    50  ARG50       0.0489
     34  CD        43.7860  -12.0190   16.9670 C.3    50  ARG50       0.2205
     35  NE        43.4880  -13.4250   17.2760 N.pl3  50  ARG50      -0.0865
     36  CZ        42.6030  -14.1760   16.6120 C.cat  50  ARG50       0.5346
     37  NH1       41.9160  -13.6690   15.5770 N.pl3  50  ARG50       0.1354
     38  NH2       42.3980  -15.4380   16.9810 N.pl3  50  ARG50       0.1354
     39  N         40.2690   -8.7340   16.3720 N.am   51  ARG51      -0.1980
     40  CA        40.1160   -7.5220   15.5770 C.3    51  ARG51       0.1597
     41  C         38.6130   -7.1860   15.5760 C.2    51  ARG51       0.2287
     42  O         37.8370   -7.8430   14.8720 O.2    51  ARG51      -0.2864
     43  CB        40.6710   -7.7370   14.1610 C.3    51  ARG51       0.0334
     44  CG        41.0360   -6.4130   13.4090 C.3    51  ARG51       0.0492
     45  CD        41.5300   -6.6440   11.9440 C.3    51  ARG51       0.2205
     46  NE        40.5200   -7.3110   11.1060 N.pl3  51  ARG51      -0.0865
     47  CZ        39.6460   -6.6890   10.3120 C.cat  51  ARG51       0.5346
     48  NH1       39.6460   -5.3580   10.2000 N.pl3  51  ARG51       0.1354
     49  NH2       38.7750   -7.4070    9.6090 N.pl3  51  ARG51       0.1354
     50  N         33.4900  -13.0530    9.0280 N.3    95  CYS95      -0.1221
     51  CA        34.7640  -13.5040    8.4120 C.3    95  CYS95       0.1808
     52  C         34.7510  -13.2150    6.9020 C.2    95  CYS95       0.2602
     53  O         33.7210  -13.4210    6.2190 O.2    95  CYS95      -0.2717
     54  CB        34.9930  -14.9940    8.6130 C.3    95  CYS95       0.0970
     55  SG        36.5850  -15.5970    7.9830 S.3    95  CYS95      -0.0800
     56  N         35.9000  -12.8030    6.3600 N.am   96  SER96      -0.1938
     57  CA        35.9990  -12.5550    4.9160 C.3    96  SER96       0.2055
     58  C         35.7350  -13.8350    4.0690 C.2    96  SER96       0.2643
     59  O         35.4330  -13.7380    2.8820 O.2    96  SER96      -0.2714
     60  CB        37.3660  -11.9540    4.5750 C.3    96  SER96       0.2130
     61  OG        38.3760  -12.9730    4.7490 O.3    96  SER96      -0.2179
     62  N         35.8040  -15.0230    4.6720 N.am   97  SER97      -0.1949
     63  CA        35.3140  -16.2410    3.9880 C.3    97  SER97       0.1924
     64  C         33.8000  -16.1980    3.7150 C.2    97  SER97       0.2314
     65  O         33.2340  -17.1530    3.1330 O.2    97  SER97      -0.2863
     66  CB        35.5780  -17.4580    4.8350 C.3    97  SER97       0.2116
     67  OG        34.8970  -17.3230    6.0510 O.3    97  SER97      -0.2180
     68  N         32.3930  -14.5140    1.5610 N.3    99  LYS99      -0.1231
     69  CA        32.2540  -14.5170    0.0880 C.3    99  LYS99       0.1693
     70  C         32.5050  -15.8880   -0.5870 C.2    99  LYS99       0.2591
     71  O         32.2570  -16.0840   -1.7920 O.2    99  LYS99      -0.2718
     72  CB        33.1330  -13.3980   -0.5380 C.3    99  LYS99       0.0285
     73  CG        34.5590  -13.7520   -0.5970 C.3    99  LYS99       0.0035
     74  CD        35.4750  -12.4830   -0.6030 C.3    99  LYS99       0.0206
     75  CE        36.9190  -12.8870   -0.1940 C.3    99  LYS99       0.1093
     76  NZ        37.4600  -11.7550    0.6290 N.3    99  LYS99      -0.1314
     77  N         32.9630  -16.8560    0.1840 N.am  100  ALA100     -0.1980
     78  CA        33.1860  -18.1940   -0.3630 C.3   100  ALA100      0.1597
     79  C         32.1840  -19.0510    0.3710 C.2   100  ALA100      0.2287
     80  O         32.4350  -20.2290    0.6160 O.2   100  ALA100     -0.2864
     81  CB        34.5480  -18.6340   -0.0650 C.3   100  ALA100      0.0319
     82  N         33.4050  -20.9970    3.3150 N.3   103  ASP103     -0.1225
     83  CA        34.3270  -22.1390    3.1550 C.3   103  ASP103      0.1805
     84  C         35.7300  -21.7820    3.5630 C.2   103  ASP103      0.2597
     85  O         36.2290  -20.7400    3.1740 O.2   103  ASP103     -0.2718
     86  CB        34.3070  -22.6300    1.7050 C.3   103  ASP103      0.1424
     87  CG        35.1610  -23.8690    1.4890 C.2   103  ASP103      0.3668
     88  OD1       35.3650  -24.6630    2.4260 O.co2 103  ASP103     -0.2456
     89  OD2       35.6610  -24.0310    0.3600 O.co2 103  ASP103     -0.2456
     90  N         36.3660  -22.6370    4.3610 N.am  104  LEU104     -0.1979
     91  CA        37.7610  -22.3820    4.7780 C.3   104  LEU104      0.1596
     92  C         38.7420  -23.3050    4.0890 C.2   104  LEU104      0.2287
     93  O         39.9430  -23.1440    4.2310 O.2   104  LEU104     -0.2864
     94  CB        37.9340  -22.4600    6.3130 C.3   104  LEU104      0.0297
     95  CG        37.2390  -21.2910    7.0270 C.3   104  LEU104      0.0022
     96  CD1       37.0740  -21.6300    8.5060 C.3   104  LEU104      0.0001
     97  CD2       38.0250  -20.0370    6.8740 C.3   104  LEU104      0.0001
     98  N         44.6960  -24.3700   12.7380 N.3   112  MET112     -0.1230
     99  CA        43.6520  -23.4500   13.2140 C.3   112  MET112      0.1702
    100  C         43.5600  -23.3890   14.7300 C.2   112  MET112      0.2592
    101  O         43.8960  -24.3650   15.4190 O.2   112  MET112     -0.2718
    102  CB        42.2850  -23.9010   12.6940 C.3   112  MET112      0.0401
    103  CG        42.2110  -24.0460   11.1870 C.3   112  MET112      0.0596
    104  SD        41.5040  -22.5750   10.4720 S.3   112  MET112     -0.1393
    105  CE        41.9100  -22.8020    8.7320 C.3   112  MET112      0.0692
    106  N         43.0620  -22.2580   15.2310 N.am  113  ALA113     -0.1980
    107  CA        42.8050  -22.0650   16.6500 C.3   113  ALA113      0.1597
    108  C         42.1250  -23.2880   17.2400 C.2   113  ALA113      0.2287
    109  O         41.2000  -23.8660   16.6430 O.2   113  ALA113     -0.2864
    110  CB        41.9490  -20.8360   16.8730 C.3   113  ALA113      0.0319
    111  N         38.4630  -24.2480   17.7700 N.3   116  PHE116     -0.1241
    112  CA        37.8000  -24.3610   16.4710 C.3   116  PHE116      0.1605
    113  C         38.2260  -25.6860   15.8700 C.2   116  PHE116      0.2264
    114  O         37.4550  -26.4250   15.2980 O.2   116  PHE116     -0.2867
    115  CB        38.2740  -23.2090   15.5810 C.3   116  PHE116      0.0534
    116  CG        37.6050  -23.1590   14.2130 C.ar  116  PHE116     -0.0203
    117  CD1       36.6050  -22.2300   13.9450 C.ar  116  PHE116     -0.0042
    118  CD2       37.9620  -24.0560   13.1980 C.ar  116  PHE116     -0.0042
    119  CE1       35.9840  -22.1950   12.6760 C.ar  116  PHE116     -0.0003
    120  CE2       37.3240  -24.0340   11.9770 C.ar  116  PHE116     -0.0003
    121  CZ        36.3510  -23.0980   11.7200 C.ar  116  PHE116     -0.0000
    122  N         36.1480  -18.4710   20.0940 N.3   134  THR134     -0.1218
    123  CA        37.6000  -18.3690   19.9350 C.3   134  THR134      0.1862
    124  C         37.8700  -16.9000   20.1760 C.2   134  THR134      0.2287
    125  O         36.9040  -16.1520   20.3820 O.2   134  THR134     -0.2866
    126  CB        38.0920  -18.7970   18.5450 C.3   134  THR134      0.1770
    127  OG1       37.6170  -17.8770   17.5630 O.3   134  THR134     -0.2211
    128  CG2       37.6260  -20.1960   18.1460 C.3   134  THR134      0.0375
    129  N         38.3850  -14.8500   18.1930 N.3   136  SER136     -0.1217
    130  CA        37.9110  -14.0670   17.0460 C.3   136  SER136      0.1889
    131  C         36.4610  -13.6890   17.1620 C.2   136  SER136      0.2288
    132  O         36.0550  -12.7470   16.5230 O.2   136  SER136     -0.2866
    133  CB        38.1760  -14.7990   15.7170 C.3   136  SER136      0.2089
    134  OG        39.3070  -15.6620   15.8630 O.3   136  SER136     -0.2183
    135  N         31.7300  -18.7950   16.5540 N.3   139  HIS139     -0.1241
    136  CA        31.5150  -19.4890   15.2890 C.3   139  HIS139      0.1621
    137  C         30.3280  -20.4490   15.3040 C.2   139  HIS139      0.2264
    138  O         29.9230  -20.9650   16.3520 O.2   139  HIS139     -0.2867
    139  CB        32.7610  -20.3180   14.9670 C.3   139  HIS139      0.0745
    140  CG        34.0320  -19.5690   15.0890 C.ar  139  HIS139      0.0817
    141  ND1       34.7500  -19.1630   13.9910 N.ar  139  HIS139     -0.2268
    142  CD2       34.7420  -19.1660   16.1720 C.ar  139  HIS139      0.1154
    143  CE1       35.8420  -18.5260   14.3780 C.ar  139  HIS139      0.1986
    144  NE2       35.8480  -18.4890   15.6960 N.ar  139  HIS139     -0.2212
@<TRIPOS>BOND
     1    71    70    2
     2    74    73    1
     3    74    75    1
     4    73    72    1
     5    70    69    1
     6    70    77   am
     7    72    69    1
     8    78    81    1
     9    78    77    1
    10    78    79    1
    11    75    76    1
    12    69    68    1
    13    89    87   ar
    14    79    80    2
    15    87    86    1
    16    87    88   ar
    17    86    83    1
    18    59    58    2
    19    65    64    2
    20    83    82    1
    21    83    84    1
    22    85    84    2
    23    84    90   am
    24    64    63    1
    25    63    62    1
    26    63    66    1
    27    58    62   am
    28    58    57    1
    29    92    93    2
    30    92    91    1
    31    90    91    1
    32    60    61    1
    33    60    57    1
    34    91    94    1
    35    66    67    1
    36    57    56    1
    37    53    52    2
    38    94    95    1
    39    56    52   am
    40    97    95    1
    41    52    51    1
    42    95    96    1
    43    55    54    1
    44     1     2    1
    45     4     3    2
    46    51    54    1
    47    51    50    1
    48   105   104    1
    49     8    10   ar
    50     8     6   ar
    51     3     2    1
    52     2     5    1
    53    10     9   ar
    54    49    47    1
    55     6     5    1
    56     6     7   ar
    57    48    47    1
    58    47    46    2
    59   104   103    1
    60     9     7   ar
    61    46    45    1
    62   103   102    1
    63    11    12    1
    64    27    26    1
    65   121   120   ar
    66   121   119   ar
    67    45    44    1
    68   120   118   ar
    69    14    13    2
    70    15    12    1
    71    15    16    1
    72    12    13    1
    73    18    16    1
    74   119   117   ar
    75   102    99    1
    76    98    99    1
    77    26    25    1
    78    16    17    1
    79   118   116   ar
    80    99   100    1
    81    44    43    1
    82    25    24    1
    83   117   116   ar
    84   141   143   ar
    85   141   140   ar
    86    43    40    1
    87   116   115    1
    88   143   144   ar
    89    24    23    1
    90   100   106   am
    91   100   101    2
    92    42    41    2
    93   139   140    1
    94   139   136    1
    95   140   142   ar
    96    19    20    1
    97   106   107    1
    98    23    20    1
    99   136   137    1
   100   136   135    1
   101   114   113    2
   102   137   138    2
   103    41    40    1
   104    40    39    1
   105    37    36    1
   106   115   112    1
   107   144   142   ar
   108   133   134    1
   109   133   130    1
   110   113   112    1
   111    20    21    1
   112    39    30   am
   113   112   111    1
   114   132   131    2
   115    36    38    1
   116    36    35    2
   117   109   108    2
   118   107   110    1
   119   107   108    1
   120    34    35    1
   121    34    33    1
   122   130   131    1
   123   130   129    1
   124    22    21    2
   125   127   126    1
   126    30    31    2
   127    30    29    1
   128    32    33    1
   129    32    29    1
   130   128   126    1
   131    29    28    1
   132   126   123    1
   133   123   122    1
   134   123   124    1
   135   124   125    2
