@<TRIPOS>MOLECULE
tmp/3kagA00.pdb
 116 109 0 0 0
SMALL
GASTEIGER

@<TRIPOS>ATOM
      1  N        -33.3420   17.1290   21.2860 N.3    41  HIS41      -0.1297
      2  CA       -34.0110   16.9530   22.5520 C.3    41  HIS41       0.1306
      3  C        -35.4910   17.0500   22.3580 C.3    41  HIS41       0.2013
      4  O        -36.0200   17.5150   21.2700 O.3    41  HIS41      -0.2188
      5  CB       -33.5040   18.0070   23.5880 C.3    41  HIS41       0.0691
      6  CG       -34.0820   19.3680   23.4190 C.ar   41  HIS41       0.0814
      7  ND1      -34.6100   20.0710   24.4750 N.ar   41  HIS41      -0.2268
      8  CD2      -34.2890   20.1320   22.3080 C.ar   41  HIS41       0.1154
      9  CE1      -35.0940   21.2130   24.0370 C.ar   41  HIS41       0.1986
     10  NE2      -34.8980   21.2840   22.7260 N.ar   41  HIS41      -0.2212
     11  N        -38.6760   18.5620   24.7470 N.3    43  LEU43      -0.1245
     12  CA       -38.8700   19.4070   25.9280 C.3    43  LEU43       0.1561
     13  C        -40.3070   19.2650   26.2860 C.2    43  LEU43       0.2260
     14  O        -41.1650   19.3390   25.4040 O.2    43  LEU43      -0.2867
     15  CB       -38.5300   20.8980   25.6310 C.3    43  LEU43       0.0270
     16  CG       -38.9980   21.9860   26.6590 C.3    43  LEU43       0.0019
     17  CD1      -38.3810   21.7990   28.0330 C.3    43  LEU43       0.0001
     18  CD2      -38.6280   23.3500   26.0820 C.3    43  LEU43       0.0001
     19  N        -42.7380   21.3080   28.7220 N.3    45  LYS45      -0.1245
     20  CA       -42.7910   22.5080   29.5990 C.3    45  LYS45       0.1561
     21  C        -43.8610   22.2950   30.6500 C.2    45  LYS45       0.2260
     22  O        -44.6720   21.4110   30.5080 O.2    45  LYS45      -0.2867
     23  CB       -43.1660   23.6930   28.6830 C.3    45  LYS45       0.0271
     24  CG       -41.9120   24.2100   27.9010 C.3    45  LYS45       0.0035
     25  CD       -42.1450   25.6760   27.4100 C.3    45  LYS45       0.0206
     26  CE       -41.0120   26.1420   26.5130 C.3    45  LYS45       0.1093
     27  NZ       -41.3830   27.4380   25.9460 N.3    45  LYS45      -0.1314
     28  N        -40.8530   30.2120   30.3450 N.3    51  ARG51      -0.1245
     29  CA       -41.8130   30.6870   29.3420 C.3    51  ARG51       0.1563
     30  C        -42.9100   29.6250   29.1270 C.2    51  ARG51       0.2260
     31  O        -42.7270   28.7060   28.3250 O.2    51  ARG51      -0.2867
     32  CB       -41.0380   31.0010   28.0590 C.3    51  ARG51       0.0307
     33  CG       -41.6760   32.0280   27.1810 C.3    51  ARG51       0.0489
     34  CD       -40.7890   32.3290   25.9430 C.3    51  ARG51       0.2205
     35  NE       -40.9030   31.3260   24.8830 N.pl3  51  ARG51      -0.0865
     36  CZ       -42.0240   31.0450   24.1980 C.cat  51  ARG51       0.5346
     37  NH1      -43.1600   31.6880   24.4650 N.pl3  51  ARG51       0.1354
     38  NH2      -42.0240   30.1080   23.2490 N.pl3  51  ARG51       0.1354
     39  N        -42.0810   20.8570   23.2680 N.3    94  ASP94      -0.1225
     40  CA       -42.5290   22.2420   23.4600 C.3    94  ASP94       0.1805
     41  C        -41.4730   23.1850   23.0650 C.2    94  ASP94       0.2598
     42  O        -41.6310   24.3650   23.2660 O.2    94  ASP94      -0.2718
     43  CB       -42.9280   22.5530   24.9040 C.3    94  ASP94       0.1424
     44  CG       -44.3050   22.0320   25.2320 C.2    94  ASP94       0.3668
     45  OD1      -45.2460   22.2140   24.4300 O.co2  94  ASP94      -0.2456
     46  OD2      -44.4660   21.3730   26.2670 O.co2  94  ASP94      -0.2456
     47  N        -40.3810   22.6960   22.5160 N.am   95  CYS95      -0.1956
     48  CA       -39.4120   23.5670   21.8820 C.3    95  CYS95       0.1843
     49  C        -39.6590   23.6780   20.3780 C.2    95  CYS95       0.2626
     50  O        -40.0100   22.6920   19.7240 O.2    95  CYS95      -0.2714
     51  CB       -37.9930   23.0270   22.1320 C.3    95  CYS95       0.0997
     52  SG       -36.6440   24.0180   21.4880 S.3    95  CYS95      -0.0797
     53  N        -39.3880   24.8470   19.8040 N.am   96  SER96      -0.1936
     54  CA       -39.5970   25.0190   18.3490 C.3    96  SER96       0.2055
     55  C        -38.6740   24.1400   17.4890 C.2    96  SER96       0.2643
     56  O        -38.9720   23.8960   16.2930 O.2    96  SER96      -0.2714
     57  CB       -39.4660   26.4990   17.9520 C.3    96  SER96       0.2130
     58  OG       -38.2530   27.0540   18.4650 O.3    96  SER96      -0.2179
     59  N        -37.5830   23.6580   18.0860 N.am   97  SER97      -0.1949
     60  CA       -36.7150   22.6170   17.4470 C.3    97  SER97       0.1924
     61  C        -37.4730   21.3160   17.1420 C.2    97  SER97       0.2314
     62  O        -36.9450   20.4890   16.3680 O.2    97  SER97      -0.2863
     63  CB       -35.4930   22.3330   18.3250 C.3    97  SER97       0.2116
     64  OG       -35.9080   21.7060   19.5160 O.3    97  SER97      -0.2180
     65  N        -30.7720   20.4180   17.6890 N.3   104  LEU104     -0.1245
     66  CA       -30.2620   21.7290   18.0920 C.3   104  LEU104      0.1561
     67  C        -28.9810   22.1350   17.3420 C.2   104  LEU104      0.2260
     68  O        -28.5000   23.2390   17.5390 O.2   104  LEU104     -0.2867
     69  CB       -30.0500   21.7900   19.6120 C.3   104  LEU104      0.0270
     70  CG       -31.2990   21.6070   20.5000 C.3   104  LEU104      0.0019
     71  CD1      -30.8380   21.4950   21.9890 C.3   104  LEU104      0.0001
     72  CD2      -32.2820   22.7050   20.3880 C.3   104  LEU104      0.0001
     73  N        -25.3520   26.6670   26.4360 N.3   112  MET112     -0.1230
     74  CA       -26.6930   26.2220   26.8610 C.3   112  MET112      0.1702
     75  C        -26.8640   26.4360   28.3750 C.2   112  MET112      0.2592
     76  O        -25.8810   26.6050   29.0790 O.2   112  MET112     -0.2718
     77  CB       -26.8980   24.7000   26.5410 C.3   112  MET112      0.0401
     78  CG       -26.8820   24.2700   25.0480 C.3   112  MET112      0.0596
     79  SD       -28.0860   25.1390   23.9610 S.3   112  MET112     -0.1393
     80  CE       -27.7270   24.4130   22.3740 C.3   112  MET112      0.0692
     81  N        -28.0810   26.3820   28.8800 N.am  113  GLN113     -0.1979
     82  CA       -28.2730   26.1930   30.3450 C.3   113  GLN113      0.1601
     83  C        -27.4110   25.0530   30.9360 C.2   113  GLN113      0.2287
     84  O        -27.1860   23.9840   30.2970 O.2   113  GLN113     -0.2864
     85  CB       -29.7390   25.9720   30.6610 C.3   113  GLN113      0.0394
     86  CG       -30.5790   27.1120   30.1670 C.3   113  GLN113      0.0908
     87  CD       -32.0310   26.9560   30.5060 C.2   113  GLN113      0.2608
     88  OE1      -32.4190   26.9030   31.6840 O.2   113  GLN113     -0.2717
     89  NE2      -32.8500   26.8720   29.4840 N.am  113  GLN113     -0.0878
     90  N        -28.4890   21.3280   31.0430 N.3   116  PHE116     -0.1241
     91  CA       -28.5940   20.7810   29.6950 C.3   116  PHE116      0.1605
     92  C        -27.2000   20.5270   29.1680 C.2   116  PHE116      0.2264
     93  O        -26.9060   19.4740   28.5990 O.2   116  PHE116     -0.2867
     94  CB       -29.3620   21.7450   28.7760 C.3   116  PHE116      0.0534
     95  CG       -29.7520   21.1120   27.4220 C.ar  116  PHE116     -0.0203
     96  CD1      -30.9730   20.4960   27.2650 C.ar  116  PHE116     -0.0042
     97  CD2      -28.8780   21.1610   26.3420 C.ar  116  PHE116     -0.0042
     98  CE1      -31.3630   19.9430   26.0170 C.ar  116  PHE116     -0.0003
     99  CE2      -29.2530   20.5420   25.0920 C.ar  116  PHE116     -0.0003
    100  CZ       -30.4680   19.9530   24.9620 C.ar  116  PHE116     -0.0000
    101  N        -36.2810   25.8900   31.4950 N.3   136  SER136     -0.1217
    102  CA       -37.2910   25.7510   30.4140 C.3   136  SER136      0.1889
    103  C        -38.2860   24.6920   30.6850 C.2   136  SER136      0.2288
    104  O        -39.3930   24.7390   30.1280 O.2   136  SER136     -0.2866
    105  CB       -36.7090   25.4110   29.0570 C.3   136  SER136      0.2089
    106  OG       -35.7030   26.3040   28.8130 O.3   136  SER136     -0.2183
    107  N        -36.3710   17.9060   29.9100 N.3   139  HIS139     -0.1241
    108  CA       -35.9180   17.4030   28.5910 C.3   139  HIS139      0.1621
    109  C        -35.5030   15.8990   28.5900 C.2   139  HIS139      0.2264
    110  O        -35.0100   15.3680   29.6330 O.2   139  HIS139     -0.2867
    111  CB       -34.6520   18.1350   28.1970 C.3   139  HIS139      0.0745
    112  CG       -34.6860   19.6200   28.3930 C.ar  139  HIS139      0.0817
    113  ND1      -34.5810   20.5150   27.3310 N.ar  139  HIS139     -0.2268
    114  CD2      -34.7100   20.3790   29.5200 C.ar  139  HIS139      0.1154
    115  CE1      -34.5150   21.7560   27.7960 C.ar  139  HIS139      0.1986
    116  NE2      -34.5940   21.7080   29.1230 N.ar  139  HIS139     -0.2212
@<TRIPOS>BOND
     1    56    55    2
     2    62    61    2
     3    61    60    1
     4    67    68    2
     5    67    66    1
     6    60    59    1
     7    60    63    1
     8    55    59   am
     9    55    54    1
    10    65    66    1
    11    57    54    1
    12    57    58    1
    13    66    69    1
    14    63    64    1
    15    54    53    1
    16    69    70    1
    17    50    49    2
    18    53    49   am
    19    49    48    1
    20    72    70    1
    21    70    71    1
    22     4     3    1
    23     1     2    1
    24    52    51    1
    25    48    51    1
    26    48    47    1
    27     8    10   ar
    28     8     6   ar
    29     3     2    1
    30    80    79    1
    31    47    41   am
    32     2     5    1
    33    10     9   ar
    34    41    42    2
    35    41    40    1
    36    38    36    1
    37    39    40    1
    38     6     5    1
    39     6     7   ar
    40    40    43    1
    41    79    78    1
    42     9     7   ar
    43    36    37    1
    44    36    35    2
    45    45    44   ar
    46    11    12    1
    47    35    34    1
    48    43    44    1
    49   100    99   ar
    50   100    98   ar
    51    78    77    1
    52    99    97   ar
    53    44    46   ar
    54    14    13    2
    55    15    12    1
    56    15    16    1
    57    12    13    1
    58    34    33    1
    59    27    26    1
    60    98    96   ar
    61    18    16    1
    62    97    95   ar
    63    73    74    1
    64    26    25    1
    65    77    74    1
    66    16    17    1
    67    74    75    1
    68    33    32    1
    69    96    95   ar
    70   113   115   ar
    71   113   112   ar
    72    25    24    1
    73    95    94    1
    74   115   116   ar
    75    24    23    1
    76    32    29    1
    77   111   112    1
    78   111   108    1
    79    31    30    2
    80    75    81   am
    81    75    76    2
    82   112   114   ar
    83   109   108    1
    84   109   110    2
    85   108   107    1
    86    93    92    2
    87    23    20    1
    88    19    20    1
    89    94    91    1
    90   106   105    1
    91    81    82    1
    92   105   102    1
    93   116   114   ar
    94    30    29    1
    95    92    91    1
    96    29    28    1
    97    89    87   am
    98    20    21    1
    99    91    90    1
   100   104   103    2
   101    86    87    1
   102    86    85    1
   103    84    83    2
   104    82    85    1
   105    82    83    1
   106   102   103    1
   107   102   101    1
   108    87    88    2
   109    22    21    2
