@<TRIPOS>MOLECULE
tmp/3kagA01.pdb
 120 118 0 0 0
SMALL
GASTEIGER

@<TRIPOS>ATOM
      1  N        -30.7010   -2.6450   42.1470 N.3    10  SER10      -0.1217
      2  CA       -32.0970   -2.5440   41.7730 C.3    10  SER10       0.1889
      3  C        -33.0160   -3.0360   42.9250 C.2    10  SER10       0.2288
      4  O        -32.7470   -4.0690   43.5430 O.2    10  SER10      -0.2866
      5  CB       -32.3300   -3.3970   40.5570 C.3    10  SER10       0.2089
      6  OG       -33.7180   -3.5410   40.3530 O.3    10  SER10      -0.2183
      7  N        -27.3700   -2.3740   38.6600 N.3    17  TYR17      -0.1241
      8  CA       -27.5520   -1.5850   37.4350 C.3    17  TYR17       0.1605
      9  C        -26.6910   -0.3330   37.5490 C.2    17  TYR17       0.2264
     10  O        -25.9930   -0.1270   38.5600 O.2    17  TYR17      -0.2867
     11  CB       -29.0030   -1.2420   37.1610 C.3    17  TYR17       0.0534
     12  CG       -29.5540   -0.2370   38.1060 C.ar   17  TYR17      -0.0201
     13  CD1      -29.6970    1.0880   37.7250 C.ar   17  TYR17      -0.0009
     14  CD2      -29.8990   -0.6030   39.4130 C.ar   17  TYR17      -0.0009
     15  CE1      -30.1720    2.0540   38.5860 C.ar   17  TYR17       0.0417
     16  CE2      -30.4030    0.3330   40.2910 C.ar   17  TYR17       0.0417
     17  CZ       -30.5460    1.6650   39.8750 C.ar   17  TYR17       0.1957
     18  OH       -31.0190    2.5930   40.7750 O.3    17  TYR17      -0.2866
     19  N        -29.0620   11.5330   34.2990 N.3    24  ASN24      -0.1225
     20  CA       -30.2150   10.7240   34.7400 C.3    24  ASN24       0.1785
     21  C        -30.4920    9.4860   33.8850 C.2    24  ASN24       0.2597
     22  O        -31.5830    8.9070   33.9860 O.2    24  ASN24      -0.2718
     23  CB       -31.4370   11.5900   34.9670 C.3    24  ASN24       0.1169
     24  CG       -31.2810   12.5250   36.1770 C.2    24  ASN24       0.2627
     25  OD1      -31.8110   13.6400   36.2110 O.2    24  ASN24      -0.2716
     26  ND2      -30.5630   12.0610   37.1610 N.am   24  ASN24      -0.0877
     27  N        -29.5230    9.0790   33.0550 N.am   25  ALA25      -0.1966
     28  CA       -29.6120    7.7960   32.3340 C.3    25  ALA25       0.1728
     29  C        -29.5250    6.6410   33.3580 C.2    25  ALA25       0.2617
     30  O        -28.7560    6.7240   34.3810 O.2    25  ALA25      -0.2715
     31  CB       -28.4500    7.6810   31.3670 C.3    25  ALA25       0.0334
     32  N        -30.2420    5.5480   33.0630 N.am   26  SER26      -0.1936
     33  CA       -30.0720    4.2940   33.8000 C.3    26  SER26       0.2055
     34  C        -30.2170    3.1060   32.8490 C.2    26  SER26       0.2643
     35  O        -30.9930    3.1590   31.9080 O.2    26  SER26      -0.2714
     36  CB       -31.0420    4.1730   34.9730 C.3    26  SER26       0.2130
     37  OG       -32.3660    4.4140   34.5020 O.3    26  SER26      -0.2179
     38  N        -29.4130    2.0760   33.0970 N.am   27  GLN27      -0.1963
     39  CA       -29.3160    0.9140   32.2300 C.3    27  GLN27       0.1733
     40  C        -28.7330   -0.2760   33.0410 C.2    27  GLN27       0.2616
     41  O        -27.9030   -0.0900   33.9530 O.2    27  GLN27      -0.2715
     42  CB       -28.3970    1.2010   31.0360 C.3    27  GLN27       0.0408
     43  CG       -26.9980    1.4880   31.4220 C.3    27  GLN27       0.0908
     44  CD       -26.1690    1.9100   30.2240 C.2    27  GLN27       0.2608
     45  OE1      -26.5490    2.8420   29.5130 O.2    27  GLN27      -0.2717
     46  NE2      -25.0550    1.2270   29.9870 N.am   27  GLN27      -0.0878
     47  N        -29.1340   -1.4980   32.6540 N.am   28  TRP28      -0.1974
     48  CA       -28.5550   -2.7220   33.2530 C.3    28  TRP28       0.1640
     49  C        -27.0820   -2.9110   32.9230 C.2    28  TRP28       0.2290
     50  O        -26.2480   -3.3270   33.7760 O.2    28  TRP28      -0.2864
     51  CB       -29.3870   -3.9660   32.8280 C.3    28  TRP28       0.0576
     52  CG       -30.7750   -3.9030   33.3030 C.ar   28  TRP28       0.0006
     53  CD1      -31.8820   -3.7240   32.5330 C.ar   28  TRP28       0.0946
     54  CD2      -31.2360   -3.9340   34.6850 C.ar   28  TRP28       0.0152
     55  NE1      -33.0070   -3.6910   33.3250 N.ar   28  TRP28      -0.2442
     56  CE2      -32.6510   -3.8220   34.6440 C.ar   28  TRP28       0.0810
     57  CE3      -30.5910   -4.1020   35.9300 C.ar   28  TRP28       0.0012
     58  CZ2      -33.4580   -3.8420   35.7970 C.ar   28  TRP28       0.0191
     59  CZ3      -31.3940   -4.1250   37.1010 C.ar   28  TRP28       0.0001
     60  CH2      -32.8130   -3.9870   37.0210 C.ar   28  TRP28       0.0015
     61  N        -39.8930    8.3290   27.2910 N.3    75  ILE75      -0.1231
     62  CA       -38.6570    7.5180   27.4910 C.3    75  ILE75       0.1692
     63  C        -39.0050    6.0290   27.3520 C.2    75  ILE75       0.2591
     64  O        -38.2650    5.2660   26.6820 O.2    75  ILE75      -0.2718
     65  CB       -38.0270    7.8450   28.8810 C.3    75  ILE75       0.0266
     66  CG1      -37.3050    9.2150   28.8120 C.3    75  ILE75       0.0019
     67  CG2      -36.9530    6.8400   29.2850 C.3    75  ILE75       0.0020
     68  CD1      -36.9630    9.7530   30.2300 C.3    75  ILE75       0.0001
     69  N        -40.1350    5.6140   27.9660 N.am   76  GLN76      -0.1979
     70  CA       -40.5450    4.2120   27.8620 C.3    76  GLN76       0.1601
     71  C        -40.7820    3.7530   26.4270 C.2    76  GLN76       0.2287
     72  O        -40.3140    2.6480   26.0360 O.2    76  GLN76      -0.2864
     73  CB       -41.7490    3.9070   28.6980 C.3    76  GLN76       0.0394
     74  CG       -41.4770    3.9480   30.1940 C.3    76  GLN76       0.0908
     75  CD       -42.7440    3.5930   30.9920 C.2    76  GLN76       0.2608
     76  OE1      -43.7740    4.2590   30.8700 O.2    76  GLN76      -0.2717
     77  NE2      -42.6830    2.5020   31.7490 N.am   76  GLN76      -0.0878
     78  N        -37.4190    3.6830   24.5480 N.3    79  LYS79      -0.1245
     79  CA       -36.6160    2.5060   24.9400 C.3    79  LYS79       0.1561
     80  C        -37.2160    1.1440   24.5490 C.2    79  LYS79       0.2260
     81  O        -36.4440    0.1860   24.3170 O.2    79  LYS79      -0.2867
     82  CB       -36.3230    2.4950   26.4590 C.3    79  LYS79       0.0271
     83  CG       -35.2890    3.5560   26.9080 C.3    79  LYS79       0.0035
     84  CD       -35.0070    3.3060   28.3700 C.3    79  LYS79       0.0206
     85  CE       -33.6920    3.8540   28.6740 C.3    79  LYS79       0.1093
     86  NZ       -33.1890    3.3910   30.0050 N.3    79  LYS79      -0.1314
     87  N        -26.1540    8.1700   22.7320 N.3   127  GLU127     -0.1231
     88  CA       -26.8090    7.8990   24.0060 C.3   127  GLU127      0.1699
     89  C        -27.8590    8.9350   24.3070 C.2   127  GLU127      0.2592
     90  O        -27.7680   10.0640   23.8640 O.2   127  GLU127     -0.2718
     91  CB       -25.7550    7.9880   25.0450 C.3   127  GLU127      0.0402
     92  CG       -25.7400    6.8780   25.9300 C.3   127  GLU127      0.1161
     93  CD       -25.1670    7.3030   27.2970 C.2   127  GLU127      0.3649
     94  OE1      -23.9730    7.8730   27.2360 O.co2 127  GLU127     -0.2457
     95  OE2      -25.9080    7.0540   28.3600 O.co2 127  GLU127     -0.2457
     96  N        -28.8510    8.5140   25.0620 N.am  128  MET128     -0.1965
     97  CA       -29.9520    9.3120   25.4380 C.3   128  MET128      0.1736
     98  C        -29.9360    9.5430   26.9840 C.2   128  MET128      0.2617
     99  O        -29.5810    8.6680   27.7700 O.2   128  MET128     -0.2715
    100  CB       -31.2270    8.6180   25.0350 C.3   128  MET128      0.0427
    101  CG       -32.4400    9.5020   25.2490 C.3   128  MET128      0.0599
    102  SD       -33.9310    8.7110   24.6860 S.3   128  MET128     -0.1393
    103  CE       -34.2440    7.5390   26.0200 C.3   128  MET128      0.0692
    104  N        -30.3390   10.7350   27.4000 N.am  129  SER129     -0.1936
    105  CA       -30.3880   11.0330   28.8260 C.3   129  SER129      0.2055
    106  C        -31.6730   10.4380   29.4400 C.2   129  SER129      0.2644
    107  O        -32.5960   10.0670   28.7530 O.2   129  SER129     -0.2714
    108  CB       -30.3250   12.5550   29.0270 C.3   129  SER129      0.2130
    109  OG       -31.6510   13.1180   28.7190 O.3   129  SER129     -0.2179
    110  N        -31.7780   10.4610   30.7770 N.am  130  GLY130     -0.1940
    111  CA       -33.1120   10.5340   31.3720 C.3   130  GLY130      0.1998
    112  C        -33.6630   11.9560   31.4240 C.2   130  GLY130      0.2480
    113  O        -33.2070   12.8320   30.7060 O.2   130  GLY130     -0.2729
    114  N        -34.6360   12.1920   32.2980 N.am  131  PRO131     -0.2726
    115  CA       -35.2640   13.5110   32.5110 C.3   131  PRO131      0.1402
    116  C        -34.2440   14.5020   33.0430 C.2   131  PRO131      0.2269
    117  O        -33.5890   14.2030   34.0300 O.2   131  PRO131     -0.2865
    118  CB       -36.3710   13.2240   33.5760 C.3   131  PRO131      0.0296
    119  CG       -36.6450   11.7590   33.4350 C.3   131  PRO131      0.0237
    120  CD       -35.2200   11.1490   33.1610 C.3   131  PRO131      0.0939
@<TRIPOS>BOND
     1    87    88    1
     2    90    89    2
     3    88    89    1
     4    88    91    1
     5    89    96   am
     6    81    80    2
     7    78    79    1
     8    80    79    1
     9   102   101    1
    10   102   103    1
    11    79    82    1
    12   100   101    1
    13   100    97    1
    14    91    92    1
    15    96    97    1
    16    97    98    1
    17    92    93    1
    18    72    71    2
    19    71    70    1
    20    82    83    1
    21    64    63    2
    22    83    84    1
    23    98   104   am
    24    98    99    2
    25    94    93   ar
    26    61    62    1
    27    93    95   ar
    28    63    62    1
    29    63    69   am
    30   104   105    1
    31    62    65    1
    32    70    69    1
    33    70    73    1
    34    84    85    1
    35    85    86    1
    36    73    74    1
    37   109   108    1
    38   107   106    2
    39    66    65    1
    40    66    68    1
    41   105   108    1
    42   105   106    1
    43    65    67    1
    44   106   110   am
    45    45    44    2
    46    46    44   am
    47    74    75    1
    48    44    43    1
    49   113   112    2
    50   110   111    1
    51    76    75    2
    52    75    77   am
    53    42    43    1
    54    42    39    1
    55    31    28    1
    56   111   112    1
    57   112   114   am
    58    35    34    2
    59    39    40    1
    60    39    38    1
    61   114   115    1
    62   114   120    1
    63    28    27    1
    64    28    29    1
    65   115   116    1
    66   115   118    1
    67    53    52   ar
    68    53    55   ar
    69    47    40   am
    70    47    48    1
    71    51    48    1
    72    51    52    1
    73    34    38   am
    74    34    33    1
    75    49    48    1
    76    49    50    2
    77    40    41    2
    78   116   117    2
    79    27    21   am
    80    32    29   am
    81    32    33    1
    82   120   119    1
    83    52    54   ar
    84    55    56   ar
    85    29    30    2
    86   119   118    1
    87    33    36    1
    88    21    22    2
    89    21    20    1
    90    19    20    1
    91    37    36    1
    92    56    54   ar
    93    56    58   ar
    94    54    57   ar
    95    20    23    1
    96    23    24    1
    97    58    60   ar
    98    57    59   ar
    99    24    25    2
   100    24    26   am
   101    60    59   ar
   102    11     8    1
   103    11    12    1
   104     8     9    1
   105     8     7    1
   106     9    10    2
   107    13    12   ar
   108    13    15   ar
   109    12    14   ar
   110    15    17   ar
   111    14    16   ar
   112    17    16   ar
   113    17    18    1
   114     6     5    1
   115     5     2    1
   116     2     1    1
   117     2     3    1
   118     3     4    2
