@<TRIPOS>MOLECULE
tmp/3kahA00.pdb
 119 116 0 0 0
SMALL
GASTEIGER

@<TRIPOS>ATOM
      1  N         29.5810    2.1580    2.6910 N.3    10  SER10      -0.1217
      2  CA        31.0290    2.0660    2.7540 C.3    10  SER10       0.1889
      3  C         31.4910    3.0310    3.8150 C.2    10  SER10       0.2288
      4  O         31.1850    4.2080    3.7300 O.2    10  SER10      -0.2866
      5  CB        31.6750    2.4030    1.4270 C.3    10  SER10       0.2089
      6  OG        33.0280    2.7710    1.6150 O.3    10  SER10      -0.2183
      7  N         26.7340    1.3820   -1.4210 N.3    17  TYR17      -0.1241
      8  CA        27.0680    0.6260   -2.6100 C.3    17  TYR17       0.1605
      9  C         26.2100   -0.6250   -2.5920 C.2    17  TYR17       0.2264
     10  O         25.4720   -0.8350   -1.6390 O.2    17  TYR17      -0.2867
     11  CB        28.5570    0.2830   -2.6170 C.3    17  TYR17       0.0534
     12  CG        28.9860   -0.6340   -1.4980 C.ar   17  TYR17      -0.0201
     13  CD1       29.0410   -2.0000   -1.6950 C.ar   17  TYR17      -0.0009
     14  CD2       29.3910   -0.1360   -0.2610 C.ar   17  TYR17      -0.0009
     15  CE1       29.4630   -2.8730   -0.7100 C.ar   17  TYR17       0.0417
     16  CE2       29.8350   -1.0170    0.7550 C.ar   17  TYR17       0.0417
     17  CZ        29.8460   -2.3960    0.5080 C.ar   17  TYR17       0.1957
     18  OH        30.2510   -3.3120    1.4720 O.3    17  TYR17      -0.2866
     19  N         28.9830  -12.2980   -6.2600 N.3    24  ASN24      -0.1225
     20  CA        30.0550  -11.4950   -5.6770 C.3    24  ASN24       0.1785
     21  C         30.3040  -10.1970   -6.3920 C.2    24  ASN24       0.2597
     22  O         31.3740   -9.5720   -6.2130 O.2    24  ASN24      -0.2718
     23  CB        31.3290  -12.3090   -5.4310 C.3    24  ASN24       0.1169
     24  CG        31.0950  -13.4890   -4.4770 C.2    24  ASN24       0.2627
     25  OD1       31.2800  -14.6470   -4.8450 O.2    24  ASN24      -0.2716
     26  ND2       30.6490  -13.2090   -3.2930 N.am   24  ASN24      -0.0877
     27  N         29.3040   -9.7500   -7.1730 N.am   25  ALA25      -0.1966
     28  CA        29.3750   -8.4100   -7.7700 C.3    25  ALA25       0.1728
     29  C         29.3640   -7.3360   -6.6830 C.2    25  ALA25       0.2617
     30  O         28.8510   -7.5700   -5.5750 O.2    25  ALA25      -0.2715
     31  CB        28.2120   -8.1640   -8.8100 C.3    25  ALA25       0.0334
     32  N         29.9850   -6.1880   -6.9690 N.am   26  SER26      -0.1936
     33  CA        29.8680   -5.0220   -6.1290 C.3    26  SER26       0.2055
     34  C         30.1170   -3.8050   -6.9840 C.2    26  SER26       0.2643
     35  O         30.9130   -3.8660   -7.9090 O.2    26  SER26      -0.2714
     36  CB        30.7760   -5.0470   -4.8760 C.3    26  SER26       0.2130
     37  OG        32.1470   -5.2210   -5.2150 O.3    26  SER26      -0.2179
     38  N         29.4090   -2.7100   -6.6750 N.am   27  GLN27      -0.1963
     39  CA        29.3930   -1.4740   -7.4880 C.3    27  GLN27       0.1733
     40  C         28.7750   -0.3510   -6.6720 C.2    27  GLN27       0.2616
     41  O         27.9410   -0.6070   -5.8030 O.2    27  GLN27      -0.2715
     42  CB        28.5710   -1.6520   -8.7570 C.3    27  GLN27       0.0408
     43  CG        27.1610   -2.2340   -8.5400 C.3    27  GLN27       0.0908
     44  CD        26.4640   -2.6750   -9.8210 C.2    27  GLN27       0.2608
     45  OE1       26.9380   -3.5620  -10.5220 O.2    27  GLN27      -0.2717
     46  NE2       25.3250   -2.0380  -10.1370 N.am   27  GLN27      -0.0878
     47  N         29.1200    0.8910   -6.9840 N.am   28  TRP28      -0.1974
     48  CA        28.4600    2.0130   -6.3510 C.3    28  TRP28       0.1640
     49  C         27.0040    2.1370   -6.7790 C.2    28  TRP28       0.2290
     50  O         26.1900    2.5650   -6.0000 O.2    28  TRP28      -0.2864
     51  CB        29.1570    3.3170   -6.6710 C.3    28  TRP28       0.0576
     52  CG        30.5060    3.3230   -6.1840 C.ar   28  TRP28       0.0006
     53  CD1       31.6330    3.3110   -6.9230 C.ar   28  TRP28       0.0946
     54  CD2       30.9090    3.2990   -4.8160 C.ar   28  TRP28       0.0152
     55  NE1       32.7300    3.2960   -6.1040 N.ar   28  TRP28      -0.2442
     56  CE2       32.3090    3.2720   -4.7990 C.ar   28  TRP28       0.0810
     57  CE3       30.2120    3.3000   -3.5950 C.ar   28  TRP28       0.0012
     58  CZ2       33.0450    3.2330   -3.6060 C.ar   28  TRP28       0.0191
     59  CZ3       30.9440    3.2590   -2.4060 C.ar   28  TRP28       0.0001
     60  CH2       32.3400    3.2460   -2.4210 C.ar   28  TRP28       0.0015
     61  N         41.3470  -10.8950   -8.9980 N.3    72  ASN72      -0.1240
     62  CA        41.1290   -9.5180   -8.5710 C.3    72  ASN72       0.1653
     63  C         41.7740   -8.5230   -9.5510 C.2    72  ASN72       0.2266
     64  O         41.1160   -7.5060   -9.9540 O.2    72  ASN72      -0.2867
     65  CB        41.6310   -9.3110   -7.1380 C.3    72  ASN72       0.1155
     66  CG        40.6710   -9.8520   -6.0960 C.2    72  ASN72       0.2627
     67  OD1       39.4640   -9.9630   -6.3370 O.2    72  ASN72      -0.2716
     68  ND2       41.2040  -10.1960   -4.9140 N.am   72  ASN72      -0.0877
     69  N         39.6960   -8.5060  -12.8880 N.3    75  ILE75      -0.1231
     70  CA        38.5490   -7.6320  -12.5920 C.3    75  ILE75       0.1692
     71  C         38.8880   -6.1190  -12.6530 C.2    75  ILE75       0.2591
     72  O         38.2160   -5.3500  -13.3690 O.2    75  ILE75      -0.2718
     73  CB        37.8780   -7.9900  -11.2320 C.3    75  ILE75       0.0266
     74  CG1       37.2850   -9.4150  -11.3190 C.3    75  ILE75       0.0019
     75  CG2       36.7960   -6.9610  -10.9200 C.3    75  ILE75       0.0020
     76  CD1       36.7200  -10.0500   -9.9750 C.3    75  ILE75       0.0001
     77  N         39.9210   -5.7070  -11.9260 N.am   76  GLN76      -0.1979
     78  CA        40.3620   -4.2840  -11.9330 C.3    76  GLN76       0.1601
     79  C         40.5940   -3.7850  -13.3380 C.2    76  GLN76       0.2287
     80  O         40.1740   -2.7020  -13.6530 O.2    76  GLN76      -0.2864
     81  CB        41.6060   -4.0380  -11.0860 C.3    76  GLN76       0.0394
     82  CG        41.3700   -4.2440   -9.6400 C.3    76  GLN76       0.0908
     83  CD        42.6310   -4.0580   -8.7810 C.2    76  GLN76       0.2608
     84  OE1       43.7360   -4.4810   -9.1350 O.2    76  GLN76      -0.2717
     85  NE2       42.4590   -3.4210   -7.6510 N.am   76  GLN76      -0.0878
     86  N         37.2770   -3.4470  -15.2880 N.3    79  LYS79      -0.1245
     87  CA        36.4160   -2.4020  -14.7920 C.3    79  LYS79       0.1561
     88  C         36.9130   -1.0090  -15.1670 C.2    79  LYS79       0.2260
     89  O         36.1060   -0.1480  -15.4470 O.2    79  LYS79      -0.2867
     90  CB        36.2270   -2.5270  -13.2990 C.3    79  LYS79       0.0271
     91  CG        35.2410   -3.6440  -12.9530 C.3    79  LYS79       0.0035
     92  CD        34.9280   -3.6180  -11.4450 C.3    79  LYS79       0.0206
     93  CE        33.7140   -4.4470  -11.1720 C.3    79  LYS79       0.1093
     94  NZ        33.2070   -4.1210   -9.8160 N.3    79  LYS79      -0.1314
     95  N         28.5640   -8.5970  -15.1370 N.3   128  MET128     -0.1230
     96  CA        29.7430   -9.3910  -14.7540 C.3   128  MET128      0.1702
     97  C         29.7900   -9.8090  -13.2840 C.2   128  MET128      0.2593
     98  O         29.4670   -9.0440  -12.3740 O.2   128  MET128     -0.2718
     99  CB        31.0300   -8.6100  -15.0800 C.3   128  MET128      0.0401
    100  CG        32.2610   -9.4810  -15.0000 C.3   128  MET128      0.0596
    101  SD        33.7140   -8.6030  -15.4580 S.3   128  MET128     -0.1393
    102  CE        33.9420   -7.4770  -14.0850 C.3   128  MET128      0.0692
    103  N         30.2430  -11.0170  -13.0340 N.am  129  SER129     -0.1938
    104  CA        30.3890  -11.4900  -11.6550 C.3   129  SER129      0.2055
    105  C         31.6520  -10.9870  -11.0050 C.2   129  SER129      0.2644
    106  O         32.5520  -10.5130  -11.6770 O.2   129  SER129     -0.2714
    107  CB        30.4740  -13.0030  -11.6540 C.3   129  SER129      0.2130
    108  OG        31.8240  -13.3840  -11.7690 O.3   129  SER129     -0.2179
    109  N         31.7220  -11.1300   -9.6750 N.am  130  GLY130     -0.1940
    110  CA        33.0140  -11.0630   -8.9640 C.3   130  GLY130      0.1998
    111  C         33.6150  -12.4510   -8.9990 C.2   130  GLY130      0.2480
    112  O         33.1920  -13.2800   -9.8330 O.2   130  GLY130     -0.2729
    113  N         34.5990  -12.7380   -8.1170 N.am  131  PRO131     -0.2726
    114  CA        35.1380  -14.1020   -7.9440 C.3   131  PRO131      0.1402
    115  C         34.0640  -15.1270   -7.6050 C.2   131  PRO131      0.2269
    116  O         33.4010  -14.9560   -6.5830 O.2   131  PRO131     -0.2865
    117  CB        35.9960  -13.9940   -6.6840 C.3   131  PRO131      0.0296
    118  CG        36.2380  -12.5780   -6.4690 C.3   131  PRO131      0.0237
    119  CD        35.2970  -11.7590   -7.2650 C.3   131  PRO131      0.0939
@<TRIPOS>BOND
     1   101   100    1
     2   101   102    1
     3    89    88    2
     4    86    87    1
     5    88    87    1
     6    95    96    1
     7    99   100    1
     8    99    96    1
     9    87    90    1
    10    96    97    1
    11    80    79    2
    12    72    71    2
    13    79    78    1
    14    90    91    1
    15    97   103   am
    16    97    98    2
    17   103   104    1
    18    91    92    1
    19    69    70    1
    20    71    70    1
    21    71    77   am
    22    70    73    1
    23    78    77    1
    24    78    81    1
    25   108   107    1
    26   106   105    2
    27   104   107    1
    28   104   105    1
    29    92    93    1
    30    74    73    1
    31    74    76    1
    32    73    75    1
    33    93    94    1
    34    81    82    1
    35   105   109   am
    36    45    44    2
    37    46    44   am
    38    64    63    2
    39   112   111    2
    40    44    43    1
    41   109   110    1
    42    82    83    1
    43    63    62    1
    44    84    83    2
    45   111   110    1
    46   111   113   am
    47    61    62    1
    48    31    28    1
    49    83    85   am
    50    42    43    1
    51    42    39    1
    52    62    65    1
    53   113   114    1
    54   113   119    1
    55   114   115    1
    56   114   117    1
    57    35    34    2
    58    28    27    1
    59    28    29    1
    60   115   116    2
    61    39    38    1
    62    39    40    1
    63   119   118    1
    64    27    21   am
    65    65    66    1
    66    34    38   am
    67    34    33    1
    68    47    40   am
    69    47    48    1
    70    32    29   am
    71    32    33    1
    72    53    52   ar
    73    53    55   ar
    74    49    48    1
    75    49    50    2
    76   117   118    1
    77    29    30    2
    78    40    41    2
    79    51    48    1
    80    51    52    1
    81    21    22    2
    82    21    20    1
    83    67    66    2
    84    19    20    1
    85    52    54   ar
    86    33    36    1
    87    55    56   ar
    88    66    68   am
    89    20    23    1
    90    23    24    1
    91    37    36    1
    92    25    24    2
    93    54    56   ar
    94    54    57   ar
    95    56    58   ar
    96    24    26   am
    97    58    60   ar
    98    57    59   ar
    99    11     8    1
   100    11    12    1
   101     8     9    1
   102     8     7    1
   103     9    10    2
   104    60    59   ar
   105    13    12   ar
   106    13    15   ar
   107    12    14   ar
   108    15    17   ar
   109    14    16   ar
   110    17    16   ar
   111    17    18    1
   112     5     6    1
   113     5     2    1
   114     1     2    1
   115     2     3    1
   116     4     3    2
