@<TRIPOS>MOLECULE
tmp/3kahA01.pdb
 145 136 0 0 0
SMALL
GASTEIGER

@<TRIPOS>ATOM
      1  N         33.5550  -17.0420  -19.5950 N.3    41  HIS41      -0.1241
      2  CA        34.2170  -16.9040  -18.2980 C.3    41  HIS41       0.1621
      3  C         35.7080  -16.8120  -18.4550 C.2    41  HIS41       0.2264
      4  O         36.2250  -17.0440  -19.5290 O.2    41  HIS41      -0.2867
      5  CB        33.8270  -18.0270  -17.3010 C.3    41  HIS41       0.0745
      6  CG        34.5040  -19.3420  -17.5400 C.ar   41  HIS41       0.0817
      7  ND1       35.0180  -20.1140  -16.5280 N.ar   41  HIS41      -0.2268
      8  CD2       34.7660  -20.0210  -18.6840 C.ar   41  HIS41       0.1154
      9  CE1       35.5450  -21.2200  -17.0230 C.ar   41  HIS41       0.1986
     10  NE2       35.3930  -21.1920  -18.3310 N.ar   41  HIS41      -0.2212
     11  N         38.7700  -18.5000  -16.0440 N.3    43  LEU43      -0.1245
     12  CA        39.0650  -19.3990  -14.9100 C.3    43  LEU43       0.1561
     13  C         40.5390  -19.2780  -14.6280 C.2    43  LEU43       0.2260
     14  O         41.3420  -19.3430  -15.5670 O.2    43  LEU43      -0.2867
     15  CB        38.7800  -20.8520  -15.2740 C.3    43  LEU43       0.0270
     16  CG        39.2930  -22.0030  -14.3700 C.3    43  LEU43       0.0019
     17  CD1       38.6680  -22.0170  -13.0090 C.3    43  LEU43       0.0001
     18  CD2       38.9350  -23.2920  -15.0140 C.3    43  LEU43       0.0001
     19  N         42.9330  -21.4960  -12.4140 N.3    45  LYS45      -0.1245
     20  CA        43.0740  -22.6430  -11.5400 C.3    45  LYS45       0.1561
     21  C         44.1880  -22.4340  -10.5110 C.2    45  LYS45       0.2260
     22  O         45.0070  -21.5240  -10.6440 O.2    45  LYS45      -0.2867
     23  CB        43.3880  -23.9040  -12.3290 C.3    45  LYS45       0.0271
     24  CG        42.3170  -24.3900  -13.2750 C.3    45  LYS45       0.0035
     25  CD        42.8040  -25.6380  -14.0490 C.3    45  LYS45       0.0206
     26  CE        41.7200  -26.2120  -14.9860 C.3    45  LYS45       0.1093
     27  NZ        41.9030  -27.7050  -15.3930 N.3    45  LYS45      -0.1314
     28  N         41.3140  -30.3480  -11.5780 N.3    51  ARG51      -0.1245
     29  CA        42.2790  -30.8060  -12.5640 C.3    51  ARG51       0.1563
     30  C         43.4200  -29.7450  -12.6190 C.2    51  ARG51       0.2260
     31  O         43.3390  -28.8070  -13.4130 O.2    51  ARG51      -0.2867
     32  CB        41.5630  -31.0420  -13.9270 C.3    51  ARG51       0.0307
     33  CG        42.1480  -32.1500  -14.8140 C.3    51  ARG51       0.0489
     34  CD        41.5810  -32.1790  -16.2640 C.3    51  ARG51       0.2205
     35  NE        41.8460  -30.9540  -17.0520 N.pl3  51  ARG51      -0.0865
     36  CZ        42.9110  -30.7230  -17.8390 C.cat  51  ARG51       0.5346
     37  NH1       43.8770  -31.6300  -17.9820 N.pl3  51  ARG51       0.1354
     38  NH2       43.0130  -29.5640  -18.4890 N.pl3  51  ARG51       0.1354
     39  N         42.5950  -20.4370  -17.7840 N.3    94  ASP94      -0.1225
     40  CA        43.0610  -21.7990  -17.6030 C.3    94  ASP94       0.1805
     41  C         42.0180  -22.8050  -18.1090 C.2    94  ASP94       0.2598
     42  O         42.1670  -24.0220  -17.8870 O.2    94  ASP94      -0.2718
     43  CB        43.3260  -22.0750  -16.1260 C.3    94  ASP94       0.1424
     44  CG        44.7470  -21.6650  -15.6750 C.2    94  ASP94       0.3668
     45  OD1       45.7040  -21.9380  -16.4200 O.co2  94  ASP94      -0.2456
     46  OD2       44.9270  -21.0490  -14.5890 O.co2  94  ASP94      -0.2456
     47  N         40.9450  -22.3220  -18.7530 N.am   95  CYS95      -0.1956
     48  CA        39.9140  -23.2230  -19.3060 C.3    95  CYS95       0.1843
     49  C         40.1820  -23.4440  -20.7750 C.2    95  CYS95       0.2626
     50  O         40.5970  -22.5190  -21.4910 O.2    95  CYS95      -0.2714
     51  CB        38.4980  -22.6420  -19.1170 C.3    95  CYS95       0.0997
     52  SG        37.1650  -23.7020  -19.7530 S.3    95  CYS95      -0.0797
     53  N         39.9100  -24.6420  -21.2800 N.am   96  SER96      -0.1936
     54  CA        40.0630  -24.8450  -22.7400 C.3    96  SER96       0.2055
     55  C         39.1770  -23.9340  -23.5540 C.2    96  SER96       0.2643
     56  O         39.4230  -23.7930  -24.7480 O.2    96  SER96      -0.2714
     57  CB        39.8660  -26.2940  -23.1690 C.3    96  SER96       0.2130
     58  OG        38.8140  -26.9140  -22.4510 O.3    96  SER96      -0.2179
     59  N         38.1720  -23.3010  -22.9260 N.am   97  SER97      -0.1949
     60  CA        37.3270  -22.3270  -23.6280 C.3    97  SER97       0.1924
     61  C         38.0270  -20.9640  -23.9560 C.2    97  SER97       0.2314
     62  O         37.4740  -20.1540  -24.6830 O.2    97  SER97      -0.2863
     63  CB        35.9870  -22.1070  -22.8880 C.3    97  SER97       0.2116
     64  OG        36.1400  -21.3920  -21.6430 O.3    97  SER97      -0.2180
     65  N         40.2180  -20.5060  -26.0230 N.3    99  LYS99      -0.1231
     66  CA        40.2880  -20.4840  -27.4790 C.3    99  LYS99       0.1693
     67  C         38.9650  -20.0230  -28.1360 C.2    99  LYS99       0.2591
     68  O         38.9440  -19.6360  -29.2830 O.2    99  LYS99      -0.2718
     69  CB        40.8370  -21.8310  -28.0150 C.3    99  LYS99       0.0285
     70  CG        39.9790  -22.9790  -27.5820 C.3    99  LYS99       0.0035
     71  CD        40.3540  -24.3020  -28.2460 C.3    99  LYS99       0.0206
     72  CE        39.5510  -25.4830  -27.6210 C.3    99  LYS99       0.1093
     73  NZ        40.4400  -26.4580  -26.8770 N.3    99  LYS99      -0.1314
     74  N         37.8760  -20.0120  -27.3850 N.am  100  ALA100     -0.1980
     75  CA        36.6270  -19.3360  -27.7930 C.3   100  ALA100      0.1597
     76  C         36.4220  -17.9790  -27.0560 C.2   100  ALA100      0.2287
     77  O         35.3110  -17.5260  -26.8780 O.2   100  ALA100     -0.2864
     78  CB        35.4530  -20.2470  -27.5320 C.3   100  ALA100      0.0319
     79  N         33.9870  -18.0120  -24.3440 N.3   103  ASP103     -0.1225
     80  CA        32.5350  -18.3190  -24.5070 C.3   103  ASP103      0.1805
     81  C         32.2190  -19.7940  -24.2390 C.2   103  ASP103      0.2597
     82  O         32.9280  -20.6550  -24.7070 O.2   103  ASP103     -0.2718
     83  CB        32.0890  -17.8970  -25.9210 C.3   103  ASP103      0.1424
     84  CG        30.6150  -18.2490  -26.2510 C.2   103  ASP103      0.3668
     85  OD1       29.6990  -18.3070  -25.3940 O.co2 103  ASP103     -0.2456
     86  OD2       30.3670  -18.4500  -27.4460 O.co2 103  ASP103     -0.2456
     87  N         31.1460  -20.0940  -23.5090 N.am  104  LEU104     -0.1979
     88  CA        30.8130  -21.4970  -23.1530 C.3   104  LEU104      0.1596
     89  C         29.5720  -21.9030  -23.8830 C.2   104  LEU104      0.2287
     90  O         29.1190  -23.0320  -23.7610 O.2   104  LEU104     -0.2864
     91  CB        30.5360  -21.6520  -21.6440 C.3   104  LEU104      0.0297
     92  CG        31.7700  -21.5290  -20.7240 C.3   104  LEU104      0.0022
     93  CD1       31.3790  -21.2930  -19.2970 C.3   104  LEU104      0.0001
     94  CD2       32.6830  -22.7530  -20.8450 C.3   104  LEU104      0.0001
     95  N         26.3240  -27.0820  -15.3480 N.3   112  MET112     -0.1230
     96  CA        27.5610  -26.5860  -14.7220 C.3   112  MET112      0.1702
     97  C         27.5850  -26.7530  -13.1960 C.2   112  MET112      0.2592
     98  O         26.5510  -26.8550  -12.5440 O.2   112  MET112     -0.2718
     99  CB        27.8220  -25.1070  -15.0970 C.3   112  MET112      0.0401
    100  CG        27.7020  -24.7620  -16.6230 C.3   112  MET112      0.0596
    101  SD        29.0300  -25.4550  -17.6570 S.3   112  MET112     -0.1393
    102  CE        28.3290  -25.2500  -19.2890 C.3   112  MET112      0.0692
    103  N         28.7780  -26.7820  -12.6260 N.am  113  GLN113     -0.1979
    104  CA        28.9140  -26.7730  -11.1650 C.3   113  GLN113      0.1601
    105  C         28.0230  -25.7050  -10.5360 C.2   113  GLN113      0.2287
    106  O         27.9710  -24.5680  -11.0150 O.2   113  GLN113     -0.2864
    107  CB        30.3730  -26.5180  -10.8110 C.3   113  GLN113      0.0394
    108  CG        31.3590  -27.2290  -11.7750 C.3   113  GLN113      0.0908
    109  CD        32.5160  -27.8750  -11.0440 C.2   113  GLN113      0.2608
    110  OE1       32.3040  -28.5020   -9.9900 O.2   113  GLN113     -0.2717
    111  NE2       33.7480  -27.7350  -11.5860 N.am  113  GLN113     -0.0878
    112  N         28.8300  -21.9030  -10.1190 N.3   116  PHE116     -0.1241
    113  CA        28.9730  -21.2570  -11.4070 C.3   116  PHE116      0.1605
    114  C         27.5810  -20.9980  -12.0290 C.2   116  PHE116      0.2264
    115  O         27.3000  -19.8790  -12.5170 O.2   116  PHE116     -0.2867
    116  CB        29.8510  -22.1050  -12.3300 C.3   116  PHE116      0.0534
    117  CG        30.1650  -21.4290  -13.6300 C.ar  116  PHE116     -0.0203
    118  CD1       31.4140  -20.8300  -13.8340 C.ar  116  PHE116     -0.0042
    119  CD2       29.1920  -21.3100  -14.6270 C.ar  116  PHE116     -0.0042
    120  CE1       31.6920  -20.1430  -14.9860 C.ar  116  PHE116     -0.0003
    121  CE2       29.4670  -20.5910  -15.8010 C.ar  116  PHE116     -0.0003
    122  CZ        30.7250  -20.0270  -15.9740 C.ar  116  PHE116     -0.0000
    123  N         34.6820  -22.5210   -7.7980 N.3   134  THR134     -0.1218
    124  CA        34.1550  -23.8710   -8.0180 C.3   134  THR134      0.1862
    125  C         35.2860  -24.8550   -7.6880 C.2   134  THR134      0.2287
    126  O         36.3620  -24.4500   -7.2180 O.2   134  THR134     -0.2866
    127  CB        33.6270  -24.1100   -9.4350 C.3   134  THR134      0.1770
    128  OG1       34.7160  -24.1550  -10.3720 O.3   134  THR134     -0.2211
    129  CG2       32.5450  -23.0730   -9.8590 C.3   134  THR134      0.0375
    130  N         36.7510  -26.3480   -9.9950 N.3   136  SER136     -0.1217
    131  CA        37.7340  -26.1150  -11.0560 C.3   136  SER136      0.1889
    132  C         38.7450  -24.9920  -10.7210 C.2   136  SER136      0.2288
    133  O         39.8610  -24.9790  -11.2220 O.2   136  SER136     -0.2866
    134  CB        37.0590  -25.7420  -12.3730 C.3   136  SER136      0.2089
    135  OG        36.1190  -26.6950  -12.8330 O.3   136  SER136     -0.2183
    136  N         36.5130  -18.1680  -10.8760 N.3   139  HIS139     -0.1241
    137  CA        36.0860  -17.5930  -12.1570 C.3   139  HIS139      0.1621
    138  C         35.6760  -16.1580  -12.0750 C.2   139  HIS139      0.2264
    139  O         35.2240  -15.6820  -11.0430 O.2   139  HIS139     -0.2867
    140  CB        34.8290  -18.2810  -12.6990 C.3   139  HIS139      0.0745
    141  CG        34.8400  -19.7670  -12.5620 C.ar  139  HIS139      0.0817
    142  ND1       34.8900  -20.6090  -13.6490 N.ar  139  HIS139     -0.2268
    143  CD2       34.8640  -20.5640  -11.4630 C.ar  139  HIS139      0.1154
    144  CE1       34.8900  -21.8640  -13.2210 C.ar  139  HIS139      0.1986
    145  NE2       34.8990  -21.8570  -11.8980 N.ar  139  HIS139     -0.2212
@<TRIPOS>BOND
     1    68    67    2
     2    71    72    1
     3    71    70    1
     4    67    66    1
     5    67    74   am
     6    69    70    1
     7    69    66    1
     8    75    78    1
     9    75    74    1
    10    75    76    1
    11    72    73    1
    12    66    65    1
    13    86    84   ar
    14    76    77    2
    15    84    83    1
    16    84    85   ar
    17    83    80    1
    18    56    55    2
    19    82    81    2
    20    62    61    2
    21    80    79    1
    22    80    81    1
    23    81    87   am
    24    61    60    1
    25    89    90    2
    26    89    88    1
    27    60    59    1
    28    60    63    1
    29    55    59   am
    30    55    54    1
    31    87    88    1
    32    57    54    1
    33    57    58    1
    34    88    91    1
    35    63    64    1
    36    54    53    1
    37    91    92    1
    38    50    49    2
    39    53    49   am
    40    94    92    1
    41    49    48    1
    42    92    93    1
    43    52    51    1
    44     1     2    1
    45     4     3    2
    46    48    51    1
    47    48    47    1
    48   102   101    1
    49    47    41   am
    50     8    10   ar
    51     8     6   ar
    52    38    36    1
    53     3     2    1
    54    10     9   ar
    55     2     5    1
    56    41    42    2
    57    41    40    1
    58    37    36    1
    59    36    35    2
    60    39    40    1
    61   101   100    1
    62    40    43    1
    63     6     5    1
    64     6     7   ar
    65    35    34    1
    66     9     7   ar
    67   100    99    1
    68    45    44   ar
    69    34    33    1
    70    43    44    1
    71    11    12    1
    72   122   121   ar
    73   122   120   ar
    74   121   119   ar
    75    44    46   ar
    76    14    13    2
    77    27    26    1
    78    95    96    1
    79    15    12    1
    80    15    16    1
    81    99    96    1
    82    18    16    1
    83   120   118   ar
    84    26    25    1
    85    12    13    1
    86    33    32    1
    87    96    97    1
    88   119   117   ar
    89    16    17    1
    90    25    24    1
    91    32    29    1
    92   118   117   ar
    93   142   144   ar
    94   142   141   ar
    95   117   116    1
    96    31    30    2
    97    24    23    1
    98   144   145   ar
    99    97   103   am
   100    97    98    2
   101   135   134    1
   102   140   141    1
   103   140   137    1
   104   103   104    1
   105    30    29    1
   106    29    28    1
   107   141   143   ar
   108   115   114    2
   109    19    20    1
   110   134   131    1
   111   116   113    1
   112    23    20    1
   113   137   138    1
   114   137   136    1
   115   138   139    2
   116   114   113    1
   117   145   143   ar
   118   108   109    1
   119   108   107    1
   120   111   109   am
   121    20    21    1
   122   113   112    1
   123   133   132    2
   124   104   107    1
   125   104   105    1
   126   131   132    1
   127   131   130    1
   128   109   110    2
   129   106   105    2
   130    22    21    2
   131   128   127    1
   132   129   127    1
   133   127   124    1
   134   124   123    1
   135   124   125    1
   136   125   126    2
