@<TRIPOS>MOLECULE
tmp/3kaiA01.pdb
 145 136 0 0 0
SMALL
GASTEIGER

@<TRIPOS>ATOM
      1  N         32.4990  -22.0620    8.0020 N.3    41  HIS41      -0.1241
      2  CA        32.0500  -21.5430    9.2840 C.3    41  HIS41       0.1621
      3  C         31.3390  -20.2310    9.0470 C.2    41  HIS41       0.2264
      4  O         31.3910  -19.6020    7.9490 O.2    41  HIS41      -0.2867
      5  CB        33.2020  -21.4480   10.3140 C.3    41  HIS41       0.0745
      6  CG        34.1050  -20.2670   10.1050 C.ar   41  HIS41       0.0817
      7  ND1       34.5860  -19.4810   11.1330 N.ar   41  HIS41      -0.2268
      8  CD2       34.5150  -19.6680    8.9470 C.ar   41  HIS41       0.1154
      9  CE1       35.3290  -18.5080   10.6220 C.ar   41  HIS41       0.1986
     10  NE2       35.2770  -18.5860    9.2890 N.ar   41  HIS41      -0.2212
     11  N         31.2520  -16.8780   11.3700 N.3    43  LEU43      -0.1245
     12  CA        31.8060  -16.1730   12.5210 C.3    43  LEU43       0.1561
     13  C         30.9530  -14.9560   12.8940 C.2    43  LEU43       0.2260
     14  O         30.6340  -14.1310   12.0350 O.2    43  LEU43      -0.2867
     15  CB        33.2870  -15.7040   12.1770 C.3    43  LEU43       0.0270
     16  CG        34.0600  -14.8660   13.2710 C.3    43  LEU43       0.0019
     17  CD1       34.2900  -15.5660   14.6420 C.3    43  LEU43       0.0001
     18  CD2       35.4600  -14.4680   12.6800 C.3    43  LEU43       0.0001
     19  N         31.6100  -11.8030   15.3030 N.3    45  LYS45      -0.1245
     20  CA        32.6270  -11.2000   16.1850 C.3    45  LYS45       0.1561
     21  C         31.9600  -10.4000   17.3150 C.2    45  LYS45       0.2260
     22  O         30.7640  -10.0640   17.2060 O.2    45  LYS45      -0.2867
     23  CB        33.5510  -10.3290   15.3460 C.3    45  LYS45       0.0271
     24  CG        34.5760  -11.1210   14.5690 C.3    45  LYS45       0.0035
     25  CD        35.6160  -10.1180   13.9440 C.3    45  LYS45       0.0206
     26  CE        36.5020  -10.8640   13.0260 C.3    45  LYS45       0.1093
     27  NZ        37.7720  -10.1870   12.5970 N.3    45  LYS45      -0.1314
     28  N         40.4450   -9.1620   16.6190 N.3    51  ARG51      -0.1245
     29  CA        40.2970   -7.9870   15.7060 C.3    51  ARG51       0.1563
     30  C         38.8430   -7.6150   15.5690 C.2    51  ARG51       0.2260
     31  O         38.1630   -8.1600   14.6730 O.2    51  ARG51      -0.2867
     32  CB        40.7310   -8.2680   14.2660 C.3    51  ARG51       0.0307
     33  CG        42.1800   -8.7220   13.9700 C.3    51  ARG51       0.0489
     34  CD        42.5130   -8.4470   12.4010 C.3    51  ARG51       0.2205
     35  NE        41.4700   -8.8870   11.4190 N.pl3  51  ARG51      -0.0865
     36  CZ        40.5470   -8.0990   10.8130 C.cat  51  ARG51       0.5346
     37  NH1       40.5120   -6.7900   11.0620 N.pl3  51  ARG51       0.1354
     38  NH2       39.6280   -8.6210    9.9630 N.pl3  51  ARG51       0.1354
     39  N         31.3670  -12.5180    9.9650 N.3    94  ASP94      -0.1225
     40  CA        32.3650  -11.4290   10.1190 C.3    94  ASP94       0.1805
     41  C         33.7190  -11.9360    9.6730 C.2    94  ASP94       0.2598
     42  O         34.7270  -11.4090   10.0670 O.2    94  ASP94      -0.2718
     43  CB        32.4220  -10.9770   11.5820 C.3    94  ASP94       0.1424
     44  CG        31.2760  -10.0770   11.9670 C.2    94  ASP94       0.3668
     45  OD1       31.0260   -9.1140   11.2300 O.co2  94  ASP94      -0.2456
     46  OD2       30.6360  -10.3010   13.0150 O.co2  94  ASP94      -0.2456
     47  N         33.7560  -12.9830    8.8580 N.am   95  CYS95      -0.1956
     48  CA        35.0370  -13.4830    8.3560 C.3    95  CYS95       0.1843
     49  C         35.0970  -13.2210    6.8490 C.2    95  CYS95       0.2626
     50  O         34.0700  -13.2230    6.2260 O.2    95  CYS95      -0.2714
     51  CB        35.1050  -14.9650    8.6230 C.3    95  CYS95       0.0997
     52  SG        36.5620  -15.8140    7.9380 S.3    95  CYS95      -0.0797
     53  N         36.2810  -12.9670    6.2810 N.am   96  SER96      -0.1936
     54  CA        36.4310  -12.7330    4.8500 C.3    96  SER96       0.2055
     55  C         35.9880  -13.9840    4.0320 C.2    96  SER96       0.2643
     56  O         35.6610  -13.8820    2.8160 O.2    96  SER96      -0.2714
     57  CB        37.8910  -12.3430    4.5410 C.3    96  SER96       0.2130
     58  OG        38.8290  -13.2560    5.1640 O.3    96  SER96      -0.2179
     59  N         35.9310  -15.1520    4.6960 N.am   97  SER97      -0.1949
     60  CA        35.4950  -16.3880    4.0100 C.3    97  SER97       0.1924
     61  C         34.0180  -16.3430    3.7200 C.2    97  SER97       0.2314
     62  O         33.5640  -17.1930    3.0090 O.2    97  SER97      -0.2863
     63  CB        35.7970  -17.6060    4.8340 C.3    97  SER97       0.2116
     64  OG        35.1320  -17.4280    6.0650 O.3    97  SER97      -0.2180
     65  N         32.6110  -14.5470    1.6050 N.3    99  LYS99      -0.1231
     66  CA        32.5830  -14.4410    0.1240 C.3    99  LYS99       0.1693
     67  C         32.6130  -15.8170   -0.5260 C.2    99  LYS99       0.2591
     68  O         32.2390  -15.9590   -1.6960 O.2    99  LYS99      -0.2718
     69  CB        33.8810  -13.7560   -0.3970 C.3    99  LYS99       0.0285
     70  CG        34.0200  -12.3070    0.0020 C.3    99  LYS99       0.0035
     71  CD        32.7970  -11.5410   -0.4280 C.3    99  LYS99       0.0206
     72  CE        33.1270  -10.1160   -1.0510 C.3    99  LYS99       0.1093
     73  NZ        33.4580   -9.1490    0.0600 N.3    99  LYS99      -0.1314
     74  N         33.2160  -16.7720    0.1750 N.am  100  ALA100     -0.1980
     75  CA        33.2150  -18.1470   -0.2750 C.3   100  ALA100      0.1597
     76  C         32.1900  -19.0440    0.4450 C.2   100  ALA100      0.2287
     77  O         32.4950  -20.2240    0.6270 O.2   100  ALA100     -0.2864
     78  CB        34.5730  -18.7170   -0.1050 C.3   100  ALA100      0.0319
     79  N         33.4440  -21.2520    3.3990 N.3   103  ASP103     -0.1225
     80  CA        34.4260  -22.3440    3.1810 C.3   103  ASP103      0.1805
     81  C         35.8890  -21.9520    3.4690 C.2   103  ASP103      0.2597
     82  O         36.3740  -21.0050    2.9050 O.2   103  ASP103     -0.2718
     83  CB        34.2920  -22.9110    1.7380 C.3   103  ASP103      0.1424
     84  CG        35.3160  -23.9850    1.4440 C.2   103  ASP103      0.3668
     85  OD1       35.6170  -24.8370    2.2990 O.co2 103  ASP103     -0.2456
     86  OD2       35.8540  -23.9730    0.3010 O.co2 103  ASP103     -0.2456
     87  N         36.5540  -22.7090    4.3540 N.am  104  LEU104     -0.1979
     88  CA        37.9540  -22.4430    4.7520 C.3   104  LEU104      0.1596
     89  C         38.9020  -23.3790    4.0030 C.2   104  LEU104      0.2287
     90  O         40.0990  -23.2510    4.1340 O.2   104  LEU104     -0.2864
     91  CB        38.1710  -22.6100    6.2940 C.3   104  LEU104      0.0297
     92  CG        37.3020  -21.6910    7.1670 C.3   104  LEU104      0.0022
     93  CD1       37.4520  -21.9870    8.6710 C.3   104  LEU104      0.0001
     94  CD2       37.6010  -20.1880    6.8790 C.3   104  LEU104      0.0001
     95  N         44.7780  -24.2830   13.1370 N.3   112  MET112     -0.1230
     96  CA        43.6940  -23.3560   13.4970 C.3   112  MET112      0.1702
     97  C         43.7940  -23.1050   15.0040 C.2   112  MET112      0.2592
     98  O         44.4220  -23.8790   15.6770 O.2   112  MET112     -0.2718
     99  CB        42.2990  -23.9930   13.1370 C.3   112  MET112      0.0401
    100  CG        41.9930  -24.2550   11.6200 C.3   112  MET112      0.0596
    101  SD        42.0410  -22.7400   10.5730 S.3   112  MET112     -0.1393
    102  CE        41.9730  -23.2640    8.8290 C.3   112  MET112      0.0692
    103  N         43.1470  -22.0830   15.5620 N.am  113  GLN113     -0.1979
    104  CA        43.0350  -22.0820   17.0340 C.3   113  GLN113      0.1601
    105  C         42.4460  -23.4040   17.5480 C.2   113  GLN113      0.2287
    106  O         41.5700  -23.9910   16.9300 O.2   113  GLN113     -0.2864
    107  CB        42.1400  -20.9560   17.5550 C.3   113  GLN113      0.0394
    108  CG        42.3150  -19.5970   16.8820 C.3   113  GLN113      0.0908
    109  CD        41.8430  -18.4210   17.7750 C.2   113  GLN113      0.2608
    110  OE1       41.7200  -18.5700   19.0410 O.2   113  GLN113     -0.2717
    111  NE2       41.5740  -17.2600   17.1380 N.am  113  GLN113     -0.0878
    112  N         38.5210  -24.3400   17.7270 N.3   116  PHE116     -0.1241
    113  CA        38.0580  -24.4860   16.3590 C.3   116  PHE116      0.1605
    114  C         38.5230  -25.8290   15.8050 C.2   116  PHE116      0.2264
    115  O         37.7120  -26.6070   15.2640 O.2   116  PHE116     -0.2867
    116  CB        38.5390  -23.3190   15.4850 C.3   116  PHE116      0.0534
    117  CG        37.8770  -23.2930   14.1320 C.ar  116  PHE116     -0.0203
    118  CD1       36.7980  -22.4340   13.8860 C.ar  116  PHE116     -0.0042
    119  CD2       38.2680  -24.1810   13.1270 C.ar  116  PHE116     -0.0042
    120  CE1       36.1610  -22.4140   12.5870 C.ar  116  PHE116     -0.0003
    121  CE2       37.5950  -24.1720   11.8730 C.ar  116  PHE116     -0.0003
    122  CZ        36.5350  -23.2980   11.6430 C.ar  116  PHE116     -0.0000
    123  N         36.3040  -18.7920   20.1300 N.3   134  THR134     -0.1218
    124  CA        37.7540  -18.7070   20.0110 C.3   134  THR134      0.1862
    125  C         38.1110  -17.2540   20.3710 C.2   134  THR134      0.2287
    126  O         37.1910  -16.4030   20.4990 O.2   134  THR134     -0.2866
    127  CB        38.2030  -18.9150   18.5610 C.3   134  THR134      0.1770
    128  OG1       37.6830  -17.8350   17.7760 O.3   134  THR134     -0.2211
    129  CG2       37.7370  -20.3030   17.9520 C.3   134  THR134      0.0375
    130  N         38.7750  -15.1260   18.2490 N.3   136  SER136     -0.1217
    131  CA        38.1670  -14.3380   17.1620 C.3   136  SER136      0.1889
    132  C         36.7080  -14.0260   17.3170 C.2   136  SER136      0.2288
    133  O         36.2440  -13.0490   16.7490 O.2   136  SER136     -0.2866
    134  CB        38.2840  -15.0980   15.8480 C.3   136  SER136      0.2089
    135  OG        39.6490  -15.1300   15.5460 O.3   136  SER136     -0.2183
    136  N         31.7970  -19.1170   16.5840 N.3   139  HIS139     -0.1241
    137  CA        31.7390  -19.7850   15.2440 C.3   139  HIS139      0.1621
    138  C         30.5840  -20.8510   15.2340 C.2   139  HIS139      0.2264
    139  O         30.2470  -21.3880   16.2650 O.2   139  HIS139     -0.2867
    140  CB        33.0310  -20.5420   14.9260 C.3   139  HIS139      0.0745
    141  CG        34.2720  -19.7230   15.0380 C.ar  139  HIS139      0.0817
    142  ND1       35.0080  -19.3420   13.9300 N.ar  139  HIS139     -0.2268
    143  CD2       34.9770  -19.3020   16.1240 C.ar  139  HIS139      0.1154
    144  CE1       36.0830  -18.6770   14.3190 C.ar  139  HIS139      0.1986
    145  NE2       36.1080  -18.6640   15.6460 N.ar  139  HIS139     -0.2212
@<TRIPOS>BOND
     1    68    67    2
     2    72    71    1
     3    72    73    1
     4    67    66    1
     5    67    74   am
     6    71    70    1
     7    69    70    1
     8    69    66    1
     9    75    78    1
    10    75    74    1
    11    75    76    1
    12    66    65    1
    13    86    84   ar
    14    76    77    2
    15    84    83    1
    16    84    85   ar
    17    83    80    1
    18    56    55    2
    19    82    81    2
    20    62    61    2
    21    80    79    1
    22    80    81    1
    23    81    87   am
    24    61    60    1
    25    89    90    2
    26    89    88    1
    27    60    59    1
    28    60    63    1
    29    55    59   am
    30    55    54    1
    31    87    88    1
    32    57    54    1
    33    57    58    1
    34    88    91    1
    35    63    64    1
    36    54    53    1
    37    50    49    2
    38    53    49   am
    39    91    92    1
    40    49    48    1
    41    94    92    1
    42    92    93    1
    43    52    51    1
    44     4     3    2
    45     1     2    1
    46    48    51    1
    47    48    47    1
    48   102   101    1
    49    47    41   am
    50     8    10   ar
    51     8     6   ar
    52     3     2    1
    53     2     5    1
    54    10     9   ar
    55    41    42    2
    56    41    40    1
    57    38    36    1
    58    39    40    1
    59     6     5    1
    60     6     7   ar
    61    40    43    1
    62   101   100    1
    63     9     7   ar
    64    36    37    1
    65    36    35    2
    66    45    44   ar
    67    11    12    1
    68    35    34    1
    69    43    44    1
    70   100    99    1
    71   122   121   ar
    72   122   120   ar
    73   121   119   ar
    74    44    46   ar
    75    14    13    2
    76    15    12    1
    77    15    16    1
    78    34    33    1
    79    12    13    1
    80   120   118   ar
    81    27    26    1
    82    18    16    1
    83    26    25    1
    84   119   117   ar
    85    95    96    1
    86    99    96    1
    87    16    17    1
    88    96    97    1
    89   118   117   ar
    90   142   144   ar
    91   142   141   ar
    92    25    24    1
    93    33    32    1
    94   117   116    1
    95    32    29    1
    96   144   145   ar
    97    24    23    1
    98    31    30    2
    99   140   141    1
   100   140   137    1
   101    97   103   am
   102    97    98    2
   103   141   143   ar
   104   138   137    1
   105   138   139    2
   106   137   136    1
   107   115   114    2
   108    19    20    1
   109    23    20    1
   110   116   113    1
   111   135   134    1
   112   103   104    1
   113    30    29    1
   114   145   143   ar
   115    29    28    1
   116   114   113    1
   117   134   131    1
   118    20    21    1
   119   113   112    1
   120   133   132    2
   121   108   107    1
   122   108   109    1
   123   106   105    2
   124   104   105    1
   125   104   107    1
   126   111   109   am
   127   131   132    1
   128   131   130    1
   129    22    21    2
   130   109   110    2
   131   128   127    1
   132   129   127    1
   133   127   124    1
   134   124   123    1
   135   124   125    1
   136   125   126    2
