@<TRIPOS>MOLECULE
tmp/3kakB01.pdb
 105 102 0 0 0
SMALL
GASTEIGER

@<TRIPOS>ATOM
      1  N         19.3600    4.0740   85.5330 N.3    61  TRP61      -0.1227
      2  CA        20.0530    4.2280   84.2480 C.3    61  TRP61       0.1737
      3  C         21.1120    5.3440   84.3100 C.2    61  TRP61       0.2595
      4  O         22.2920    5.0940   84.1180 O.2    61  TRP61      -0.2718
      5  CB        19.0300    4.4520   83.1260 C.3    61  TRP61       0.0564
      6  CG        19.6690    4.3150   81.7310 C.ar   61  TRP61       0.0003
      7  CD1       19.9760    5.3320   80.8550 C.ar   61  TRP61       0.0946
      8  CD2       20.0980    3.1160   81.1290 C.ar   61  TRP61       0.0152
      9  NE1       20.5690    4.8120   79.7070 N.ar   61  TRP61      -0.2442
     10  CE2       20.6540    3.4520   79.8510 C.ar   61  TRP61       0.0810
     11  CE3       20.0370    1.7570   81.5160 C.ar   61  TRP61       0.0012
     12  CZ2       21.1650    2.4750   78.9680 C.ar   61  TRP61       0.0191
     13  CZ3       20.5320    0.7770   80.6470 C.ar   61  TRP61       0.0001
     14  CH2       21.0630    1.1490   79.3480 C.ar   61  TRP61       0.0015
     15  N         20.6960    6.5820   84.5570 N.am   62  LYS62      -0.1980
     16  CA        21.6120    7.6680   84.7490 C.3    62  LYS62       0.1596
     17  C         22.7550    7.3580   85.7390 C.2    62  LYS62       0.2287
     18  O         23.9160    7.7670   85.5280 O.2    62  LYS62      -0.2864
     19  CB        20.8310    8.9340   85.1220 C.3    62  LYS62       0.0298
     20  CG        19.9750    9.5250   83.8970 C.3    62  LYS62       0.0038
     21  CD        19.1340   10.8250   84.2350 C.3    62  LYS62       0.0206
     22  CE        18.4480   11.4800   82.9900 C.3    62  LYS62       0.1093
     23  NZ        17.2090   10.7880   82.4450 N.3    62  LYS62      -0.1314
     24  N         25.2290    5.2960   84.0000 N.3    65  CYS65      -0.1235
     25  CA        25.9290    6.0710   82.9420 C.3    65  CYS65       0.1677
     26  C         27.0480    6.9620   83.5680 C.2    65  CYS65       0.2270
     27  O         28.1720    7.1930   83.0140 O.2    65  CYS65      -0.2867
     28  CB        24.9290    6.9510   82.2300 C.3    65  CYS65       0.0956
     29  SG        23.8960    6.0290   81.0320 S.3    65  CYS65      -0.0801
     30  N         12.9770    0.8200   69.0570 N.3   157  LYS157     -0.1245
     31  CA        12.3750    2.1210   68.6780 C.3   157  LYS157      0.1561
     32  C         11.3780    1.9480   67.4870 C.2   157  LYS157      0.2260
     33  O         10.2550    2.4720   67.4790 O.2   157  LYS157     -0.2867
     34  CB        13.4750    3.1430   68.3230 C.3   157  LYS157      0.0271
     35  CG        14.2470    3.5860   69.5610 C.3   157  LYS157      0.0035
     36  CD        15.1280    4.7900   69.2960 C.3   157  LYS157      0.0206
     37  CE        15.6750    5.3330   70.7190 C.3   157  LYS157      0.1093
     38  NZ        14.8090    6.4040   71.2040 N.3   157  LYS157     -0.1314
     39  N         10.5340    6.8370   72.3990 N.3   172  ASN172     -0.1225
     40  CA        11.1610    7.8500   73.2300 C.3   172  ASN172      0.1785
     41  C         11.9770    7.3200   74.3680 C.2   172  ASN172      0.2597
     42  O         12.9350    7.9650   74.7680 O.2   172  ASN172     -0.2718
     43  CB        10.0230    8.5730   74.0370 C.3   172  ASN172      0.1169
     44  CG        10.0910   10.0140   73.9910 C.2   172  ASN172      0.2627
     45  OD1       10.2050   10.6070   72.9410 O.2   172  ASN172     -0.2716
     46  ND2        9.8930   10.6190   75.1060 N.am  172  ASN172     -0.0877
     47  N         11.4450    6.2870   74.9940 N.am  173  ARG173     -0.1966
     48  CA        11.8150    5.8790   76.3890 C.3   173  ARG173      0.1729
     49  C         12.7910    4.7820   76.3070 C.2   173  ARG173      0.2616
     50  O         13.3500    4.3490   77.3310 O.2   173  ARG173     -0.2715
     51  CB        10.5890    5.4940   77.2100 C.3   173  ARG173      0.0348
     52  CG         9.5400    6.6290   77.2690 C.3   173  ARG173      0.0492
     53  CD         9.5040    7.3510   78.6210 C.3   173  ARG173      0.2205
     54  NE        10.8450    7.8360   78.9750 N.pl3 173  ARG173     -0.0865
     55  CZ        11.2960    8.1690   80.1920 C.cat 173  ARG173      0.5346
     56  NH1       10.5500    8.0980   81.3050 N.pl3 173  ARG173      0.1354
     57  NH2       12.5630    8.5750   80.2870 N.pl3 173  ARG173      0.1354
     58  N         13.0490    4.3320   75.0780 N.am  174  VAL174     -0.1964
     59  CA        14.2440    3.4860   74.9230 C.3   174  VAL174      0.1712
     60  C         15.4340    4.4070   74.7040 C.2   174  VAL174      0.2458
     61  O         15.3830    5.1690   73.7700 O.2   174  VAL174     -0.2730
     62  CB        14.1190    2.1870   73.9850 C.3   174  VAL174      0.0289
     63  CG1       12.8750    2.1020   73.1590 C.3   174  VAL174      0.0023
     64  CG2       15.3680    1.8510   73.2450 C.3   174  VAL174      0.0023
     65  N         16.4700    4.3390   75.5940 N.am  175  PRO175     -0.2716
     66  CA        17.6450    5.2330   75.6050 C.3   175  PRO175      0.1536
     67  C         18.4360    5.1270   74.2350 C.2   175  PRO175      0.2598
     68  O         18.6370    4.0220   73.6770 O.2   175  PRO175     -0.2715
     69  CB        18.4920    4.7480   76.7910 C.3   175  PRO175      0.0310
     70  CG        17.6530    3.6950   77.5100 C.3   175  PRO175      0.0237
     71  CD        16.5950    3.2220   76.5910 C.3   175  PRO175      0.0939
     72  N         18.6930    6.3050   73.6430 N.am  176  ALA176     -0.1978
     73  CA        19.5660    6.4730   72.4700 C.3   176  ALA176      0.1597
     74  C         20.9160    5.7840   72.6980 C.2   176  ALA176      0.2287
     75  O         21.4180    5.8050   73.7690 O.2   176  ALA176     -0.2864
     76  CB        19.7600    8.0440   72.1500 C.3   176  ALA176      0.0319
     77  N         31.2170    7.4060   78.8920 N.3   407  GLU407     -0.1245
     78  CA        30.1420    6.4700   78.7550 C.3   407  GLU407      0.1567
     79  C         29.8060    6.3000   77.2460 C.2   407  GLU407      0.2260
     80  O         29.6730    7.2730   76.5300 O.2   407  GLU407     -0.2867
     81  CB        28.9370    7.0100   79.5250 C.3   407  GLU407      0.0388
     82  CG        27.6180    6.2030   79.2310 C.3   407  GLU407      0.1160
     83  CD        26.7830    6.9010   78.1850 C.2   407  GLU407      0.3649
     84  OE1       26.5610    8.1950   78.3810 O.co2 407  GLU407     -0.2457
     85  OE2       26.4280    6.1970   77.1520 O.co2 407  GLU407     -0.2457
     86  N         25.3210    1.0920   75.2040 N.3   410  TYR410     -0.1241
     87  CA        24.9940   -0.0590   76.0570 C.3   410  TYR410      0.1605
     88  C         24.6260   -1.2220   75.2340 C.2   410  TYR410      0.2264
     89  O         24.4720   -1.1310   73.9670 O.2   410  TYR410     -0.2867
     90  CB        23.8160    0.2620   77.0590 C.3   410  TYR410      0.0534
     91  CG        22.5070    0.6260   76.3460 C.ar  410  TYR410     -0.0201
     92  CD1       21.4900   -0.3150   76.1390 C.ar  410  TYR410     -0.0009
     93  CD2       22.3110    1.9550   75.8350 C.ar  410  TYR410     -0.0009
     94  CE1       20.2960    0.0580   75.5050 C.ar  410  TYR410      0.0417
     95  CE2       21.1550    2.3050   75.1910 C.ar  410  TYR410      0.0417
     96  CZ        20.1660    1.3750   75.0080 C.ar  410  TYR410      0.1957
     97  OH        19.0210    1.7710   74.3360 O.3   410  TYR410     -0.2866
     98  N         12.6700    3.0710   79.9350 N.3   436  LEU436     -0.1245
     99  CA        12.9450    3.7950   81.1690 C.3   436  LEU436      0.1561
    100  C         11.7130    4.1540   81.9640 C.2   436  LEU436      0.2260
    101  O         10.7640    4.7220   81.4710 O.2   436  LEU436     -0.2867
    102  CB        13.8370    5.0310   80.9770 C.3   436  LEU436      0.0270
    103  CG        15.2540    4.6930   80.4430 C.3   436  LEU436      0.0019
    104  CD1       16.1310    5.9540   80.1000 C.3   436  LEU436      0.0001
    105  CD2       15.9430    3.7670   81.4830 C.3   436  LEU436      0.0001
@<TRIPOS>BOND
     1    33    32    2
     2    32    31    1
     3    34    31    1
     4    34    35    1
     5    31    30    1
     6    36    35    1
     7    36    37    1
     8    37    38    1
     9    76    73    1
    10    39    40    1
    11    73    74    1
    12    73    72    1
    13    74    75    2
    14    45    44    2
    15    63    62    1
    16    40    43    1
    17    40    41    1
    18    64    62    1
    19    72    67   am
    20    68    67    2
    21    61    60    2
    22    89    88    2
    23    62    59    1
    24    44    43    1
    25    44    46   am
    26    67    66    1
    27    97    96    1
    28    41    42    2
    29    41    47   am
    30    60    59    1
    31    60    65   am
    32    59    58    1
    33    47    48    1
    34    96    95   ar
    35    96    94   ar
    36    58    49   am
    37    95    93   ar
    38    86    87    1
    39    88    87    1
    40    94    92   ar
    41    65    66    1
    42    65    71    1
    43    66    69    1
    44    93    91   ar
    45    87    90    1
    46    92    91   ar
    47    49    48    1
    48    49    50    2
    49    91    90    1
    50    48    51    1
    51    80    79    2
    52    71    70    1
    53    69    70    1
    54    85    83   ar
    55    51    52    1
    56    79    78    1
    57    52    53    1
    58    83    84   ar
    59    83    82    1
    60    53    54    1
    61    78    77    1
    62    78    81    1
    63    12    14   ar
    64    12    10   ar
    65    54    55    2
    66    82    81    1
    67    14    13   ar
    68     9    10   ar
    69     9     7   ar
    70    10     8   ar
    71    98    99    1
    72   104   103    1
    73    55    57    1
    74    55    56    1
    75   103   102    1
    76   103   105    1
    77    13    11   ar
    78     7     6   ar
    79   102    99    1
    80    29    28    1
    81     8    11   ar
    82     8     6   ar
    83    99   100    1
    84   101   100    2
    85     6     5    1
    86    28    25    1
    87    23    22    1
    88    25    26    1
    89    25    24    1
    90    22    21    1
    91    27    26    2
    92     5     2    1
    93    20    21    1
    94    20    19    1
    95     4     3    2
    96     2     3    1
    97     2     1    1
    98     3    15   am
    99    15    16    1
   100    16    19    1
   101    16    17    1
   102    18    17    2
