@<TRIPOS>MOLECULE
tmp/3kakA00.pdb
 117 110 0 0 0
SMALL
GASTEIGER

@<TRIPOS>ATOM
      1  N         10.6770   -1.9440   33.6360 N.3   121  ARG121     -0.1245
      2  CA        12.0290   -2.2080   33.3390 C.3   121  ARG121      0.1563
      3  C         12.2910   -2.6860   31.9180 C.2   121  ARG121      0.2260
      4  O         11.6570   -3.5700   31.4940 O.2   121  ARG121     -0.2867
      5  CB        12.6570   -3.1760   34.3530 C.3   121  ARG121      0.0307
      6  CG        14.2090   -3.1100   34.2980 C.3   121  ARG121      0.0489
      7  CD        14.8100   -4.1880   35.1600 C.3   121  ARG121      0.2205
      8  NE        14.4880   -5.4690   34.5060 N.pl3 121  ARG121     -0.0865
      9  CZ        14.1440   -6.5940   35.1410 C.cat 121  ARG121      0.5346
     10  NH1       14.0660   -6.6530   36.5030 N.pl3 121  ARG121      0.1354
     11  NH2       13.8440   -7.6730   34.4020 N.pl3 121  ARG121      0.1354
     12  N          9.7630   -5.0220   30.8320 N.3   139  ASN139     -0.1240
     13  CA         8.9520   -5.5350   31.9250 C.3   139  ASN139      0.1653
     14  C          7.9810   -4.4630   32.4500 C.2   139  ASN139      0.2266
     15  O          8.4120   -3.4740   33.0750 O.2   139  ASN139     -0.2867
     16  CB         9.8390   -6.1840   33.0070 C.3   139  ASN139      0.1155
     17  CG        10.8240   -7.1810   32.3970 C.2   139  ASN139      0.2627
     18  OD1       10.4390   -8.2880   31.9570 O.2   139  ASN139     -0.2716
     19  ND2       12.0700   -6.7720   32.2850 N.am  139  ASN139     -0.0877
     20  N          5.4070   -4.9680   34.6630 N.3   141  ILE141     -0.1231
     21  CA         4.7000   -5.4220   35.8520 C.3   141  ILE141      0.1692
     22  C          5.6590   -6.1380   36.7710 C.2   141  ILE141      0.2593
     23  O          6.5540   -6.8320   36.3260 O.2   141  ILE141     -0.2718
     24  CB         3.3900   -6.2010   35.5720 C.3   141  ILE141      0.0266
     25  CG1        2.6180   -6.4270   36.8850 C.3   141  ILE141      0.0019
     26  CG2        3.6710   -7.6040   34.8760 C.3   141  ILE141      0.0020
     27  CD1        1.0450   -6.5410   36.6650 C.3   141  ILE141      0.0001
     28  N          5.5500   -5.8570   38.0650 N.am  142  SER142     -0.1938
     29  CA         6.3390   -6.5090   39.0950 C.3   142  SER142      0.2055
     30  C          7.8460   -6.6840   38.7820 C.2   142  SER142      0.2644
     31  O          8.3870   -7.7820   38.8210 O.2   142  SER142     -0.2714
     32  CB         5.6490   -7.8100   39.5060 C.3   142  SER142      0.2130
     33  OG         6.4830   -8.5710   40.3740 O.3   142  SER142     -0.2179
     34  N          8.5380   -5.5860   38.4870 N.am  143  THR143     -0.1936
     35  CA         9.9520   -5.6870   38.2320 C.3   143  THR143      0.2028
     36  C         10.7890   -5.7650   39.5090 C.2   143  THR143      0.2643
     37  O         10.8270   -4.8350   40.3210 O.2   143  THR143     -0.2714
     38  CB        10.4670   -4.4960   37.4350 C.3   143  THR143      0.1808
     39  OG1       10.1200   -3.3220   38.1540 O.3   143  THR143     -0.2208
     40  CG2        9.8050   -4.4530   36.0630 C.3   143  THR143      0.0379
     41  N         11.4860   -6.8730   39.6500 N.am  144  SER144     -0.1935
     42  CA        12.4530   -7.0480   40.7130 C.3   144  SER144      0.2055
     43  C         13.7590   -6.3900   40.4960 C.2   144  SER144      0.2643
     44  O         14.0740   -5.9290   39.3570 O.2   144  SER144     -0.2714
     45  CB        12.7380   -8.5440   40.8820 C.3   144  SER144      0.2130
     46  OG        11.4730   -9.1580   40.9730 O.3   144  SER144     -0.2179
     47  N         14.5330   -6.3820   41.6020 N.am  145  PHE145     -0.1973
     48  CA        15.9480   -6.0300   41.6080 C.3   145  PHE145      0.1639
     49  C         16.2690   -4.5420   41.5320 C.2   145  PHE145      0.2290
     50  O         17.3730   -4.1780   41.0480 O.2   145  PHE145     -0.2864
     51  CB        16.7920   -6.8920   40.6150 C.3   145  PHE145      0.0560
     52  CG        16.7860   -8.4180   40.9190 C.ar  145  PHE145     -0.0200
     53  CD1       16.4580   -8.9000   42.2080 C.ar  145  PHE145     -0.0042
     54  CD2       17.1040   -9.3320   39.9440 C.ar  145  PHE145     -0.0042
     55  CE1       16.4270  -10.2690   42.5280 C.ar  145  PHE145     -0.0003
     56  CE2       17.0830  -10.7510   40.2370 C.ar  145  PHE145     -0.0003
     57  CZ        16.7220  -11.2180   41.5500 C.ar  145  PHE145     -0.0000
     58  N          4.0680  -12.9150   46.5850 N.3   206  GLN206     -0.1245
     59  CA         3.9140  -14.3300   46.3170 C.3   206  GLN206      0.1566
     60  C          3.8950  -15.0130   47.6000 C.2   206  GLN206      0.2260
     61  O          4.4440  -14.5240   48.5750 O.2   206  GLN206     -0.2867
     62  CB         5.0640  -14.8610   45.4330 C.3   206  GLN206      0.0367
     63  CG         4.9210  -14.2760   44.0000 C.3   206  GLN206      0.0905
     64  CD         5.9820  -14.7890   42.9910 C.2   206  GLN206      0.2608
     65  OE1        5.7080  -14.9020   41.7920 O.2   206  GLN206     -0.2717
     66  NE2        7.1820  -15.0790   43.4750 N.am  206  GLN206     -0.0878
     67  N          8.3260  -16.1390   49.0030 N.3   209  GLU209     -0.1301
     68  CA         9.1970  -14.9840   48.6060 C.3   209  GLU209      0.1252
     69  C         10.5980  -14.9110   49.2770 C.3   209  GLU209      0.2009
     70  O         10.8060  -14.2540   50.3680 O.3   209  GLU209     -0.2188
     71  CB         8.3680  -13.7030   48.7060 C.3   209  GLU209      0.0335
     72  CG         8.9220  -12.4390   47.9990 C.3   209  GLU209      0.1156
     73  CD         9.3480  -12.7030   46.5610 C.2   209  GLU209      0.3649
     74  OE1        8.4750  -12.5400   45.6880 O.co2 209  GLU209     -0.2457
     75  OE2       10.5110  -13.1120   46.3200 O.co2 209  GLU209     -0.2457
     76  N         13.0570  -13.5000   47.9170 N.3   211  ASN211     -0.1240
     77  CA        13.4810  -12.1050   47.7360 C.3   211  ASN211      0.1653
     78  C         12.6010  -11.1170   48.5520 C.2   211  ASN211      0.2266
     79  O         12.4690   -9.9790   48.1840 O.2   211  ASN211     -0.2867
     80  CB        13.4990  -11.7780   46.2380 C.3   211  ASN211      0.1155
     81  CG        14.1710  -10.4410   45.8860 C.2   211  ASN211      0.2627
     82  OD1       15.2250   -9.9660   46.4640 O.2   211  ASN211     -0.2716
     83  ND2       13.5750   -9.8190   44.8910 N.am  211  ASN211     -0.0877
     84  N          3.8900   -6.9570   43.1860 N.3   263  ARG263     -0.1245
     85  CA         5.1190   -7.6850   43.1500 C.3   263  ARG263      0.1563
     86  C          4.7440   -9.2070   43.0050 C.2   263  ARG263      0.2260
     87  O          5.5150  -10.0920   43.4430 O.2   263  ARG263     -0.2867
     88  CB         5.9500   -7.3420   44.4090 C.3   263  ARG263      0.0307
     89  CG         6.5840   -5.9800   44.1510 C.3   263  ARG263      0.0489
     90  CD         7.6240   -5.5790   45.1410 C.3   263  ARG263      0.2205
     91  NE         8.8020   -6.4500   45.0890 N.pl3 263  ARG263     -0.0865
     92  CZ         9.9730   -6.1440   44.5510 C.cat 263  ARG263      0.5346
     93  NH1       10.2310   -4.9590   43.9690 N.pl3 263  ARG263      0.1354
     94  NH2       10.9250   -7.0520   44.6390 N.pl3 263  ARG263      0.1354
     95  N          2.0200  -11.8170   37.8210 N.3   266  TYR266     -0.1241
     96  CA         2.6200  -11.9100   36.5050 C.3   266  TYR266      0.1605
     97  C          2.8440  -13.3850   36.0590 C.2   266  TYR266      0.2264
     98  O          3.2400  -13.6920   34.9350 O.2   266  TYR266     -0.2867
     99  CB         3.9490  -11.2090   36.5330 C.3   266  TYR266      0.0534
    100  CG         4.9500  -11.9210   37.3870 C.ar  266  TYR266     -0.0201
    101  CD1        5.8620  -12.7930   36.8510 C.ar  266  TYR266     -0.0009
    102  CD2        4.9900  -11.7030   38.7840 C.ar  266  TYR266     -0.0009
    103  CE1        6.8200  -13.4690   37.6910 C.ar  266  TYR266      0.0417
    104  CE2        5.9210  -12.3630   39.6200 C.ar  266  TYR266      0.0417
    105  CZ         6.8320  -13.2230   39.0550 C.ar  266  TYR266      0.1957
    106  OH         7.7260  -13.8660   39.8730 O.3   266  TYR266     -0.2866
    107  N         21.8130   -8.6610   35.3050 N.3   429  ARG429     -0.1245
    108  CA        21.7580  -10.1290   35.4880 C.3   429  ARG429      0.1563
    109  C         22.7460  -10.6620   34.5040 C.2   429  ARG429      0.2260
    110  O         22.7250  -10.3090   33.3300 O.2   429  ARG429     -0.2867
    111  CB        20.3670  -10.6970   35.1570 C.3   429  ARG429      0.0307
    112  CG        19.3180  -10.4070   36.2510 C.3   429  ARG429      0.0489
    113  CD        18.0500  -11.2950   36.1660 C.3   429  ARG429      0.2205
    114  NE        18.2840  -12.6120   36.7930 N.pl3 429  ARG429     -0.0865
    115  CZ        17.4110  -13.6380   36.7990 C.cat 429  ARG429      0.5346
    116  NH1       16.2140  -13.5120   36.1970 N.pl3 429  ARG429      0.1354
    117  NH2       17.7260  -14.7910   37.4210 N.pl3 429  ARG429      0.1354
@<TRIPOS>BOND
     1    12    13    1
     2     4     3    2
     3     3     2    1
     4    13    14    1
     5    13    16    1
     6    18    17    2
     7    19    17   am
     8    17    16    1
     9    14    15    2
    10   110   109    2
    11     2     1    1
    12     2     5    1
    13     6     5    1
    14     6     7    1
    15    11     9    1
    16   109   108    1
    17     8     9    2
    18     8     7    1
    19    20    21    1
    20    26    24    1
    21    98    97    2
    22     9    10    1
    23   111   108    1
    24   111   112    1
    25   107   108    1
    26    24    21    1
    27    24    25    1
    28    21    22    1
    29    97    96    1
    30    40    38    1
    31   113   112    1
    32   113   114    1
    33   116   115    1
    34    23    22    2
    35    96    99    1
    36    96    95    1
    37    99   100    1
    38    27    25    1
    39    22    28   am
    40   114   115    2
    41   115   117    1
    42   101   100   ar
    43   101   103   ar
    44   100   102   ar
    45    38    39    1
    46    38    35    1
    47   103   105   ar
    48    28    29    1
    49    35    34    1
    50    35    36    1
    51    34    30   am
    52    30    31    2
    53    30    29    1
    54   102   104   ar
    55   105   104   ar
    56   105   106    1
    57    29    32    1
    58    44    43    2
    59    32    33    1
    60    36    41   am
    61    36    37    2
    62    41    42    1
    63    54    56   ar
    64    54    52   ar
    65    56    57   ar
    66    43    42    1
    67    43    47   am
    68    51    52    1
    69    51    48    1
    70    42    45    1
    71    45    46    1
    72    52    53   ar
    73    50    49    2
    74    49    48    1
    75    57    55   ar
    76    47    48    1
    77    65    64    2
    78    53    55   ar
    79    64    66   am
    80    64    63    1
    81    86    85    1
    82    86    87    2
    83    85    84    1
    84    85    88    1
    85    93    92    1
    86    63    62    1
    87    89    88    1
    88    89    90    1
    89    92    94    1
    90    92    91    2
    91    83    81   am
    92    91    90    1
    93    62    59    1
    94    74    73   ar
    95    81    80    1
    96    81    82    2
    97    80    77    1
    98    59    58    1
    99    59    60    1
   100    75    73   ar
   101    73    72    1
   102    60    61    2
   103    77    76    1
   104    77    78    1
   105    72    71    1
   106    79    78    2
   107    68    71    1
   108    68    67    1
   109    68    69    1
   110    69    70    1
