@<TRIPOS>MOLECULE
tmp/3kalA02.pdb
 101 97 0 0 0
SMALL
GASTEIGER

@<TRIPOS>ATOM
      1  N        -17.3280  -18.2120   34.1000 N.3    25  TRP25      -0.1241
      2  CA       -18.2650  -17.5130   33.2190 C.3    25  TRP25       0.1605
      3  C        -18.9050  -18.4830   32.1750 C.2    25  TRP25       0.2264
      4  O        -20.1230  -18.3900   31.8920 O.2    25  TRP25      -0.2867
      5  CB       -17.5430  -16.2590   32.5780 C.3    25  TRP25       0.0550
      6  CG       -18.5410  -15.2410   31.9730 C.ar   25  TRP25       0.0003
      7  CD1      -18.9960  -14.1640   32.5410 C.ar   25  TRP25       0.0946
      8  CD2      -19.2180  -15.3610   30.7260 C.ar   25  TRP25       0.0152
      9  NE1      -19.8070  -13.4710   31.7210 N.ar   25  TRP25      -0.2442
     10  CE2      -20.0050  -14.2300   30.6000 C.ar   25  TRP25       0.0810
     11  CE3      -19.2480  -16.3450   29.6920 C.ar   25  TRP25       0.0012
     12  CZ2      -20.8130  -14.0510   29.5830 C.ar   25  TRP25       0.0191
     13  CZ3      -20.0110  -16.0940   28.6300 C.ar   25  TRP25       0.0001
     14  CH2      -20.7240  -14.9000   28.5440 C.ar   25  TRP25       0.0015
     15  N        -23.0730  -19.3330   31.9530 N.3    29  ASN29      -0.1240
     16  CA       -23.7360  -18.7230   30.8100 C.3    29  ASN29       0.1653
     17  C        -23.9400  -19.6040   29.6670 C.2    29  ASN29       0.2266
     18  O        -24.3180  -19.1720   28.5450 O.2    29  ASN29      -0.2867
     19  CB       -22.9590  -17.4060   30.4340 C.3    29  ASN29       0.1155
     20  CG       -23.0550  -16.4100   31.5250 C.2    29  ASN29       0.2627
     21  OD1      -24.0540  -15.7640   31.6380 O.2    29  ASN29      -0.2716
     22  ND2      -22.0690  -16.2830   32.3390 N.am   29  ASN29      -0.0877
     23  N        -25.1190  -18.2520   18.9630 N.3   155  LEU155     -0.1245
     24  CA       -25.2060  -18.1050   20.3950 C.3   155  LEU155      0.1561
     25  C        -23.7040  -18.0920   20.8990 C.2   155  LEU155      0.2260
     26  O        -23.3390  -17.2130   21.6140 O.2   155  LEU155     -0.2867
     27  CB       -25.8740  -19.2210   21.0910 C.3   155  LEU155      0.0270
     28  CG       -25.7530  -19.3140   22.6850 C.3   155  LEU155      0.0019
     29  CD1      -26.3060  -18.1170   23.3560 C.3   155  LEU155      0.0001
     30  CD2      -26.2480  -20.6880   23.2150 C.3   155  LEU155      0.0001
     31  N        -22.0810  -14.6790   20.3560 N.3   158  CYS158     -0.1221
     32  CA       -22.4970  -13.6280   21.3230 C.3   158  CYS158      0.1808
     33  C        -21.9790  -13.9650   22.7340 C.2   158  CYS158      0.2601
     34  O        -21.6540  -13.0500   23.4970 O.2   158  CYS158     -0.2717
     35  CB       -24.0360  -13.4300   21.3630 C.3   158  CYS158      0.0970
     36  SG       -25.0060  -14.8560   20.7890 S.3   158  CYS158     -0.0800
     37  N        -21.8830  -15.2760   23.1320 N.am  159  LEU159     -0.1979
     38  CA       -21.4950  -15.6050   24.5190 C.3   159  LEU159      0.1596
     39  C        -19.9440  -15.3010   24.5980 C.2   159  LEU159      0.2287
     40  O        -19.4820  -14.8470   25.5840 O.2   159  LEU159     -0.2864
     41  CB       -21.7030  -17.0680   24.8170 C.3   159  LEU159      0.0297
     42  CG       -23.2770  -17.3560   25.1580 C.3   159  LEU159      0.0022
     43  CD1      -23.3270  -18.9530   25.2040 C.3   159  LEU159      0.0001
     44  CD2      -23.6520  -16.6240   26.3910 C.3   159  LEU159      0.0001
     45  N        -19.7090  -11.7340   25.3050 N.3   162  GLY162     -0.1225
     46  CA       -20.0280  -11.5450   26.7070 C.3   162  GLY162      0.1811
     47  C        -18.7440  -11.9200   27.5660 C.2   162  GLY162      0.2280
     48  O        -18.4160  -11.1650   28.4250 O.2   162  GLY162     -0.2866
     49  N        -19.9070   -4.8630   20.0710 N.3   184  ALA184     -0.1231
     50  CA       -21.3060   -5.4220   20.4350 C.3   184  ALA184      0.1694
     51  C        -21.8580   -6.5590   19.5100 C.2   184  ALA184      0.2592
     52  O        -21.5010   -6.7000   18.3220 O.2   184  ALA184     -0.2718
     53  CB       -22.3590   -4.2100   20.5850 C.3   184  ALA184      0.0304
     54  N        -22.5480   -7.5310   20.1050 N.am  185  ASN185     -0.1960
     55  CA       -22.8650   -8.7210   19.3420 C.3   185  ASN185      0.1819
     56  C        -24.3750   -9.1340   19.7860 C.2   185  ASN185      0.2621
     57  O        -24.6130   -9.4870   20.9270 O.2   185  ASN185     -0.2715
     58  CB       -21.9540   -9.9170   19.6860 C.3   185  ASN185      0.1195
     59  CG       -21.9880  -10.9970   18.6310 C.2   185  ASN185      0.2630
     60  OD1      -22.8420  -10.9870   17.7890 O.2   185  ASN185     -0.2716
     61  ND2      -21.0610  -11.9570   18.6780 N.am  185  ASN185     -0.0877
     62  N        -25.2440   -9.1730   18.8050 N.am  186  ASN186     -0.1958
     63  CA       -26.6590   -9.5210   19.0250 C.3   186  ASN186      0.1819
     64  C        -27.0210  -10.7970   18.1830 C.2   186  ASN186      0.2621
     65  O        -28.2050  -10.9290   17.8280 O.2   186  ASN186     -0.2715
     66  CB       -27.5750   -8.2750   18.5460 C.3   186  ASN186      0.1195
     67  CG       -27.4080   -7.9350   16.9460 C.2   186  ASN186      0.2630
     68  OD1      -26.5740   -8.5950   16.2310 O.2   186  ASN186     -0.2716
     69  ND2      -28.2650   -6.9710   16.3820 N.am  186  ASN186     -0.0877
     70  N        -26.0640  -11.6790   17.8230 N.am  187  ALA187     -0.1963
     71  CA       -26.2440  -12.5640   16.7110 C.3   187  ALA187      0.1728
     72  C        -27.4270  -13.6000   17.0210 C.2   187  ALA187      0.2616
     73  O        -28.2680  -13.9140   16.0920 O.2   187  ALA187     -0.2715
     74  CB       -24.9260  -13.4150   16.2760 C.3   187  ALA187      0.0334
     75  N        -27.3940  -14.2040   18.2150 N.am  188  VAL188     -0.1963
     76  CA       -28.4650  -15.2140   18.5060 C.3   188  VAL188      0.1727
     77  C        -29.9050  -14.5990   18.5230 C.2   188  VAL188      0.2616
     78  O        -30.9080  -15.1970   17.9820 O.2   188  VAL188     -0.2715
     79  CB       -28.1780  -15.9770   19.8300 C.3   188  VAL188      0.0290
     80  CG1      -28.4210  -15.1420   21.0690 C.3   188  VAL188      0.0023
     81  CG2      -28.9720  -17.3700   19.7930 C.3   188  VAL188      0.0023
     82  N        -30.0180  -13.4320   19.1160 N.am  189  ASP189     -0.1971
     83  CA       -31.2840  -12.6800   19.1990 C.3   189  ASP189      0.1709
     84  C        -31.7280  -12.3250   17.7770 C.2   189  ASP189      0.2293
     85  O        -32.9230  -12.4980   17.4090 O.2   189  ASP189     -0.2864
     86  CB       -31.1410  -11.4100   19.9300 C.3   189  ASP189      0.1436
     87  CG       -30.9580  -11.6230   21.4770 C.2   189  ASP189      0.3671
     88  OD1      -31.2020  -12.7310   22.0660 O.co2 189  ASP189     -0.2456
     89  OD2      -30.3920  -10.7020   22.0310 O.co2 189  ASP189     -0.2456
     90  N        -31.2310  -22.9540   22.7390 N.3   225  TYR225     -0.1241
     91  CA       -31.3230  -21.5600   23.0890 C.3   225  TYR225      0.1605
     92  C        -32.2070  -20.8250   22.0980 C.2   225  TYR225      0.2264
     93  O        -33.0010  -19.9960   22.5430 O.2   225  TYR225     -0.2867
     94  CB       -29.8440  -20.9020   23.2490 C.3   225  TYR225      0.0534
     95  CG       -29.8370  -19.5080   23.8410 C.ar  225  TYR225     -0.0201
     96  CD1      -30.2290  -18.3610   23.0290 C.ar  225  TYR225     -0.0009
     97  CD2      -29.4340  -19.3380   25.2300 C.ar  225  TYR225     -0.0009
     98  CE1      -30.1830  -17.0960   23.5270 C.ar  225  TYR225      0.0417
     99  CE2      -29.4210  -18.0490   25.7730 C.ar  225  TYR225      0.0417
    100  CZ       -29.7230  -17.0220   24.8970 C.ar  225  TYR225      0.1957
    101  OH       -29.7220  -15.7710   25.3600 O.3   225  TYR225     -0.2866
@<TRIPOS>BOND
     1    73    72    2
     2    68    67    2
     3    74    71    1
     4    69    67   am
     5    71    72    1
     6    71    70    1
     7    67    66    1
     8    72    75   am
     9    85    84    2
    10    84    83    1
    11    60    59    2
    12    70    64   am
    13    65    64    2
    14    78    77    2
    15    64    63    1
    16    75    76    1
    17    52    51    2
    18    76    77    1
    19    76    79    1
    20    77    82   am
    21    66    63    1
    22    59    61   am
    23    59    58    1
    24    62    63    1
    25    62    56   am
    26    23    24    1
    27    82    83    1
    28    83    86    1
    29    55    58    1
    30    55    56    1
    31    55    54    1
    32    51    54   am
    33    51    50    1
    34    56    57    2
    35    81    79    1
    36    79    80    1
    37    86    87    1
    38    49    50    1
    39    31    32    1
    40    24    25    1
    41    24    27    1
    42    50    53    1
    43    36    35    1
    44    25    26    2
    45    27    28    1
    46    32    35    1
    47    32    33    1
    48    87    89   ar
    49    87    88   ar
    50    92    93    2
    51    92    91    1
    52    28    30    1
    53    28    29    1
    54    33    37   am
    55    33    34    2
    56    90    91    1
    57    96    98   ar
    58    96    95   ar
    59    91    94    1
    60    37    38    1
    61    94    95    1
    62    98   100   ar
    63    95    97   ar
    64    38    39    1
    65    38    41    1
    66    39    40    2
    67    41    42    1
    68   100   101    1
    69   100    99   ar
    70    42    43    1
    71    42    44    1
    72    97    99   ar
    73    45    46    1
    74    46    47    1
    75    47    48    2
    76    14    13   ar
    77    14    12   ar
    78    18    17    2
    79    13    11   ar
    80    12    10   ar
    81    17    16    1
    82    11     8   ar
    83    19    16    1
    84    19    20    1
    85    10     8   ar
    86    10     9   ar
    87     8     6   ar
    88    16    15    1
    89    20    21    2
    90    20    22   am
    91     9     7   ar
    92     4     3    2
    93     6     7   ar
    94     6     5    1
    95     3     2    1
    96     5     2    1
    97     2     1    1
