@<TRIPOS>MOLECULE
tmp/3kalA01.pdb
 165 156 0 0 0
SMALL
GASTEIGER

@<TRIPOS>ATOM
      1  N        -23.8480  -16.5520    6.8090 N.3   129  ARG129     -0.1245
      2  CA       -22.5650  -16.1450    7.5080 C.3   129  ARG129      0.1563
      3  C        -21.5090  -16.0460    6.3860 C.2   129  ARG129      0.2260
      4  O        -21.2660  -16.9870    5.6840 O.2   129  ARG129     -0.2867
      5  CB       -22.0540  -17.1090    8.5970 C.3   129  ARG129      0.0307
      6  CG       -21.3240  -16.2320    9.6740 C.3   129  ARG129      0.0489
      7  CD       -20.5420  -17.0200   10.7960 C.3   129  ARG129      0.2205
      8  NE       -19.8050  -18.1110   10.2080 N.pl3 129  ARG129     -0.0865
      9  CZ       -20.0000  -19.4130   10.4150 C.cat 129  ARG129      0.5346
     10  NH1      -21.0560  -19.9610   11.1090 N.pl3 129  ARG129      0.1354
     11  NH2      -19.2130  -20.2410    9.7110 N.pl3 129  ARG129      0.1354
     12  N        -21.6250  -18.9690    3.8480 N.3   147  ASN147     -0.1240
     13  CA       -22.3040  -20.0970    4.3990 C.3   147  ASN147      0.1653
     14  C        -23.8340  -19.7750    4.3070 C.2   147  ASN147      0.2266
     15  O        -24.2550  -18.8830    5.0120 O.2   147  ASN147     -0.2867
     16  CB       -21.9610  -20.3320    5.9380 C.3   147  ASN147      0.1155
     17  CG       -20.5960  -20.9600    6.0920 C.2   147  ASN147      0.2627
     18  OD1      -20.4220  -22.1550    5.7730 O.2   147  ASN147     -0.2716
     19  ND2      -19.6870  -20.2070    6.5840 N.am  147  ASN147     -0.0877
     20  N        -26.3280  -22.1730    4.7050 N.3   149  ILE149     -0.1231
     21  CA       -27.1000  -23.2690    5.3310 C.3   149  ILE149      0.1692
     22  C        -26.5610  -23.6350    6.7380 C.2   149  ILE149      0.2593
     23  O        -25.2760  -23.7220    6.8810 O.2   149  ILE149     -0.2718
     24  CB       -27.3020  -24.5850    4.4060 C.3   149  ILE149      0.0266
     25  CG1      -28.3020  -25.5640    5.1140 C.3   149  ILE149      0.0019
     26  CG2      -25.9230  -25.4340    4.0420 C.3   149  ILE149      0.0020
     27  CD1      -28.8090  -26.7970    4.2380 C.3   149  ILE149      0.0001
     28  N        -27.4790  -23.8780    7.7120 N.am  150  SER150     -0.1938
     29  CA       -27.1250  -24.2730    9.0900 C.3   150  SER150      0.2055
     30  C        -25.8370  -23.5850    9.6820 C.2   150  SER150      0.2644
     31  O        -24.9380  -24.3250   10.1470 O.2   150  SER150     -0.2714
     32  CB       -26.9550  -25.8120    9.0770 C.3   150  SER150      0.2130
     33  OG       -26.6850  -26.3690   10.3810 O.3   150  SER150     -0.2179
     34  N        -25.8260  -22.2600    9.6740 N.am  151  THR151     -0.1936
     35  CA       -24.6610  -21.4790   10.0840 C.3   151  THR151      0.2028
     36  C        -24.6430  -21.6270   11.6580 C.2   151  THR151      0.2643
     37  O        -25.6100  -21.3140   12.3320 O.2   151  THR151     -0.2714
     38  CB       -24.7100  -20.0620    9.5700 C.3   151  THR151      0.1808
     39  OG1      -25.8170  -19.2880   10.1110 O.3   151  THR151     -0.2208
     40  CG2      -24.9320  -19.9390    8.0900 C.3   151  THR151      0.0379
     41  N        -23.5540  -22.1340   12.2220 N.am  152  SER152     -0.1935
     42  CA       -23.4800  -22.2690   13.6610 C.3   152  SER152      0.2055
     43  C        -22.8640  -21.0410   14.2850 C.2   152  SER152      0.2643
     44  O        -22.3140  -20.1930   13.5510 O.2   152  SER152     -0.2714
     45  CB       -22.6250  -23.4610   14.0150 C.3   152  SER152      0.2130
     46  OG       -21.2910  -23.3020   13.5110 O.3   152  SER152     -0.2179
     47  N        -22.9250  -21.0200   15.6350 N.am  153  PHE153     -0.1973
     48  CA       -22.3000  -20.0790   16.4920 C.3   153  PHE153      0.1639
     49  C        -22.8520  -18.7350   16.6240 C.2   153  PHE153      0.2290
     50  O        -22.1100  -17.7690   16.9980 O.2   153  PHE153     -0.2864
     51  CB       -20.7360  -20.0460   16.0630 C.3   153  PHE153      0.0560
     52  CG       -20.0530  -21.3730   16.3420 C.ar  153  PHE153     -0.0200
     53  CD1      -20.6920  -22.3800   17.0960 C.ar  153  PHE153     -0.0042
     54  CD2      -18.6640  -21.6160   15.9440 C.ar  153  PHE153     -0.0042
     55  CE1      -20.0290  -23.7210   17.4090 C.ar  153  PHE153     -0.0003
     56  CE2      -17.9840  -22.8740   16.3100 C.ar  153  PHE153     -0.0003
     57  CZ       -18.6650  -23.9680   16.9710 C.ar  153  PHE153     -0.0000
     58  N        -29.2820  -32.9790   13.4270 N.3   214  GLN214     -0.1245
     59  CA       -28.5590  -34.1810   13.1490 C.3   214  GLN214      0.1566
     60  C        -28.8080  -35.1080   14.2600 C.2   214  GLN214      0.2260
     61  O        -29.2420  -34.7270   15.3950 O.2   214  GLN214     -0.2867
     62  CB       -27.0460  -33.9580   13.0070 C.3   214  GLN214      0.0367
     63  CG       -26.7570  -32.8850   11.8940 C.3   214  GLN214      0.0905
     64  CD       -25.2870  -32.7500   11.6660 C.2   214  GLN214      0.2608
     65  OE1      -24.7780  -32.9240   10.5450 O.2   214  GLN214     -0.2717
     66  NE2      -24.5850  -32.4590   12.7270 N.am  214  GLN214     -0.0878
     67  N        -25.5980  -34.3570   18.1480 N.3   217  GLU217     -0.1245
     68  CA       -25.4340  -32.9540   18.0780 C.3   217  GLU217      0.1567
     69  C        -24.9160  -32.4820   19.3730 C.2   217  GLU217      0.2260
     70  O        -25.6580  -32.1280   20.3190 O.2   217  GLU217     -0.2867
     71  CB       -26.8500  -32.2790   17.7280 C.3   217  GLU217      0.0388
     72  CG       -26.7120  -30.8050   17.5470 C.3   217  GLU217      0.1160
     73  CD       -25.4590  -30.4490   16.6160 C.2   217  GLU217      0.3649
     74  OE1      -25.6410  -30.5950   15.3920 O.co2 217  GLU217     -0.2457
     75  OE2      -24.3470  -30.1160   17.1230 O.co2 217  GLU217     -0.2457
     76  N        -23.3880  -29.7640   19.8490 N.3   219  ASN219     -0.1240
     77  CA       -23.6360  -28.2920   19.8940 C.3   219  ASN219      0.1653
     78  C        -25.2090  -27.9860   19.9990 C.2   219  ASN219      0.2266
     79  O        -25.6820  -26.9680   19.4940 O.2   219  ASN219     -0.2867
     80  CB       -23.1870  -27.5510   18.6030 C.3   219  ASN219      0.1155
     81  CG       -23.2420  -26.0410   18.7220 C.2   219  ASN219      0.2627
     82  OD1      -23.1250  -25.4850   19.7650 O.2   219  ASN219     -0.2716
     83  ND2      -23.4190  -25.4000   17.6260 N.am  219  ASN219     -0.0877
     84  N        -28.9990  -24.6900   19.5230 N.3   223  GLN223     -0.1245
     85  CA       -30.3850  -24.8780   18.9580 C.3   223  GLN223      0.1566
     86  C        -31.4420  -24.7120   20.0380 C.2   223  GLN223      0.2260
     87  O        -32.4160  -23.9200   19.8510 O.2   223  GLN223     -0.2867
     88  CB       -30.6330  -26.2930   18.3520 C.3   223  GLN223      0.0367
     89  CG       -29.4890  -26.8300   17.8950 C.3   223  GLN223      0.0905
     90  CD       -29.5120  -28.3550   17.4720 C.2   223  GLN223      0.2608
     91  OE1      -29.8410  -29.3780   18.3490 O.2   223  GLN223     -0.2717
     92  NE2      -29.0290  -28.5040   16.1580 N.am  223  GLN223     -0.0878
     93  N        -30.6770  -27.1760   10.6990 N.3   271  ARG271     -0.1245
     94  CA       -29.3770  -27.3500   11.4450 C.3   271  ARG271      0.1563
     95  C        -28.7550  -28.6620   11.0380 C.2   271  ARG271      0.2260
     96  O        -28.0440  -29.3700   11.8320 O.2   271  ARG271     -0.2867
     97  CB       -29.5820  -27.2420   12.9790 C.3   271  ARG271      0.0307
     98  CG       -30.1080  -25.8730   13.3370 C.3   271  ARG271      0.0489
     99  CD       -29.2110  -24.6270   13.1650 C.3   271  ARG271      0.2205
    100  NE       -27.9890  -24.8390   14.0000 N.pl3 271  ARG271     -0.0865
    101  CZ       -27.4340  -23.8950   14.7970 C.cat 271  ARG271      0.5346
    102  NH1      -27.9260  -22.7350   14.9240 N.pl3 271  ARG271      0.1354
    103  NH2      -26.3570  -24.1040   15.5150 N.pl3 271  ARG271      0.1354
    104  N        -26.6210  -30.6060    5.2690 N.3   274  TYR274     -0.1241
    105  CA       -25.6100  -29.8850    4.4740 C.3   274  TYR274      0.1605
    106  C        -24.4310  -30.8390    4.2860 C.2   274  TYR274      0.2264
    107  O        -23.3730  -30.4400    3.8250 O.2   274  TYR274     -0.2867
    108  CB       -25.0380  -28.6510    5.2030 C.3   274  TYR274      0.0534
    109  CG       -24.6470  -28.9370    6.6360 C.ar  274  TYR274     -0.0201
    110  CD1      -25.5200  -28.6410    7.7090 C.ar  274  TYR274     -0.0009
    111  CD2      -23.4150  -29.5990    6.9340 C.ar  274  TYR274     -0.0009
    112  CE1      -25.1560  -28.9080    9.0530 C.ar  274  TYR274      0.0417
    113  CE2      -23.0500  -29.9310    8.2810 C.ar  274  TYR274      0.0417
    114  CZ       -23.8980  -29.5830    9.3100 C.ar  274  TYR274      0.1957
    115  OH       -23.4440  -29.8360   10.5680 O.3   274  TYR274     -0.2866
    116  N        -19.3930  -28.7410    3.3500 N.3   368  GLU368     -0.1231
    117  CA       -19.6880  -27.7180    4.3270 C.3   368  GLU368      0.1699
    118  C        -19.4160  -28.4250    5.6110 C.2   368  GLU368      0.2592
    119  O        -20.0500  -29.4300    6.0090 O.2   368  GLU368     -0.2718
    120  CB       -21.2060  -27.2250    4.2910 C.3   368  GLU368      0.0402
    121  CG       -21.5570  -26.4740    3.0240 C.3   368  GLU368      0.1161
    122  CD       -20.7050  -25.1190    2.9760 C.2   368  GLU368      0.3649
    123  OE1      -20.4150  -24.5930    4.0690 O.co2 368  GLU368     -0.2457
    124  OE2      -20.3350  -24.5220    1.9250 O.co2 368  GLU368     -0.2457
    125  N        -18.5410  -27.8520    6.3500 N.am  369  GLY369     -0.1957
    126  CA       -18.8350  -27.9800    7.8070 C.3   369  GLY369      0.1869
    127  C        -17.7040  -28.6980    8.4410 C.2   369  GLY369      0.2309
    128  O        -17.6430  -28.8790    9.6880 O.2   369  GLY369     -0.2863
    129  N        -13.5730  -17.6390   14.6600 N.3   446  ARG446     -0.1245
    130  CA       -12.8710  -18.9250   14.8000 C.3   446  ARG446      0.1563
    131  C        -11.3270  -18.6190   14.6200 C.2   446  ARG446      0.2260
    132  O        -10.9460  -17.9140   13.6590 O.2   446  ARG446     -0.2867
    133  CB       -13.3090  -19.8380   13.7390 C.3   446  ARG446      0.0307
    134  CG       -12.8080  -21.2820   13.7520 C.3   446  ARG446      0.0489
    135  CD       -13.8320  -22.3190   12.8470 C.3   446  ARG446      0.2205
    136  NE       -14.2500  -21.4870   11.7790 N.pl3 446  ARG446     -0.0865
    137  CZ       -15.3880  -21.4090   11.1400 C.cat 446  ARG446      0.5346
    138  NH1      -16.3950  -22.2610   11.2840 N.pl3 446  ARG446      0.1354
    139  NH2      -15.4210  -20.3920   10.2720 N.pl3 446  ARG446      0.1354
    140  N        -11.7810  -26.5010   12.5720 N.3   456  GLY456     -0.1210
    141  CA       -13.0660  -26.8960   13.1770 C.3   456  GLY456      0.1956
    142  C        -13.0000  -26.9220   14.6910 C.2   456  GLY456      0.2612
    143  O        -12.1670  -27.6310   15.2910 O.2   456  GLY456     -0.2717
    144  N        -13.9720  -26.2100   15.3480 N.am  457  VAL457     -0.1965
    145  CA       -13.9020  -26.0560   16.7970 C.3   457  VAL457      0.1727
    146  C        -14.3270  -27.3600   17.4800 C.2   457  VAL457      0.2616
    147  O        -13.6520  -27.9050   18.3460 O.2   457  VAL457     -0.2715
    148  CB       -14.6420  -24.8350   17.2750 C.3   457  VAL457      0.0290
    149  CG1      -14.6880  -24.8090   18.8170 C.3   457  VAL457      0.0023
    150  CG2      -14.1280  -23.6400   16.6280 C.3   457  VAL457      0.0023
    151  N        -15.4350  -27.8850   17.0520 N.am  458  LEU458     -0.1964
    152  CA       -16.0010  -29.1080   17.6150 C.3   458  LEU458      0.1713
    153  C        -15.1270  -30.3880   17.3320 C.2   458  LEU458      0.2458
    154  O        -14.8920  -31.1910   18.2440 O.2   458  LEU458     -0.2730
    155  CB       -17.5090  -29.1980   17.2240 C.3   458  LEU458      0.0310
    156  CG       -18.3500  -27.9230   17.7480 C.3   458  LEU458      0.0022
    157  CD1      -19.6600  -27.5810   16.8280 C.3   458  LEU458      0.0001
    158  CD2      -18.6790  -28.0720   19.0920 C.3   458  LEU458      0.0001
    159  N        -14.6380  -30.5690   16.0860 N.am  459  PRO459     -0.2727
    160  CA       -13.5500  -31.5410   15.5810 C.3   459  PRO459      0.1402
    161  C        -12.2930  -31.0930   16.3230 C.2   459  PRO459      0.2269
    162  O        -12.1600  -29.9160   16.5500 O.2   459  PRO459     -0.2865
    163  CB       -13.3560  -31.1990   14.1320 C.3   459  PRO459      0.0296
    164  CG       -14.8150  -30.2570   13.7120 C.3   459  PRO459      0.0237
    165  CD       -15.3090  -29.7190   15.0140 C.3   459  PRO459      0.0939
@<TRIPOS>BOND
     1   124   122   ar
     2   122   121    1
     3   122   123   ar
     4   121   120    1
     5   116   117    1
     6   107   106    2
     7    12    13    1
     8    26    24    1
     9    27    25    1
    10   106   105    1
    11   120   117    1
    12    14    13    1
    13    14    15    2
    14   117   118    1
    15    13    16    1
    16    24    25    1
    17    24    21    1
    18   105   108    1
    19   105   104    1
    20    20    21    1
    21   108   109    1
    22    21    22    1
    23   118   119    2
    24   118   125   am
    25     4     3    2
    26    18    17    2
    27    16    17    1
    28    17    19   am
    29   125   126    1
    30     3     2    1
    31   109   111   ar
    32   109   110   ar
    33    22    23    2
    34    22    28   am
    35     1     2    1
    36   111   113   ar
    37     2     5    1
    38   110   112   ar
    39    28    29    1
    40   126   127    1
    41    40    38    1
    42   113   114   ar
    43   127   128    2
    44     5     6    1
    45   112   114   ar
    46    32    29    1
    47    32    33    1
    48    29    30    1
    49   114   115    1
    50    38    35    1
    51    38    39    1
    52     6     7    1
    53    34    30   am
    54    34    35    1
    55    30    31    2
    56    11     9    1
    57    35    36    1
    58     8     9    2
    59     8     7    1
    60   139   137    1
    61     9    10    1
    62    65    64    2
    63    93    94    1
    64    95    94    1
    65    95    96    2
    66   137   138    1
    67   137   136    2
    68    94    97    1
    69    36    41   am
    70    36    37    2
    71    64    63    1
    72    64    66   am
    73   136   135    1
    74    63    62    1
    75    41    42    1
    76   140   141    1
    77   135   134    1
    78    97    98    1
    79    62    59    1
    80    59    58    1
    81    59    60    1
    82    99    98    1
    83    99   100    1
    84   141   142    1
    85    46    45    1
    86    44    43    2
    87   132   131    2
    88    42    45    1
    89    42    43    1
    90   164   163    1
    91   164   165    1
    92   133   134    1
    93   133   130    1
    94   100   101    2
    95   163   160    1
    96    60    61    2
    97    43    47   am
    98   131   130    1
    99   129   130    1
   100   142   143    2
   101   142   144   am
   102   101   102    1
   103   101   103    1
   104   165   159    1
   105   144   145    1
   106    74    73   ar
   107   160   159    1
   108   160   161    1
   109    47    48    1
   110    54    56   ar
   111    54    52   ar
   112    51    52    1
   113    51    48    1
   114   159   153   am
   115    92    90   am
   116    56    57   ar
   117   161   162    2
   118    52    53   ar
   119    48    49    1
   120    73    75   ar
   121    73    72    1
   122    49    50    2
   123   150   148    1
   124   145   148    1
   125   145   146    1
   126   157   156    1
   127    57    55   ar
   128   151   146   am
   129   151   152    1
   130    53    55   ar
   131   155   152    1
   132   155   156    1
   133   148   149    1
   134   153   152    1
   135   153   154    2
   136    90    89    1
   137    90    91    2
   138   146   147    2
   139    72    71    1
   140    83    81   am
   141    71    68    1
   142   156   158    1
   143    89    88    1
   144    68    67    1
   145    68    69    1
   146    88    85    1
   147    80    81    1
   148    80    77    1
   149    81    82    2
   150    85    84    1
   151    85    86    1
   152    69    70    2
   153    79    78    2
   154    76    77    1
   155    87    86    2
   156    77    78    1
