@<TRIPOS>MOLECULE
tmp/3kalA00.pdb
 205 193 0 0 0
SMALL
GASTEIGER

@<TRIPOS>ATOM
      1  N        -10.7700  -13.6250    6.2100 N.3   133  MET133     -0.1245
      2  CA        -9.3960  -13.5300    6.8780 C.3   133  MET133      0.1570
      3  C         -8.7650  -12.2730    6.3240 C.2   133  MET133      0.2261
      4  O         -9.0350  -11.9550    5.1500 O.2   133  MET133     -0.2867
      5  CB        -8.4560  -14.6850    6.5250 C.3   133  MET133      0.0387
      6  CG        -8.7010  -15.8130    7.3250 C.3   133  MET133      0.0595
      7  SD        -7.7630  -17.1760    6.9150 S.3   133  MET133     -0.1393
      8  CE        -8.3110  -18.3440    8.0510 C.3   133  MET133      0.0692
      9  N        -13.3470  -16.1290    2.7660 N.3   144  ILE144     -0.1231
     10  CA       -12.9640  -17.5260    2.7710 C.3   144  ILE144      0.1692
     11  C        -14.1020  -18.3180    2.0910 C.2   144  ILE144      0.2591
     12  O        -13.9040  -19.1070    1.1900 O.2   144  ILE144     -0.2718
     13  CB       -12.8140  -18.0840    4.2770 C.3   144  ILE144      0.0266
     14  CG1      -11.6890  -17.2870    4.9640 C.3   144  ILE144      0.0019
     15  CG2      -12.6740  -19.5530    4.3330 C.3   144  ILE144      0.0020
     16  CD1      -10.3420  -17.7090    4.3590 C.3   144  ILE144      0.0001
     17  N        -15.3330  -18.0750    2.5770 N.am  145  GLU145     -0.1979
     18  CA       -16.4430  -18.7910    2.0920 C.3   145  GLU145      0.1602
     19  C        -17.7510  -18.0740    2.5130 C.2   145  GLU145      0.2287
     20  O        -17.7860  -17.1430    3.2610 O.2   145  GLU145     -0.2864
     21  CB       -16.4530  -20.2890    2.4980 C.3   145  GLU145      0.0415
     22  CG       -16.8150  -20.3670    4.0700 C.3   145  GLU145      0.1163
     23  CD       -17.5130  -21.5960    4.3990 C.2   145  GLU145      0.3649
     24  OE1      -18.2650  -22.1580    3.5340 O.co2 145  GLU145     -0.2457
     25  OE2      -17.3730  -22.0660    5.5380 O.co2 145  GLU145     -0.2457
     26  N        -21.6250  -18.9690    3.8480 N.3   147  ASN147     -0.1240
     27  CA       -22.3040  -20.0970    4.3990 C.3   147  ASN147      0.1653
     28  C        -23.8340  -19.7750    4.3070 C.2   147  ASN147      0.2266
     29  O        -24.2550  -18.8830    5.0120 O.2   147  ASN147     -0.2867
     30  CB       -21.9610  -20.3320    5.9380 C.3   147  ASN147      0.1155
     31  CG       -20.5960  -20.9600    6.0920 C.2   147  ASN147      0.2627
     32  OD1      -20.4220  -22.1550    5.7730 O.2   147  ASN147     -0.2716
     33  ND2      -19.6870  -20.2070    6.5840 N.am  147  ASN147     -0.0877
     34  N        -18.9980  -24.2050   -2.9880 N.3   310  LYS310     -0.1245
     35  CA       -17.7110  -23.4300   -3.2180 C.3   310  LYS310      0.1561
     36  C        -17.5800  -23.3140   -4.7840 C.2   310  LYS310      0.2260
     37  O        -17.1140  -22.3500   -5.2570 O.2   310  LYS310     -0.2867
     38  CB       -16.5130  -24.2430   -2.7120 C.3   310  LYS310      0.0271
     39  CG       -16.5280  -24.5860   -1.0840 C.3   310  LYS310      0.0035
     40  CD       -16.7650  -23.4760   -0.1880 C.3   310  LYS310      0.0206
     41  CE       -16.6420  -23.9640    1.3720 C.3   310  LYS310      0.1093
     42  NZ       -17.4000  -25.2440    1.7900 N.3   310  LYS310     -0.1314
     43  N         -5.4960  -23.5690   -1.6800 N.3   362  VAL362     -0.1245
     44  CA        -6.3820  -24.5310   -1.0340 C.3   362  VAL362      0.1561
     45  C         -7.3120  -25.1800   -2.1130 C.2   362  VAL362      0.2260
     46  O         -7.8180  -24.5070   -3.0030 O.2   362  VAL362     -0.2867
     47  CB        -7.2440  -23.8720    0.0720 C.3   362  VAL362      0.0252
     48  CG1       -7.9310  -24.9390    0.8060 C.3   362  VAL362      0.0019
     49  CG2       -6.3910  -22.9700    1.0650 C.3   362  VAL362      0.0019
     50  N        -10.8160  -27.3060   -2.4350 N.3   364  LYS364     -0.1245
     51  CA       -12.0570  -27.5160   -1.6600 C.3   364  LYS364      0.1561
     52  C        -13.0770  -28.2640   -2.4860 C.2   364  LYS364      0.2260
     53  O        -13.4040  -27.8790   -3.6310 O.2   364  LYS364     -0.2867
     54  CB       -12.6830  -26.2030   -1.2950 C.3   364  LYS364      0.0271
     55  CG       -11.7060  -25.1210   -1.0010 C.3   364  LYS364      0.0035
     56  CD       -12.0990  -24.4400    0.2520 C.3   364  LYS364      0.0206
     57  CE       -12.2090  -22.9700    0.1040 C.3   364  LYS364      0.1093
     58  NZ       -12.2270  -22.0830    1.2240 N.3   364  LYS364     -0.1314
     59  N        -19.3930  -28.7410    3.3500 N.3   368  GLU368     -0.1231
     60  CA       -19.6880  -27.7180    4.3270 C.3   368  GLU368      0.1699
     61  C        -19.4160  -28.4250    5.6110 C.2   368  GLU368      0.2593
     62  O        -20.0500  -29.4300    6.0090 O.2   368  GLU368     -0.2718
     63  CB       -21.2060  -27.2250    4.2910 C.3   368  GLU368      0.0402
     64  CG       -21.5570  -26.4740    3.0240 C.3   368  GLU368      0.1161
     65  CD       -20.7050  -25.1190    2.9760 C.2   368  GLU368      0.3649
     66  OE1      -20.4150  -24.5930    4.0690 O.co2 368  GLU368     -0.2457
     67  OE2      -20.3350  -24.5220    1.9250 O.co2 368  GLU368     -0.2457
     68  N        -18.5410  -27.8520    6.3500 N.am  369  GLY369     -0.1942
     69  CA       -18.8350  -27.9800    7.8070 C.3   369  GLY369      0.2014
     70  C        -17.7040  -28.6980    8.4410 C.2   369  GLY369      0.2639
     71  O        -17.6430  -28.8790    9.6880 O.2   369  GLY369     -0.2714
     72  N        -16.7790  -29.1500    7.5950 N.am  370  GLY370     -0.1939
     73  CA       -15.4910  -29.4130    8.2410 C.3   370  GLY370      0.2014
     74  C        -14.7250  -30.6100    7.8120 C.2   370  GLY370      0.2639
     75  O        -15.2850  -31.7420    7.6440 O.2   370  GLY370     -0.2714
     76  N        -13.4350  -30.2800    7.6490 N.am  371  GLY371     -0.1939
     77  CA       -12.3670  -31.1990    7.6780 C.3   371  GLY371      0.2014
     78  C        -12.3560  -31.9230    6.3940 C.2   371  GLY371      0.2639
     79  O        -12.2060  -33.1470    6.3840 O.2   371  GLY371     -0.2714
     80  N        -12.4520  -31.1490    5.3060 N.am  372  ASN372     -0.1958
     81  CA       -12.8550  -31.5950    3.9410 C.3   372  ASN372      0.1819
     82  C        -11.7050  -31.2170    2.9540 C.2   372  ASN372      0.2621
     83  O        -11.2600  -32.0980    2.1750 O.2   372  ASN372     -0.2715
     84  CB       -14.1870  -30.8770    3.5050 C.3   372  ASN372      0.1195
     85  CG       -15.4250  -31.3030    4.2940 C.2   372  ASN372      0.2630
     86  OD1      -15.6730  -32.5270    4.4840 O.2   372  ASN372     -0.2716
     87  ND2      -16.2820  -30.2930    4.6970 N.am  372  ASN372     -0.0877
     88  N        -11.2200  -29.9440    3.0340 N.am  373  ASN373     -0.1972
     89  CA       -10.2300  -29.3000    2.1660 C.3   373  ASN373      0.1688
     90  C         -8.9120  -30.0470    2.0640 C.2   373  ASN373      0.2292
     91  O         -8.6730  -31.0030    2.8090 O.2   373  ASN373     -0.2864
     92  CB        -9.8330  -27.8470    2.5960 C.3   373  ASN373      0.1181
     93  CG       -10.9830  -26.8300    2.5190 C.2   373  ASN373      0.2629
     94  OD1      -12.0630  -27.1800    2.1730 O.2   373  ASN373     -0.2716
     95  ND2      -10.7370  -25.6090    2.9460 N.am  373  ASN373     -0.0877
     96  N         -4.4890  -29.2540    1.2880 N.3   375  TYR375     -0.1241
     97  CA        -3.3630  -28.2780    1.1710 C.3   375  TYR375      0.1605
     98  C         -1.9930  -28.9330    0.9220 C.2   375  TYR375      0.2264
     99  O         -1.8620  -30.1610    1.0620 O.2   375  TYR375     -0.2867
    100  CB        -3.1970  -27.3810    2.4400 C.3   375  TYR375      0.0534
    101  CG        -4.4860  -26.9440    3.1000 C.ar  375  TYR375     -0.0201
    102  CD1       -5.3460  -27.8790    3.6420 C.ar  375  TYR375     -0.0009
    103  CD2       -4.8010  -25.5950    3.1810 C.ar  375  TYR375     -0.0009
    104  CE1       -6.4560  -27.5030    4.2440 C.ar  375  TYR375      0.0417
    105  CE2       -5.9050  -25.1930    3.7860 C.ar  375  TYR375      0.0417
    106  CZ        -6.7360  -26.1330    4.3130 C.ar  375  TYR375      0.1957
    107  OH        -7.8640  -25.7250    4.9130 O.3   375  TYR375     -0.2866
    108  N         -8.3360  -22.2870   -4.7200 N.3   395  MET395     -0.1230
    109  CA        -8.3830  -20.9490   -4.1760 C.3   395  MET395      0.1702
    110  C         -6.9910  -20.4270   -3.7240 C.2   395  MET395      0.2592
    111  O         -6.2130  -21.2200   -3.1990 O.2   395  MET395     -0.2718
    112  CB        -9.3940  -20.9650   -2.9460 C.3   395  MET395      0.0401
    113  CG        -9.6670  -19.5400   -2.4350 C.3   395  MET395      0.0596
    114  SD       -10.9090  -19.7090   -1.0710 S.3   395  MET395     -0.1393
    115  CE       -10.9590  -18.1430   -0.8580 C.3   395  MET395      0.0692
    116  N         -6.7150  -19.1330   -3.9050 N.am  396  GLN396     -0.1966
    117  CA        -5.5990  -18.5290   -3.2230 C.3   396  GLN396      0.1733
    118  C         -5.5380  -18.7850   -1.6720 C.2   396  GLN396      0.2616
    119  O         -6.4780  -18.3570   -0.9740 O.2   396  GLN396     -0.2715
    120  CB        -5.6650  -17.0390   -3.5220 C.3   396  GLN396      0.0408
    121  CG        -4.6740  -16.2300   -2.8460 C.3   396  GLN396      0.0908
    122  CD        -5.0220  -14.7740   -2.9050 C.2   396  GLN396      0.2608
    123  OE1       -5.8120  -14.3310   -3.7420 O.2   396  GLN396     -0.2717
    124  NE2       -4.4090  -13.9810   -2.0460 N.am  396  GLN396     -0.0878
    125  N         -4.4300  -19.4550   -1.1550 N.am  397  ARG397     -0.1963
    126  CA        -4.1100  -19.5050    0.2880 C.3   397  ARG397      0.1729
    127  C         -3.8930  -18.1130    0.8530 C.2   397  ARG397      0.2616
    128  O         -3.2200  -17.3140    0.2510 O.2   397  ARG397     -0.2715
    129  CB        -2.9790  -20.5140    0.7230 C.3   397  ARG397      0.0348
    130  CG        -3.3530  -21.3270    1.9770 C.3   397  ARG397      0.0492
    131  CD        -2.4400  -21.4750    3.2130 C.3   397  ARG397      0.2205
    132  NE        -1.6930  -22.7260    3.2210 N.pl3 397  ARG397     -0.0865
    133  CZ        -1.2780  -23.4270    4.2810 C.cat 397  ARG397      0.5346
    134  NH1       -1.5070  -23.0680    5.5480 N.pl3 397  ARG397      0.1354
    135  NH2       -0.6170  -24.5740    4.0390 N.pl3 397  ARG397      0.1354
    136  N         -4.6390  -17.7460    1.9110 N.am  398  ILE398     -0.1977
    137  CA        -4.5510  -16.4270    2.5160 C.3   398  ILE398      0.1596
    138  C         -3.6870  -16.6470    3.8000 C.2   398  ILE398      0.2287
    139  O         -3.7500  -17.7220    4.4560 O.2   398  ILE398     -0.2864
    140  CB        -6.0700  -15.8790    2.9620 C.3   398  ILE398      0.0276
    141  CG1       -6.9230  -15.5980    1.7310 C.3   398  ILE398      0.0022
    142  CG2       -6.1270  -14.6260    3.7610 C.3   398  ILE398      0.0022
    143  CD1       -8.3860  -15.7640    2.0260 C.3   398  ILE398      0.0001
    144  N         -4.0220  -17.7250   13.8640 N.3   419  ILE419     -0.1245
    145  CA        -4.7950  -16.8310   13.0280 C.3   419  ILE419      0.1561
    146  C         -6.3700  -16.8940   13.2850 C.2   419  ILE419      0.2260
    147  O         -6.8560  -17.9390   13.7550 O.2   419  ILE419     -0.2867
    148  CB        -4.5630  -17.1000   11.5070 C.3   419  ILE419      0.0252
    149  CG1       -4.8090  -18.6010   11.0960 C.3   419  ILE419      0.0019
    150  CG2       -3.0320  -16.7240   11.1730 C.3   419  ILE419      0.0019
    151  CD1       -4.6570  -18.8210    9.5770 C.3   419  ILE419      0.0001
    152  N        -10.5240  -15.9480   11.8650 N.3   421  GLU421     -0.1245
    153  CA       -11.4270  -15.9090   10.7380 C.3   421  GLU421      0.1567
    154  C        -12.7530  -15.3280   11.2850 C.2   421  GLU421      0.2260
    155  O        -13.2890  -15.8210   12.2600 O.2   421  GLU421     -0.2867
    156  CB       -11.4640  -17.3720   10.1700 C.3   421  GLU421      0.0388
    157  CG       -12.5760  -17.5850    9.0790 C.3   421  GLU421      0.1160
    158  CD       -12.7380  -18.9670    8.5480 C.2   421  GLU421      0.3649
    159  OE1      -12.1010  -19.9950    8.9480 O.co2 421  GLU421     -0.2457
    160  OE2      -13.4800  -19.1130    7.5860 O.co2 421  GLU421     -0.2457
    161  N        -13.5730  -17.6390   14.6600 N.3   446  ARG446     -0.1245
    162  CA       -12.8710  -18.9250   14.8000 C.3   446  ARG446      0.1563
    163  C        -11.3270  -18.6190   14.6200 C.2   446  ARG446      0.2260
    164  O        -10.9460  -17.9140   13.6590 O.2   446  ARG446     -0.2867
    165  CB       -13.3090  -19.8380   13.7390 C.3   446  ARG446      0.0307
    166  CG       -12.8080  -21.2820   13.7520 C.3   446  ARG446      0.0489
    167  CD       -13.8320  -22.3190   12.8470 C.3   446  ARG446      0.2205
    168  NE       -14.2500  -21.4870   11.7790 N.pl3 446  ARG446     -0.0865
    169  CZ       -15.3880  -21.4090   11.1400 C.cat 446  ARG446      0.5346
    170  NH1      -16.3950  -22.2610   11.2840 N.pl3 446  ARG446      0.1354
    171  NH2      -15.4210  -20.3920   10.2720 N.pl3 446  ARG446      0.1354
    172  N         -7.2560  -20.4040   15.1390 N.3   448  LYS448     -0.1245
    173  CA        -6.6080  -21.6860   15.1140 C.3   448  LYS448      0.1561
    174  C         -5.0610  -21.4010   15.1140 C.2   448  LYS448      0.2260
    175  O         -4.6310  -20.2910   14.6310 O.2   448  LYS448     -0.2867
    176  CB        -6.9580  -22.4850   13.8200 C.3   448  LYS448      0.0271
    177  CG        -6.5410  -21.8910   12.4020 C.3   448  LYS448      0.0035
    178  CD        -7.0290  -22.8850   11.3510 C.3   448  LYS448      0.0206
    179  CE        -6.3060  -22.4310   10.0880 C.3   448  LYS448      0.1093
    180  NZ        -6.7770  -23.1190    8.8170 N.3   448  LYS448     -0.1314
    181  N         -4.0490  -26.8800    9.2030 N.3   453  TYR453     -0.1227
    182  CA        -4.8520  -26.8700    7.9540 C.3   453  TYR453      0.1736
    183  C         -6.3660  -26.7140    8.4410 C.2   453  TYR453      0.2595
    184  O         -7.0410  -25.7310    8.0930 O.2   453  TYR453     -0.2718
    185  CB        -4.6450  -28.2240    7.3090 C.3   453  TYR453      0.0548
    186  CG        -3.3450  -28.2870    6.5950 C.ar  453  TYR453     -0.0200
    187  CD1       -2.7020  -27.1140    6.1250 C.ar  453  TYR453     -0.0009
    188  CD2       -2.7780  -29.5240    6.3730 C.ar  453  TYR453     -0.0009
    189  CE1       -1.4020  -27.2010    5.3870 C.ar  453  TYR453      0.0417
    190  CE2       -1.4970  -29.6350    5.6400 C.ar  453  TYR453      0.0417
    191  CZ        -0.8540  -28.4950    5.1730 C.ar  453  TYR453      0.1957
    192  OH         0.3570  -28.6980    4.4560 O.3   453  TYR453     -0.2866
    193  N         -6.7620  -27.6220    9.3360 N.am  454  GLU454     -0.1965
    194  CA        -8.1420  -27.6830    9.8280 C.3   454  GLU454      0.1733
    195  C         -8.3130  -26.6270   10.9270 C.2   454  GLU454      0.2616
    196  O         -7.3340  -26.3940   11.6860 O.2   454  GLU454     -0.2715
    197  CB        -8.3650  -29.0650   10.3310 C.3   454  GLU454      0.0429
    198  CG        -8.6710  -30.0940    9.1810 C.3   454  GLU454      0.1163
    199  CD        -9.3010  -31.3570    9.7160 C.2   454  GLU454      0.3649
    200  OE1       -8.6810  -32.4730    9.5370 O.co2 454  GLU454     -0.2457
    201  OE2      -10.4390  -31.2760   10.3410 O.co2 454  GLU454     -0.2457
    202  N         -9.4920  -25.9440   11.0310 N.am  455  GLY455     -0.1955
    203  CA        -9.6950  -25.1810   12.3160 C.3   455  GLY455      0.1869
    204  C        -11.1030  -25.3660   12.8930 C.2   455  GLY455      0.2309
    205  O        -11.5470  -24.4440   13.5690 O.2   455  GLY455     -0.2863
@<TRIPOS>BOND
     1    37    36    2
     2    36    35    1
     3   108   109    1
     4   109   110    1
     5   109   112    1
     6   116   110   am
     7   116   117    1
     8   123   122    2
     9   110   111    2
    10    53    52    2
    11   120   117    1
    12   120   121    1
    13   117   118    1
    14    35    34    1
    15    35    38    1
    16    46    45    2
    17   112   113    1
    18   122   121    1
    19   122   124   am
    20    38    39    1
    21    52    51    1
    22    50    51    1
    23   113   114    1
    24    45    44    1
    25    43    44    1
    26   118   125   am
    27   118   119    2
    28    51    54    1
    29    54    55    1
    30   125   126    1
    31    39    40    1
    32   114   115    1
    33    44    47    1
    34    55    56    1
    35    40    41    1
    36    47    48    1
    37    47    49    1
    38    57    56    1
    39    57    58    1
    40   128   127    2
    41   126   129    1
    42   126   127    1
    43   129   130    1
    44   127   136   am
    45    98    99    2
    46    98    97    1
    47    97    96    1
    48    97   100    1
    49    12    11    2
    50    41    42    1
    51   141   143    1
    52   141   140    1
    53   136   137    1
    54    67    65   ar
    55   130   131    1
    56    90    89    1
    57    90    91    2
    58    11    17   am
    59    11    10    1
    60    18    21    1
    61    18    19    1
    62    18    17    1
    63    89    92    1
    64    89    88    1
    65    94    93    2
    66    83    82    2
    67   100   101    1
    68    21    22    1
    69    19    20    2
    70   137   140    1
    71   137   138    1
    72    93    92    1
    73    93    95   am
    74     9    10    1
    75    10    13    1
    76    82    88   am
    77    82    81    1
    78   140   142    1
    79    65    64    1
    80    65    66   ar
    81    64    63    1
    82   101   103   ar
    83   101   102   ar
    84   103   105   ar
    85   131   132    1
    86   132   133    2
    87    59    60    1
    88    84    81    1
    89    84    85    1
    90    24    23   ar
    91   102   104   ar
    92   105   106   ar
    93   138   139    2
    94    26    27    1
    95    81    80    1
    96   135   133    1
    97    22    23    1
    98   104   106   ar
    99    13    15    1
   100    13    14    1
   101   133   134    1
   102    63    60    1
   103    85    86    2
   104    85    87   am
   105    28    27    1
   106    28    29    2
   107   106   107    1
   108    60    61    1
   109    16    14    1
   110    23    25   ar
   111    27    30    1
   112   192   191    1
   113     4     3    2
   114   191   189   ar
   115   191   190   ar
   116    80    78   am
   117   189   187   ar
   118    61    62    2
   119    61    68   am
   120   190   188   ar
   121    32    31    2
   122    30    31    1
   123    31    33   am
   124   187   186   ar
   125     1     2    1
   126     3     2    1
   127    68    69    1
   128   188   186   ar
   129    79    78    2
   130    78    77    1
   131     5     2    1
   132     5     6    1
   133   186   185    1
   134     7     6    1
   135     7     8    1
   136   185   182    1
   137   160   158   ar
   138    72    73    1
   139    72    70   am
   140    75    74    2
   141    76    77    1
   142    76    74   am
   143    69    70    1
   144    74    73    1
   145   182   183    1
   146   182   181    1
   147   184   183    2
   148   183   193   am
   149    70    71    2
   150   158   159   ar
   151   158   157    1
   152   180   179    1
   153   157   156    1
   154   198   199    1
   155   198   197    1
   156   193   194    1
   157   200   199   ar
   158   151   149    1
   159   199   201   ar
   160   194   197    1
   161   194   195    1
   162   179   178    1
   163   156   153    1
   164   171   169    1
   165   153   154    1
   166   153   152    1
   167   195   202   am
   168   195   196    2
   169   202   203    1
   170   149   148    1
   171   169   170    1
   172   169   168    2
   173   150   148    1
   174   154   155    2
   175   178   177    1
   176   148   145    1
   177   168   167    1
   178   203   204    1
   179   177   176    1
   180   167   166    1
   181   204   205    2
   182   145   146    1
   183   145   144    1
   184   146   147    2
   185   164   163    2
   186   165   166    1
   187   165   162    1
   188   176   173    1
   189   163   162    1
   190   175   174    2
   191   161   162    1
   192   173   174    1
   193   173   172    1
