@<TRIPOS>MOLECULE
tmp/3kanA00.pdb
 92 87 0 0 0
SMALL
GASTEIGER

@<TRIPOS>ATOM
      1  N         33.0190  -11.7910    3.7120 N.3     1  PRO1       -0.2102
      2  CA        33.3160  -13.2140    3.7210 C.3     1  PRO1        0.1504
      3  C         33.9810  -13.6610    2.4260 C.2     1  PRO1        0.2575
      4  O         33.9340  -12.9690    1.4030 O.2     1  PRO1       -0.2718
      5  CB        31.9390  -13.8430    3.9020 C.3     1  PRO1        0.0282
      6  CG        30.9980  -12.8240    3.3380 C.3     1  PRO1        0.0208
      7  CD        31.5720  -11.5370    3.7800 C.3     1  PRO1        0.0893
      8  N         34.5910  -14.8330    2.4910 N.am    2  PHE2       -0.1977
      9  CA        35.2860  -15.4430    1.3690 C.3     2  PHE2        0.1639
     10  C         34.5210  -16.7060    0.9760 C.2     2  PHE2        0.2290
     11  O         34.4560  -17.6650    1.7450 O.2     2  PHE2       -0.2864
     12  CB        36.7150  -15.8170    1.7240 C.3     2  PHE2        0.0560
     13  CG        37.5870  -14.6620    2.1310 C.ar    2  PHE2       -0.0200
     14  CD1       37.5210  -14.1510    3.4140 C.ar    2  PHE2       -0.0042
     15  CD2       38.4960  -14.1210    1.2570 C.ar    2  PHE2       -0.0042
     16  CE1       38.3420  -13.1200    3.8130 C.ar    2  PHE2       -0.0003
     17  CE2       39.3360  -13.0950    1.6520 C.ar    2  PHE2       -0.0003
     18  CZ        39.2500  -12.5860    2.9310 C.ar    2  PHE2       -0.0000
     19  N         26.0250   -9.5820    5.8610 N.3    32  LYS32      -0.1231
     20  CA        27.2590   -8.8730    5.5410 C.3    32  LYS32       0.1678
     21  C         26.9840   -7.9340    4.3790 C.2    32  LYS32       0.2434
     22  O         26.0890   -8.1780    3.5780 O.2    32  LYS32      -0.2733
     23  CB        28.3420   -9.8660    5.1300 C.3    32  LYS32       0.0284
     24  CG        28.7110  -10.8940    6.1780 C.3    32  LYS32       0.0035
     25  CD        29.6090  -10.3540    7.2680 C.3    32  LYS32       0.0206
     26  CE        29.9030  -11.4130    8.3110 C.3    32  LYS32       0.1093
     27  NZ        30.9490  -10.9660    9.2620 N.3    32  LYS32      -0.1314
     28  N         27.7710   -6.8580    4.2420 N.am   33  PRO33      -0.2729
     29  CA        27.5480   -5.9630    3.1050 C.3    33  PRO33       0.1401
     30  C         27.9340   -6.6130    1.7950 C.2    33  PRO33       0.2269
     31  O         29.0050   -7.1910    1.7090 O.2    33  PRO33      -0.2865
     32  CB        28.4680   -4.7650    3.4090 C.3    33  PRO33       0.0296
     33  CG        28.9170   -4.9300    4.7850 C.3    33  PRO33       0.0237
     34  CD        28.7960   -6.3430    5.1640 C.3    33  PRO33       0.0939
     35  N         31.3630   -6.1440    0.4320 N.3    36  ARG36      -0.1245
     36  CA        32.4920   -6.7690    1.0950 C.3    36  ARG36       0.1563
     37  C         32.6000   -8.2560    0.8000 C.2    36  ARG36       0.2260
     38  O         33.5470   -8.8810    1.2650 O.2    36  ARG36      -0.2867
     39  CB        32.3920   -6.5630    2.6060 C.3    36  ARG36       0.0307
     40  CG        32.5190   -5.1250    3.0760 C.3    36  ARG36       0.0489
     41  CD        33.9110   -4.5840    2.7700 C.3    36  ARG36       0.2205
     42  NE        34.0270   -3.9890    1.4320 N.pl3  36  ARG36      -0.0865
     43  CZ        33.7370   -2.7200    1.1340 C.cat  36  ARG36       0.5346
     44  NH1       33.2900   -1.8780    2.0670 N.pl3  36  ARG36       0.1354
     45  NH2       33.8830   -2.2890   -0.1180 N.pl3  36  ARG36       0.1354
     46  N         33.4010  -11.6890   -1.1370 N.3    38  ASN38      -0.1240
     47  CA        34.3650  -12.1940   -2.0820 C.3    38  ASN38       0.1653
     48  C         33.9040  -13.5540   -2.5700 C.2    38  ASN38       0.2266
     49  O         33.4820  -14.3930   -1.7740 O.2    38  ASN38      -0.2867
     50  CB        35.7070  -12.3110   -1.3900 C.3    38  ASN38       0.1155
     51  CG        36.1250  -11.0060   -0.7840 C.2    38  ASN38       0.2627
     52  OD1       36.3710  -10.0540   -1.5090 O.2    38  ASN38      -0.2716
     53  ND2       36.1830  -10.9280    0.5380 N.am   38  ASN38      -0.0877
     54  N         34.4610  -16.6920    7.2110 N.3    63  SER63      -0.1202
     55  CA        33.9040  -15.4330    7.6350 C.3    63  SER63       0.2020
     56  C         34.1750  -15.1840    9.1130 C.2    63  SER63       0.2618
     57  O         34.2970  -16.1070    9.9090 O.2    63  SER63      -0.2717
     58  CB        32.3880  -15.4490    7.3620 C.3    63  SER63       0.2103
     59  OG        31.7450  -14.2210    7.6100 O.3    63  SER63      -0.2182
     60  N         34.2510  -13.9100    9.4780 N.am   64  ILE64      -0.1979
     61  CA        34.3270  -13.4890   10.8640 C.3    64  ILE64       0.1595
     62  C         32.9490  -13.5680   11.5240 C.2    64  ILE64       0.2287
     63  O         31.9410  -13.0880   11.0030 O.2    64  ILE64      -0.2864
     64  CB        34.8410  -12.0350   10.9870 C.3    64  ILE64       0.0276
     65  CG1       36.2320  -11.9200   10.3750 C.3    64  ILE64       0.0022
     66  CG2       34.8670  -11.6090   12.4470 C.3    64  ILE64       0.0022
     67  CD1       36.9220  -10.6160   10.5860 C.3    64  ILE64       0.0001
     68  N         43.2170  -11.7670    8.3140 N.3   107  ILE107     -0.1245
     69  CA        42.7880  -11.1480    7.0610 C.3   107  ILE107      0.1561
     70  C         43.6740   -9.9590    6.7460 C.2   107  ILE107      0.2260
     71  O         43.6400   -8.9320    7.4250 O.2   107  ILE107     -0.2867
     72  CB        41.3060  -10.7500    7.0700 C.3   107  ILE107      0.0252
     73  CG1       40.4050  -11.9760    7.3130 C.3   107  ILE107      0.0019
     74  CG2       40.9660  -10.0630    5.7630 C.3   107  ILE107      0.0019
     75  CD1       38.9590  -11.6420    7.5080 C.3   107  ILE107      0.0001
     76  N         44.5660   -6.9650    4.3980 N.3   109  LYS109     -0.1245
     77  CA        43.8680   -6.0490    3.5140 C.3   109  LYS109      0.1561
     78  C         44.6010   -4.7320    3.5800 C.2   109  LYS109      0.2260
     79  O         45.1340   -4.3430    4.6210 O.2   109  LYS109     -0.2867
     80  CB        42.4000   -5.8920    3.8720 C.3   109  LYS109      0.0271
     81  CG        42.1680   -5.4210    5.2720 C.3   109  LYS109      0.0035
     82  CD        40.7300   -5.4970    5.6800 C.3   109  LYS109      0.0206
     83  CE        39.8110   -4.6430    4.8630 C.3   109  LYS109      0.1093
     84  NZ        38.3790   -4.8970    5.2280 N.3   109  LYS109     -0.1314
     85  N         43.1270   -6.8210    9.4160 N.3   114  MET114     -0.1245
     86  CA        41.8610   -6.2600    9.8840 C.3   114  MET114      0.1570
     87  C         41.8670   -5.9020   11.3600 C.2   114  MET114      0.2261
     88  O         41.1110   -5.0350   11.7720 O.2   114  MET114     -0.2867
     89  CB        40.6800   -7.1800    9.5780 C.3   114  MET114      0.0387
     90  CG        40.2190   -7.0560    8.1650 C.3   114  MET114      0.0595
     91  SD        38.7890   -8.0430    7.6850 S.3   114  MET114     -0.1393
     92  CE        37.5160   -7.3200    8.7240 C.3   114  MET114      0.0692
@<TRIPOS>BOND
     1    48    47    1
     2    48    49    2
     3    47    50    1
     4    47    46    1
     5    52    51    2
     6    50    51    1
     7    51    53   am
     8    45    43    1
     9    35    36    1
    10    37    36    1
    11    37    38    2
    12    10     9    1
    13    10    11    2
    14    36    39    1
    15    43    42    2
    16    43    44    1
    17    15    17   ar
    18    15    13   ar
    19     9    12    1
    20     9     8    1
    21     4     3    2
    22    42    41    1
    23    17    18   ar
    24    31    30    2
    25    12    13    1
    26    30    29    1
    27    13    14   ar
    28     3     8   am
    29     3     2    1
    30    39    40    1
    31    41    40    1
    32    18    16   ar
    33    29    32    1
    34    29    28    1
    35     6     7    1
    36     6     5    1
    37    32    33    1
    38    14    16   ar
    39    77    78    1
    40    77    80    1
    41    77    76    1
    42    22    21    2
    43    78    79    2
    44     1     2    1
    45     1     7    1
    46     2     5    1
    47    80    81    1
    48    28    21   am
    49    28    34    1
    50    21    20    1
    51    33    34    1
    52    83    84    1
    53    83    82    1
    54    23    20    1
    55    23    24    1
    56    81    82    1
    57    20    19    1
    58    74    72    1
    59    24    25    1
    60    70    69    1
    61    70    71    2
    62    69    72    1
    63    69    68    1
    64    72    73    1
    65    54    55    1
    66    25    26    1
    67    73    75    1
    68    58    59    1
    69    58    55    1
    70    55    56    1
    71    91    90    1
    72    91    92    1
    73    90    89    1
    74    26    27    1
    75    56    60   am
    76    56    57    2
    77    85    86    1
    78    60    61    1
    79    89    86    1
    80    86    87    1
    81    65    67    1
    82    65    64    1
    83    61    64    1
    84    61    62    1
    85    64    66    1
    86    63    62    2
    87    87    88    2
