@<TRIPOS>MOLECULE
tmp/3kapA00.pdb
 150 148 0 0 0
SMALL
GASTEIGER

@<TRIPOS>ATOM
      1  N          6.0240   39.8140   -6.3460 N.3     9  SER9       -0.1202
      2  CA         6.6170   41.1350   -6.5130 C.3     9  SER9        0.2020
      3  C          6.5460   41.5420   -7.9790 C.2     9  SER9        0.2619
      4  O          7.0340   40.7840   -8.8000 O.2     9  SER9       -0.2717
      5  CB         8.0640   41.0820   -6.0760 C.3     9  SER9        0.2103
      6  OG         8.6150   42.3630   -5.9050 O.3     9  SER9       -0.2182
      7  N          5.9310   42.6720   -8.3590 N.am   10  SER10      -0.1937
      8  CA         5.8930   43.1300   -9.7370 C.3    10  SER10       0.2055
      9  C          7.0820   43.9930  -10.1150 C.2    10  SER10       0.2643
     10  O          7.5500   43.9020  -11.2410 O.2    10  SER10      -0.2714
     11  CB         4.5810   43.9120   -9.9920 C.3    10  SER10       0.2130
     12  OG         3.4890   42.9910   -9.8350 O.3    10  SER10      -0.2179
     13  N          7.6420   44.8560   -9.2710 N.am   11  THR11      -0.1950
     14  CA         8.7700   45.6820   -9.6930 C.3    11  THR11       0.1897
     15  C         10.0210   45.3010   -8.9200 C.2    11  THR11       0.2313
     16  O         11.0590   45.9480   -9.0600 O.2    11  THR11      -0.2863
     17  CB         8.4550   47.1930   -9.4860 C.3    11  THR11       0.1794
     18  OG1        8.3920   47.4170   -8.0880 O.3    11  THR11      -0.2208
     19  CG2        7.1180   47.6300  -10.0870 C.3    11  THR11       0.0378
     20  N         10.3330   45.2060   -5.3810 N.3    13  ASN13      -0.1225
     21  CA        10.4860   45.7170   -4.0170 C.3    13  ASN13       0.1785
     22  C         10.2860   44.6700   -2.9270 C.2    13  ASN13       0.2597
     23  O         11.1330   44.5280   -2.0490 O.2    13  ASN13      -0.2718
     24  CB         9.5160   46.9020   -3.7840 C.3    13  ASN13       0.1169
     25  CG         9.8600   48.1350   -4.6070 C.2    13  ASN13       0.2627
     26  OD1       11.0020   48.3390   -5.0170 O.2    13  ASN13      -0.2716
     27  ND2        8.9320   49.0360   -4.8740 N.am   13  ASN13      -0.0877
     28  N          9.2070   43.8930   -2.9320 N.am   14  THR14      -0.1953
     29  CA         8.9720   42.8150   -1.9710 C.3    14  THR14       0.1897
     30  C          9.9460   41.6850   -2.1990 C.2    14  THR14       0.2313
     31  O         10.3020   40.9980   -1.2590 O.2    14  THR14      -0.2863
     32  CB         7.5190   42.2680   -2.0820 C.3    14  THR14       0.1794
     33  OG1        6.6470   43.3910   -2.0330 O.3    14  THR14      -0.2208
     34  CG2        7.1480   41.3210   -0.9470 C.3    14  THR14       0.0378
     35  N          3.0150   42.8630   -2.4420 N.3    57  SER57      -0.1202
     36  CA         2.4820   44.1950   -2.6980 C.3    57  SER57       0.2020
     37  C          0.9680   44.1840   -2.9580 C.2    57  SER57       0.2619
     38  O          0.4050   43.1260   -3.3350 O.2    57  SER57      -0.2717
     39  CB         3.2630   44.7570   -3.8970 C.3    57  SER57       0.2103
     40  OG         3.3830   43.8280   -4.9970 O.3    57  SER57      -0.2182
     41  N          0.3010   45.3400   -2.7750 N.am   58  ALA58      -0.1965
     42  CA        -1.1450   45.4740   -2.9790 C.3    58  ALA58       0.1728
     43  C         -1.2670   46.4230   -4.1420 C.2    58  ALA58       0.2616
     44  O         -0.3950   47.2600   -4.3970 O.2    58  ALA58      -0.2715
     45  CB        -1.8330   46.0840   -1.7750 C.3    58  ALA58       0.0334
     46  N         -2.3240   46.2550   -4.9240 N.am   59  TRP59      -0.1960
     47  CA        -2.4680   46.9130   -6.2110 C.3    59  TRP59       0.1771
     48  C         -3.8430   47.5120   -6.4760 C.2    59  TRP59       0.2620
     49  O         -4.0940   47.9710   -7.5990 O.2    59  TRP59      -0.2715
     50  CB        -2.1160   45.8840   -7.3090 C.3    59  TRP59       0.0590
     51  CG        -0.6200   45.6380   -7.3090 C.ar   59  TRP59       0.0006
     52  CD1       -0.0920   44.5960   -6.5930 C.ar   59  TRP59       0.0946
     53  CD2        0.3470   46.4280   -7.8790 C.ar   59  TRP59       0.0152
     54  NE1        1.2180   44.7180   -6.6800 N.ar   59  TRP59      -0.2442
     55  CE2        1.5190   45.7880   -7.4320 C.ar   59  TRP59       0.0810
     56  CE3        0.4490   47.5650   -8.6750 C.ar   59  TRP59       0.0012
     57  CZ2        2.7930   46.2530   -7.7570 C.ar   59  TRP59       0.0191
     58  CZ3        1.7270   48.0410   -9.0040 C.ar   59  TRP59       0.0001
     59  CH2        2.8910   47.3960   -8.5530 C.ar   59  TRP59       0.0015
     60  N         -4.7460   47.5920   -5.4980 N.am   60  GLY60      -0.1940
     61  CA        -6.1010   48.0050   -5.8320 C.3    60  GLY60       0.2014
     62  C         -6.6070   49.3160   -5.2570 C.2    60  GLY60       0.2638
     63  O         -7.8110   49.5500   -5.3770 O.2    60  GLY60      -0.2714
     64  N         -5.7970   50.1710   -4.6080 N.am   61  MET61      -0.1976
     65  CA        -6.2350   51.4510   -4.0460 C.3    61  MET61       0.1605
     66  C         -7.4810   51.2660   -3.1640 C.2    61  MET61       0.2287
     67  O         -7.3370   50.6970   -2.0740 O.2    61  MET61      -0.2864
     68  CB        -6.5160   52.4450   -5.1980 C.3    61  MET61       0.0413
     69  CG        -5.2960   52.7470   -6.0820 C.3    61  MET61       0.0598
     70  SD        -5.5880   53.6760   -7.6200 S.3    61  MET61      -0.1393
     71  CE        -5.6320   52.3160   -8.7590 C.3    61  MET61       0.0692
     72  N         -9.9140   49.0890   -3.1780 N.3    63  ASP63      -0.1239
     73  CA       -10.1180   47.7020   -2.7910 C.3    63  ASP63       0.1674
     74  C         -8.7770   47.0400   -2.5320 C.2    63  ASP63       0.2266
     75  O         -7.7270   47.5190   -2.9640 O.2    63  ASP63      -0.2867
     76  CB       -10.8050   46.8980   -3.8800 C.3    63  ASP63       0.1410
     77  CG       -12.2610   47.2510   -4.0670 C.2    63  ASP63       0.3668
     78  OD1      -12.5550   47.9690   -5.0210 O.co2  63  ASP63      -0.2456
     79  OD2      -13.0860   46.8020   -3.2690 O.co2  63  ASP63      -0.2456
     80  N          6.0060   45.3530    0.6980 N.3    92  SER92      -0.1202
     81  CA         6.4880   46.6630    0.2830 C.3    92  SER92       0.2020
     82  C          5.2020   47.3450   -0.1490 C.2    92  SER92       0.2619
     83  O          4.2990   46.6660   -0.6590 O.2    92  SER92      -0.2717
     84  CB         7.4080   46.5890   -0.8990 C.3    92  SER92       0.2103
     85  OG         7.7150   47.8730   -1.3750 O.3    92  SER92      -0.2182
     86  N          5.0690   48.6410    0.0720 N.am   93  GLY93      -0.1942
     87  CA         3.9010   49.3760   -0.3700 C.3    93  GLY93       0.2014
     88  C          4.2730   50.8390   -0.5050 C.2    93  GLY93       0.2638
     89  O          5.4320   51.2170   -0.3800 O.2    93  GLY93      -0.2714
     90  N          3.3040   51.7150   -0.6860 N.am   94  ASP94      -0.1971
     91  CA         3.5430   53.1280   -0.8540 C.3    94  ASP94       0.1709
     92  C          2.4110   53.8000   -0.1020 C.2    94  ASP94       0.2293
     93  O          1.2390   53.5650   -0.4130 O.2    94  ASP94      -0.2864
     94  CB         3.5000   53.4290   -2.3320 C.3    94  ASP94       0.1436
     95  CG         3.6390   54.8800   -2.7550 C.2    94  ASP94       0.3671
     96  OD1        3.9770   55.1070   -3.9090 O.co2  94  ASP94      -0.2456
     97  OD2        3.4150   55.7880   -1.9710 O.co2  94  ASP94      -0.2456
     98  N         -0.9380   55.5480   -1.2700 N.3    97  TYR97      -0.1227
     99  CA        -2.1110   54.7840   -1.6580 C.3    97  TYR97       0.1736
    100  C         -2.8550   54.3030   -0.4400 C.2    97  TYR97       0.2595
    101  O         -2.3220   54.1480    0.6730 O.2    97  TYR97      -0.2718
    102  CB        -1.7530   53.5240   -2.4720 C.3    97  TYR97       0.0548
    103  CG        -1.1700   53.8230   -3.8390 C.ar   97  TYR97      -0.0200
    104  CD1       -1.9370   53.6810   -4.9870 C.ar   97  TYR97      -0.0009
    105  CD2        0.1540   54.2510   -3.9370 C.ar   97  TYR97      -0.0009
    106  CE1       -1.3690   53.9650   -6.2370 C.ar   97  TYR97       0.0417
    107  CE2        0.7210   54.5340   -5.1710 C.ar   97  TYR97       0.0417
    108  CZ        -0.0400   54.3840   -6.3180 C.ar   97  TYR97       0.1957
    109  OH         0.5700   54.6190   -7.5320 O.3    97  TYR97      -0.2866
    110  N         -4.1350   54.0680   -0.7290 N.am   98  GLU98      -0.1965
    111  CA        -5.0690   53.4290    0.1970 C.3    98  GLU98       0.1733
    112  C         -4.6030   51.9950    0.3500 C.2    98  GLU98       0.2616
    113  O         -3.8500   51.4650   -0.4780 O.2    98  GLU98      -0.2715
    114  CB        -6.4920   53.4300   -0.3660 C.3    98  GLU98       0.0429
    115  CG        -6.9810   54.8710   -0.3600 C.3    98  GLU98       0.1163
    116  CD        -8.2260   55.1590   -1.1780 C.2    98  GLU98       0.3649
    117  OE1       -8.3300   54.6630   -2.3000 O.co2  98  GLU98      -0.2457
    118  OE2       -9.0740   55.9170   -0.7060 O.co2  98  GLU98      -0.2457
    119  N         -5.0350   51.3460    1.4220 N.am   99  HIS99      -0.1959
    120  CA        -4.5880   49.9920    1.7360 C.3    99  HIS99       0.1787
    121  C         -3.0520   49.8520    1.7530 C.2    99  HIS99       0.2620
    122  O         -2.4560   48.9420    1.1670 O.2    99  HIS99      -0.2715
    123  CB        -5.2000   48.9620    0.7390 C.3    99  HIS99       0.0785
    124  CG        -6.7100   48.8130    0.8880 C.ar   99  HIS99       0.0821
    125  ND1       -7.6800   49.4490    0.2420 N.ar   99  HIS99      -0.2267
    126  CD2       -7.3270   47.9330    1.7500 C.ar   99  HIS99       0.1154
    127  CE1       -8.8340   49.0010    0.6650 C.ar   99  HIS99       0.1986
    128  NE2       -8.6080   48.0900    1.5710 N.ar   99  HIS99      -0.2212
    129  N         -2.3790   50.7670    2.4730 N.am  100  TYR100     -0.1960
    130  CA        -0.9320   50.7170    2.6400 C.3   100  TYR100      0.1771
    131  C         -0.5050   49.3580    3.2100 C.2   100  TYR100      0.2619
    132  O         -0.8820   49.0280    4.3330 O.2   100  TYR100     -0.2715
    133  CB        -0.4900   51.8730    3.5790 C.3   100  TYR100      0.0574
    134  CG         1.0020   51.8300    3.8320 C.ar  100  TYR100     -0.0198
    135  CD1        1.9040   51.7920    2.7440 C.ar  100  TYR100     -0.0009
    136  CD2        1.4530   51.7370    5.1500 C.ar  100  TYR100     -0.0009
    137  CE1        3.2760   51.6460    2.9750 C.ar  100  TYR100      0.0417
    138  CE2        2.8170   51.5880    5.3750 C.ar  100  TYR100      0.0417
    139  CZ         3.7070   51.5490    4.2950 C.ar  100  TYR100      0.1957
    140  OH         5.0540   51.4630    4.5470 O.3   100  TYR100     -0.2866
    141  N          0.2810   48.5870    2.4260 N.am  101  CYS101     -0.1968
    142  CA         0.7490   47.2580    2.7760 C.3   101  CYS101      0.1712
    143  C         -0.4190   46.3830    3.2230 C.2   101  CYS101      0.2296
    144  O         -0.2850   45.5310    4.1000 O.2   101  CYS101     -0.2864
    145  CB         1.8240   47.3700    3.8780 C.3   101  CYS101      0.0983
    146  SG         3.4010   48.0160    3.2680 S.3   101  CYS101     -0.0798
    147  N          8.9080   51.0860   -0.5780 N.3   127  GLY127     -0.1225
    148  CA        10.0580   50.9350   -1.4400 C.3   127  GLY127      0.1811
    149  C         10.7690   49.6050   -1.2050 C.2   127  GLY127      0.2280
    150  O         10.1380   48.6020   -0.8520 O.2   127  GLY127     -0.2866
@<TRIPOS>BOND
     1    10     9    2
     2     9     8    1
     3     9    13   am
     4    19    17    1
     5    11    12    1
     6    11     8    1
     7     8     7    1
     8    14    17    1
     9    14    13    1
    10    14    15    1
    11    17    18    1
    12    16    15    2
    13    58    56   ar
    14    58    59   ar
    15     4     3    2
    16    71    70    1
    17    56    53   ar
    18    59    57   ar
    19     7     3   am
    20     3     2    1
    21    53    55   ar
    22    53    51   ar
    23    57    55   ar
    24    70    69    1
    25    49    48    2
    26   109   108    1
    27    55    54   ar
    28    51    50    1
    29    51    52   ar
    30    50    47    1
    31    54    52   ar
    32     2     1    1
    33     2     5    1
    34    48    47    1
    35    48    60   am
    36   108   106   ar
    37   108   107   ar
    38   106   104   ar
    39    47    46    1
    40    69    68    1
    41     5     6    1
    42    61    60    1
    43    61    62    1
    44    20    21    1
    45    63    62    2
    46    62    64   am
    47    68    65    1
    48   107   105   ar
    49    78    77   ar
    50    26    25    2
    51    40    39    1
    52   104   103   ar
    53    46    43   am
    54    27    25   am
    55    64    65    1
    56    25    24    1
    57    44    43    2
    58    43    42    1
    59    77    76    1
    60    77    79   ar
    61    65    66    1
    62    21    24    1
    63    21    22    1
    64   105   103   ar
    65    96    95   ar
    66    39    36    1
    67    76    73    1
    68   103   102    1
    69    38    37    2
    70    72    73    1
    71    66    67    2
    72    42    41    1
    73    42    45    1
    74    75    74    2
    75    37    41   am
    76    37    36    1
    77    28    22   am
    78    28    29    1
    79    22    23    2
    80    73    74    1
    81    95    94    1
    82    95    97   ar
    83    36    35    1
    84   102    99    1
    85    94    91    1
    86   117   116   ar
    87    30    29    1
    88    30    31    2
    89    32    33    1
    90    32    29    1
    91    32    34    1
    92    99    98    1
    93    99   100    1
    94   148   149    1
    95   148   147    1
    96    85    84    1
    97   149   150    2
    98   116   118   ar
    99   116   115    1
   100    84    81    1
   101    91    90    1
   102    91    92    1
   103   110   100   am
   104   110   111    1
   105    90    88   am
   106    83    82    2
   107    88    89    2
   108    88    87    1
   109   113   112    2
   110   100   101    2
   111    93    92    2
   112    87    86    1
   113   114   115    1
   114   114   111    1
   115    82    86   am
   116    82    81    1
   117   111   112    1
   118   125   127   ar
   119   125   124   ar
   120    81    80    1
   121   112   119   am
   122   127   128   ar
   123   123   124    1
   124   123   120    1
   125   124   126   ar
   126   122   121    2
   127   119   120    1
   128   128   126   ar
   129   120   121    1
   130   121   129   am
   131   141   142    1
   132   141   131   am
   133   129   130    1
   134   130   131    1
   135   130   133    1
   136   135   137   ar
   137   135   134   ar
   138   142   143    1
   139   142   145    1
   140   137   139   ar
   141   131   132    2
   142   143   144    2
   143   146   145    1
   144   133   134    1
   145   134   136   ar
   146   139   140    1
   147   139   138   ar
   148   136   138   ar
