@<TRIPOS>MOLECULE
tmp/3kasB03.pdb
 131 123 0 0 0
SMALL
GASTEIGER

@<TRIPOS>ATOM
      1  N        -46.8570   58.1900   14.2780 N.3    31  SER31      -0.1217
      2  CA       -47.8530   57.1230   14.3610 C.3    31  SER31       0.1889
      3  C        -47.1960   55.8590   14.9000 C.2    31  SER31       0.2288
      4  O        -46.0270   55.5870   14.6310 O.2    31  SER31      -0.2866
      5  CB       -48.4140   56.8100   12.9770 C.3    31  SER31       0.2089
      6  OG       -47.3940   56.2760   12.1490 O.3    31  SER31      -0.2183
      7  N        -49.5080   52.9730   15.2500 N.3    33  LEU33      -0.1231
      8  CA       -50.4500   51.9320   14.8030 C.3    33  LEU33       0.1693
      9  C        -50.5780   51.8310   13.2760 C.2    33  LEU33       0.2592
     10  O        -50.3720   52.8040   12.5490 O.2    33  LEU33      -0.2718
     11  CB       -51.8320   52.1540   15.4120 C.3    33  LEU33       0.0284
     12  CG       -51.8160   52.3790   16.9200 C.3    33  LEU33       0.0019
     13  CD1      -53.2260   52.5530   17.4570 C.3    33  LEU33       0.0001
     14  CD2      -51.1150   51.2240   17.6040 C.3    33  LEU33       0.0001
     15  N        -50.9210   50.6390   12.8000 N.am   34  MET34      -0.1965
     16  CA       -51.1030   50.4020   11.3740 C.3    34  MET34       0.1736
     17  C        -52.3070   49.5070   11.1480 C.2    34  MET34       0.2616
     18  O        -52.5580   48.5970   11.9390 O.2    34  MET34      -0.2715
     19  CB       -49.8690   49.7340   10.7840 C.3    34  MET34       0.0427
     20  CG       -48.6480   50.6210   10.6970 C.3    34  MET34       0.0599
     21  SD       -47.2150   49.6770   10.1660 S.3    34  MET34      -0.1393
     22  CE       -47.7430   49.1910    8.5210 C.3    34  MET34       0.0692
     23  N        -53.0390   49.7620   10.0640 N.am   35  LYS35      -0.1977
     24  CA       -54.2310   48.9860    9.7300 C.3    35  LYS35       0.1596
     25  C        -53.9210   47.5020    9.7980 C.2    35  LYS35       0.2287
     26  O        -54.7070   46.7090   10.3130 O.2    35  LYS35      -0.2864
     27  CB       -54.7230   49.3350    8.3240 C.3    35  LYS35       0.0298
     28  CG       -55.0380   50.8040    8.1280 C.3    35  LYS35       0.0038
     29  CD       -55.4160   51.1260    6.6850 C.3    35  LYS35       0.0206
     30  CE       -55.7890   52.6040    6.5440 C.3    35  LYS35       0.1093
     31  NZ       -56.1090   53.0070    5.1440 N.3    35  LYS35      -0.1314
     32  N        -57.8440   53.8280   14.3570 N.3    78  LEU78      -0.1245
     33  CA       -57.1920   52.6040   14.7760 C.3    78  LEU78       0.1561
     34  C        -56.9580   52.6470   16.2780 C.2    78  LEU78       0.2260
     35  O        -56.9620   53.7130   16.9000 O.2    78  LEU78      -0.2867
     36  CB       -55.8620   52.4520   14.0530 C.3    78  LEU78       0.0270
     37  CG       -55.9300   52.5800   12.5290 C.3    78  LEU78       0.0019
     38  CD1      -54.5320   52.5810   11.9310 C.3    78  LEU78       0.0001
     39  CD2      -56.7490   51.4440   11.9550 C.3    78  LEU78       0.0001
     40  N        -55.8260   56.1540   17.4850 N.3    91  GLN91      -0.1245
     41  CA       -55.0810   56.9620   16.5330 C.3    91  GLN91       0.1566
     42  C        -55.9460   57.4110   15.3720 C.2    91  GLN91       0.2260
     43  O        -56.4680   56.5900   14.6230 O.2    91  GLN91      -0.2867
     44  CB       -53.8920   56.1540   16.0070 C.3    91  GLN91       0.0367
     45  CG       -53.0680   56.8560   14.9600 C.3    91  GLN91       0.0905
     46  CD       -51.8990   56.0180   14.5090 C.2    91  GLN91       0.2608
     47  OE1      -50.8720   55.9510   15.1870 O.2    91  GLN91      -0.2717
     48  NE2      -52.0450   55.3660   13.3560 N.am   91  GLN91      -0.0878
     49  N        -56.1100   59.4520   11.7980 N.3    93  ASN93      -0.1240
     50  CA       -55.2380   59.9590   10.7350 C.3    93  ASN93       0.1653
     51  C        -55.7990   61.2500   10.1500 C.2    93  ASN93       0.2266
     52  O        -56.7280   61.2150    9.3430 O.2    93  ASN93      -0.2867
     53  CB       -55.0660   58.9060    9.6370 C.3    93  ASN93       0.1155
     54  CG       -53.8620   59.1720    8.7320 C.2    93  ASN93       0.2627
     55  OD1      -53.4080   60.3080    8.5750 O.2    93  ASN93      -0.2716
     56  ND2      -53.3470   58.1050    8.1230 N.am   93  ASN93      -0.0877
     57  N        -53.9090   63.6150    8.5320 N.3    95  SER95      -0.1217
     58  CA       -52.8970   64.1670    7.6320 C.3    95  SER95       0.1889
     59  C        -53.4630   65.1560    6.6200 C.2    95  SER95       0.2288
     60  O        -54.4790   64.8820    5.9770 O.2    95  SER95      -0.2866
     61  CB       -52.2020   63.0440    6.8750 C.3    95  SER95       0.2089
     62  OG       -51.6650   62.0870    7.7680 O.3    95  SER95      -0.2183
     63  N        -52.8600   65.3810    3.8440 N.3    97  ALA97      -0.1231
     64  CA       -52.4440   64.6880    2.6340 C.3    97  ALA97       0.1694
     65  C        -53.6910   64.1970    1.9270 C.2    97  ALA97       0.2592
     66  O        -54.7560   64.1190    2.5340 O.2    97  ALA97      -0.2718
     67  CB       -51.5440   63.5300    2.9750 C.3    97  ALA97       0.0304
     68  N        -53.5590   63.8480    0.6540 N.am   98  ASP98      -0.1960
     69  CA       -54.7310   63.7210   -0.2100 C.3    98  ASP98       0.1840
     70  C        -55.8340   62.8210    0.3340 C.2    98  ASP98       0.2622
     71  O        -56.9980   63.2240    0.4190 O.2    98  ASP98      -0.2715
     72  CB       -54.3200   63.2800   -1.6160 C.3    98  ASP98       0.1450
     73  CG       -53.5430   64.3530   -2.3540 C.2    98  ASP98       0.3671
     74  OD1      -54.0680   64.8790   -3.3600 O.co2  98  ASP98      -0.2456
     75  OD2      -52.4150   64.6780   -1.9160 O.co2  98  ASP98      -0.2456
     76  N        -55.4600   61.6080    0.7080 N.am   99  ASP99      -0.1957
     77  CA       -56.4270   60.6070    1.1250 C.3    99  ASP99       0.1840
     78  C        -57.2120   61.0170    2.3870 C.2    99  ASP99       0.2622
     79  O        -58.3750   60.6570    2.5460 O.2    99  ASP99      -0.2715
     80  CB       -55.7120   59.2670    1.3300 C.3    99  ASP99       0.1450
     81  CG       -56.6410   58.0820    1.1990 C.2    99  ASP99       0.3671
     82  OD1      -57.8620   58.3070    1.1050 O.co2  99  ASP99      -0.2456
     83  OD2      -56.1540   56.9290    1.1920 O.co2  99  ASP99      -0.2456
     84  N        -56.5830   61.7800    3.2750 N.am  100  ALA100     -0.1963
     85  CA       -57.2010   62.1080    4.5550 C.3   100  ALA100      0.1728
     86  C        -57.3410   63.6130    4.7730 C.2   100  ALA100      0.2616
     87  O        -57.5130   64.0790    5.9020 O.2   100  ALA100     -0.2715
     88  CB       -56.4010   61.4810    5.6900 C.3   100  ALA100      0.0334
     89  N        -57.2750   64.3710    3.6870 N.am  101  ARG101     -0.1977
     90  CA       -57.1970   65.8210    3.7820 C.3   101  ARG101      0.1597
     91  C        -58.4610   66.4290    4.3600 C.2   101  ARG101      0.2287
     92  O        -58.4140   67.2050    5.3170 O.2   101  ARG101     -0.2864
     93  CB       -56.9230   66.4100    2.4080 C.3   101  ARG101      0.0334
     94  CG       -56.8230   67.9200    2.3820 C.3   101  ARG101      0.0492
     95  CD       -56.5650   68.3930    0.9580 C.3   101  ARG101      0.2205
     96  NE       -55.3040   67.8620    0.4520 N.pl3 101  ARG101     -0.0865
     97  CZ       -54.1270   68.4180    0.7060 C.cat 101  ARG101      0.5346
     98  NH1      -54.0710   69.5150    1.4530 N.pl3 101  ARG101      0.1354
     99  NH2      -53.0110   67.8850    0.2200 N.pl3 101  ARG101      0.1354
    100  N        -48.7440   68.2170    3.0270 N.3   125  GLY125     -0.1210
    101  CA       -48.0210   67.1450    2.3690 C.3   125  GLY125      0.1956
    102  C        -47.4230   66.1560    3.3480 C.2   125  GLY125      0.2612
    103  O        -47.0960   65.0320    2.9810 O.2   125  GLY125     -0.2717
    104  N        -47.2770   66.5780    4.6000 N.am  126  LYS126     -0.1965
    105  CA       -46.7200   65.7240    5.6410 C.3   126  LYS126      0.1728
    106  C        -47.8180   64.9240    6.3310 C.2   126  LYS126      0.2616
    107  O        -48.9960   65.2380    6.2120 O.2   126  LYS126     -0.2715
    108  CB       -45.9600   66.5590    6.6730 C.3   126  LYS126      0.0311
    109  CG       -44.7540   67.3140    6.1250 C.3   126  LYS126      0.0038
    110  CD       -43.6390   66.3640    5.7400 C.3   126  LYS126      0.0206
    111  CE       -42.4320   67.1150    5.2190 C.3   126  LYS126      0.1093
    112  NZ       -41.3690   66.1650    4.7850 N.3   126  LYS126     -0.1314
    113  N        -47.4210   63.8900    7.0600 N.am  127  VAL127     -0.1977
    114  CA       -48.3660   63.0510    7.7840 C.3   127  VAL127      0.1596
    115  C        -48.6370   63.6360    9.1800 C.2   127  VAL127      0.2287
    116  O        -47.7950   64.3530    9.7270 O.2   127  VAL127     -0.2864
    117  CB       -47.8310   61.6090    7.8750 C.3   127  VAL127      0.0276
    118  CG1      -46.8320   61.4670    9.0220 C.3   127  VAL127      0.0022
    119  CG2      -48.9640   60.6390    8.0240 C.3   127  VAL127      0.0022
    120  N        -51.2680   63.0400   13.0250 N.3   129  TYR129     -0.1241
    121  CA       -52.1570   62.1330   13.7430 C.3   129  TYR129      0.1605
    122  C        -52.6890   62.7400   15.0170 C.2   129  TYR129      0.2264
    123  O        -52.0440   63.5860   15.6240 O.2   129  TYR129     -0.2867
    124  CB       -51.4230   60.8250   14.0860 C.3   129  TYR129      0.0534
    125  CG       -50.9000   60.1220   12.8620 C.ar  129  TYR129     -0.0201
    126  CD1      -49.5980   60.3210   12.4300 C.ar  129  TYR129     -0.0009
    127  CD2      -51.7230   59.2920   12.1140 C.ar  129  TYR129     -0.0009
    128  CE1      -49.1210   59.6960   11.3000 C.ar  129  TYR129      0.0417
    129  CE2      -51.2610   58.6670   10.9870 C.ar  129  TYR129      0.0417
    130  CZ       -49.9580   58.8720   10.5810 C.ar  129  TYR129      0.1957
    131  OH       -49.4850   58.2430    9.4540 O.3   129  TYR129     -0.2866
@<TRIPOS>BOND
     1    74    73   ar
     2    73    75   ar
     3    73    72    1
     4    72    69    1
     5    69    70    1
     6    69    68    1
     7    99    97    1
     8    70    71    2
     9    70    76   am
    10    96    97    2
    11    96    95    1
    12    68    65   am
    13    97    98    1
    14    76    77    1
    15    95    94    1
    16    82    81   ar
    17    77    80    1
    18    77    78    1
    19    83    81   ar
    20    81    80    1
    21    65    66    2
    22    65    64    1
    23   101   100    1
    24   101   102    1
    25    94    93    1
    26    78    79    2
    27    78    84   am
    28    93    90    1
    29    64    67    1
    30    64    63    1
    31   103   102    2
    32    84    85    1
    33   102   104   am
    34    89    90    1
    35    89    86   am
    36    90    91    1
    37    91    92    2
    38    85    86    1
    39    85    88    1
    40   104   105    1
    41    86    87    2
    42   112   111    1
    43    31    30    1
    44   111   110    1
    45   105   106    1
    46   105   108    1
    47   110   109    1
    48    60    59    2
    49   109   108    1
    50   107   106    2
    51   106   113   am
    52    30    29    1
    53    59    58    1
    54    29    28    1
    55    61    58    1
    56    61    62    1
    57   113   114    1
    58    58    57    1
    59   114   117    1
    60   114   115    1
    61   117   119    1
    62   117   118    1
    63    56    54   am
    64    28    27    1
    65    27    24    1
    66    22    21    1
    67    55    54    2
    68    54    53    1
    69   115   116    2
    70    52    51    2
    71   131   130    1
    72    53    50    1
    73    24    25    1
    74    24    23    1
    75    25    26    2
    76    23    17   am
    77    51    50    1
    78    21    20    1
    79   130   129   ar
    80   130   128   ar
    81    20    19    1
    82    50    49    1
    83    19    16    1
    84   129   127   ar
    85    17    16    1
    86    17    18    2
    87   128   126   ar
    88    16    15    1
    89    38    37    1
    90    39    37    1
    91   127   125   ar
    92     6     5    1
    93   126   125   ar
    94    37    36    1
    95    10     9    2
    96    15     9   am
    97   125   124    1
    98     5     2    1
    99   120   121    1
   100     9     8    1
   101    48    46   am
   102   121   124    1
   103   121   122    1
   104    36    33    1
   105     1     2    1
   106    32    33    1
   107     2     3    1
   108    46    45    1
   109    46    47    2
   110    43    42    2
   111     4     3    2
   112    33    34    1
   113     8     7    1
   114     8    11    1
   115    45    44    1
   116   122   123    2
   117    42    41    1
   118    11    12    1
   119    44    41    1
   120    34    35    2
   121    41    40    1
   122    12    13    1
   123    12    14    1
