@<TRIPOS>MOLECULE
tmp/3kb1B00.pdb
 158 150 0 0 0
SMALL
GASTEIGER

@<TRIPOS>ATOM
      1  N        -12.3800  -14.5220   28.4320 N.3    23  LYS23      -0.1231
      2  CA       -12.8790  -14.3990   27.0640 C.3    23  LYS23       0.1693
      3  C        -12.2550  -15.4470   26.1350 C.2    23  LYS23       0.2593
      4  O        -11.6480  -16.4160   26.5920 O.2    23  LYS23      -0.2718
      5  CB       -12.5950  -12.9940   26.5160 C.3    23  LYS23       0.0285
      6  CG       -11.1160  -12.6210   26.4460 C.3    23  LYS23       0.0035
      7  CD       -10.9190  -11.2280   25.8460 C.3    23  LYS23       0.0206
      8  CE       -11.1630  -11.1890   24.3590 C.3    23  LYS23       0.1093
      9  NZ       -10.9870   -9.7860   23.8760 N.3    23  LYS23      -0.1314
     10  N        -12.4190  -15.2600   24.8290 N.am   24  GLY24      -0.1942
     11  CA       -11.8460  -16.2070   23.8950 C.3    24  GLY24       0.2014
     12  C        -10.4650  -15.7450   23.4830 C.2    24  GLY24       0.2639
     13  O        -10.0330  -14.6560   23.8750 O.2    24  GLY24      -0.2714
     14  N         -9.7730  -16.5730   22.7030 N.am   25  GLY25      -0.1939
     15  CA        -8.4440  -16.2260   22.2290 C.3    25  GLY25       0.2014
     16  C         -7.3570  -16.3990   23.2690 C.2    25  GLY25       0.2639
     17  O         -6.1910  -16.6160   22.9350 O.2    25  GLY25      -0.2714
     18  N         -7.7530  -16.3030   24.5360 N.am   26  VAL26      -0.1963
     19  CA        -6.8480  -16.4330   25.6770 C.3    26  VAL26       0.1727
     20  C         -6.1030  -17.7800   25.6340 C.2    26  VAL26       0.2617
     21  O         -5.0110  -17.9180   26.1840 O.2    26  VAL26      -0.2715
     22  CB        -7.6540  -16.2930   27.0200 C.3    26  VAL26       0.0290
     23  CG1       -8.1750  -14.8400   27.2150 C.3    26  VAL26       0.0023
     24  CG2       -8.8530  -17.2330   26.9940 C.3    26  VAL26       0.0023
     25  N         -6.6980  -18.7560   24.9490 N.am   27  GLY27      -0.1940
     26  CA        -6.1220  -20.0870   24.8520 C.3    27  GLY27       0.2014
     27  C         -6.5930  -20.9900   25.9840 C.2    27  GLY27       0.2639
     28  O         -5.7690  -21.5850   26.6690 O.2    27  GLY27      -0.2714
     29  N         -7.9110  -21.1060   26.1720 N.am   28  LYS28      -0.1963
     30  CA        -8.5100  -21.9340   27.2370 C.3    28  LYS28       0.1728
     31  C         -8.5210  -23.4160   26.9210 C.2    28  LYS28       0.2617
     32  O         -8.2090  -24.2660   27.7700 O.2    28  LYS28      -0.2715
     33  CB        -9.9560  -21.5040   27.5040 C.3    28  LYS28       0.0311
     34  CG       -10.7570  -22.4950   28.3950 C.3    28  LYS28       0.0038
     35  CD       -12.2240  -22.0920   28.4980 C.3    28  LYS28       0.0206
     36  CE       -12.7410  -21.7190   27.1360 C.3    28  LYS28       0.1093
     37  NZ       -12.4090  -22.8240   26.1930 N.3    28  LYS28      -0.1314
     38  N         -8.9230  -23.7050   25.6900 N.am   29  SER29      -0.1936
     39  CA        -9.0290  -25.0590   25.1730 C.3    29  SER29       0.2055
     40  C         -7.6500  -25.6790   24.9910 C.2    29  SER29       0.2643
     41  O         -7.4760  -26.8630   25.2580 O.2    29  SER29      -0.2714
     42  CB        -9.7930  -25.0410   23.8430 C.3    29  SER29       0.2130
     43  OG       -11.1070  -24.5170   23.9920 O.3    29  SER29      -0.2179
     44  N         -6.6730  -24.8910   24.5340 N.am   30  THR30      -0.1950
     45  CA        -5.3100  -25.4150   24.3510 C.3    30  THR30       0.1897
     46  C         -4.7460  -25.7600   25.7070 C.2    30  THR30       0.2313
     47  O         -4.1070  -26.8060   25.8770 O.2    30  THR30      -0.2863
     48  CB        -4.3420  -24.4060   23.7190 C.3    30  THR30       0.1794
     49  OG1       -4.6640  -24.2220   22.3360 O.3    30  THR30      -0.2208
     50  CG2       -2.8970  -24.9300   23.8240 C.3    30  THR30       0.0378
     51  N        -17.4740  -26.0980   25.2330 N.3    52  ASP52      -0.1239
     52  CA       -17.3490  -24.8370   24.5010 C.3    52  ASP52       0.1674
     53  C        -18.0960  -24.9650   23.1780 C.2    52  ASP52       0.2266
     54  O        -17.5130  -25.3180   22.1580 O.2    52  ASP52      -0.2867
     55  CB       -15.8630  -24.5190   24.2530 C.3    52  ASP52       0.1410
     56  CG       -15.6330  -23.0930   23.7740 C.2    52  ASP52       0.3668
     57  OD1      -14.4520  -22.7050   23.6100 O.co2  52  ASP52      -0.2456
     58  OD2      -16.6260  -22.3630   23.5650 O.co2  52  ASP52      -0.2456
     59  N        -16.9430  -22.2400   20.1950 N.3    55  GLY55      -0.1225
     60  CA       -15.8260  -22.6180   19.3440 C.3    55  GLY55       0.1811
     61  C        -15.1010  -23.8600   19.8420 C.2    55  GLY55       0.2280
     62  O        -14.0800  -23.7420   20.5260 O.2    55  GLY55      -0.2866
     63  N        -12.6030  -26.5310   19.9440 N.3    57  SER57      -0.1217
     64  CA       -11.2900  -26.7700   19.3960 C.3    57  SER57       0.1889
     65  C        -10.6470  -27.9790   20.0130 C.2    57  SER57       0.2288
     66  O         -9.5650  -28.3890   19.6090 O.2    57  SER57      -0.2866
     67  CB       -10.4260  -25.5450   19.6370 C.3    57  SER57       0.2089
     68  OG       -11.0530  -24.6940   20.5840 O.3    57  SER57      -0.2183
     69  N         -7.5860  -30.4540   18.3130 N.3    61  LEU61      -0.1245
     70  CA        -6.2600  -30.4580   18.9310 C.3    61  LEU61       0.1561
     71  C         -5.6620  -31.8570   19.0250 C.2    61  LEU61       0.2260
     72  O         -4.4350  -32.0130   19.0740 O.2    61  LEU61      -0.2867
     73  CB        -6.3540  -29.8750   20.3360 C.3    61  LEU61       0.0270
     74  CG        -6.6280  -28.3880   20.3910 C.3    61  LEU61       0.0019
     75  CD1       -7.2090  -28.0480   21.7150 C.3    61  LEU61       0.0001
     76  CD2       -5.3500  -27.6260   20.1460 C.3    61  LEU61       0.0001
     77  N        -15.9850  -19.7150   26.7630 N.3   120  PRO120     -0.2116
     78  CA       -15.2410  -18.5190   27.1610 C.3   120  PRO120      0.1372
     79  C        -16.0840  -17.5170   27.9170 C.2   120  PRO120      0.2244
     80  O        -17.3100  -17.5260   27.8450 O.2   120  PRO120     -0.2868
     81  CB       -14.7550  -17.9600   25.8280 C.3   120  PRO120      0.0268
     82  CG       -15.8620  -18.3370   24.9010 C.3   120  PRO120      0.0207
     83  CD       -16.1370  -19.7680   25.2980 C.3   120  PRO120      0.0892
     84  N         -1.3460  -17.4350   29.7200 N.3   170  ASN170     -0.1240
     85  CA        -0.9780  -17.9420   28.3850 C.3   170  ASN170      0.1653
     86  C         -0.3670  -16.8910   27.4460 C.2   170  ASN170      0.2266
     87  O         -0.8100  -15.7440   27.4180 O.2   170  ASN170     -0.2867
     88  CB        -2.1980  -18.5990   27.7330 C.3   170  ASN170      0.1155
     89  CG        -1.8650  -19.2730   26.4230 C.2   170  ASN170      0.2627
     90  OD1       -0.6970  -19.5520   26.1290 O.2   170  ASN170     -0.2716
     91  ND2       -2.8890  -19.5520   25.6300 N.am  170  ASN170     -0.0877
     92  N          2.8520  -19.8110   30.3270 N.3   205  ILE205     -0.1231
     93  CA         3.1740  -20.4790   29.0850 C.3   205  ILE205      0.1678
     94  C          3.4640  -19.4290   28.0180 C.2   205  ILE205      0.2434
     95  O          2.6060  -18.6370   27.6750 O.2   205  ILE205     -0.2733
     96  CB         2.0080  -21.3350   28.6050 C.3   205  ILE205      0.0265
     97  CG1        1.5490  -22.2770   29.7130 C.3   205  ILE205      0.0019
     98  CG2        2.4370  -22.1250   27.4030 C.3   205  ILE205      0.0020
     99  CD1        0.3880  -23.1450   29.2790 C.3   205  ILE205      0.0001
    100  N          4.6820  -19.4210   27.4710 N.am  206  PRO206     -0.2718
    101  CA         5.0670  -18.4570   26.4380 C.3   206  PRO206      0.1535
    102  C          4.4190  -18.7840   25.0850 C.2   206  PRO206      0.2598
    103  O          3.8740  -19.8710   24.9100 O.2   206  PRO206     -0.2715
    104  CB         6.5770  -18.6260   26.3880 C.3   206  PRO206      0.0310
    105  CG         6.7370  -20.1060   26.5480 C.3   206  PRO206      0.0237
    106  CD         5.7540  -20.4160   27.6850 C.3   206  PRO206      0.0939
    107  N          4.4780  -17.8340   24.1480 N.am  207  ILE207     -0.1964
    108  CA         3.9460  -18.0160   22.7910 C.3   207  ILE207      0.1727
    109  C          4.9390  -18.9480   22.1230 C.2   207  ILE207      0.2616
    110  O          6.0010  -18.5130   21.6820 O.2   207  ILE207     -0.2715
    111  CB         3.9200  -16.6900   21.9770 C.3   207  ILE207      0.0290
    112  CG1        2.8620  -15.7280   22.5350 C.3   207  ILE207      0.0022
    113  CG2        3.6590  -16.9890   20.5060 C.3   207  ILE207      0.0023
    114  CD1        2.9540  -14.3150   21.9690 C.3   207  ILE207      0.0001
    115  N          4.5850  -20.2260   22.0570 N.am  208  ASP208     -0.1957
    116  CA         5.4540  -21.2490   21.4960 C.3   208  ASP208      0.1840
    117  C          5.0340  -21.6600   20.1010 C.2   208  ASP208      0.2622
    118  O          4.0350  -22.3520   19.9320 O.2   208  ASP208     -0.2715
    119  CB         5.4510  -22.4650   22.4280 C.3   208  ASP208      0.1450
    120  CG         6.3490  -23.5800   21.9370 C.2   208  ASP208      0.3671
    121  OD1        7.3360  -23.2750   21.2160 O.co2 208  ASP208     -0.2456
    122  OD2        6.0710  -24.7580   22.2840 O.co2 208  ASP208     -0.2456
    123  N          5.8070  -21.2480   19.1020 N.am  209  SER209     -0.1950
    124  CA         5.4950  -21.5740   17.7100 C.3   209  SER209      0.1924
    125  C          5.2620  -23.0700   17.5030 C.2   209  SER209      0.2314
    126  O          4.5570  -23.4760   16.5760 O.2   209  SER209     -0.2863
    127  CB         6.6240  -21.1000   16.8000 C.3   209  SER209      0.2116
    128  OG         7.8460  -21.6890   17.1990 O.3   209  SER209     -0.2180
    129  N          3.8390  -25.2530   19.8070 N.3   211  LEU211     -0.1231
    130  CA         2.5000  -25.6060   20.2900 C.3   211  LEU211      0.1693
    131  C          1.4350  -25.1690   19.2850 C.2   211  LEU211      0.2591
    132  O          0.3100  -25.6590   19.2970 O.2   211  LEU211     -0.2718
    133  CB         2.2220  -24.9520   21.6560 C.3   211  LEU211      0.0284
    134  CG         0.8670  -25.2710   22.3100 C.3   211  LEU211      0.0019
    135  CD1        0.6190  -26.7490   22.1440 C.3   211  LEU211      0.0001
    136  CD2        0.8250  -24.8770   23.7800 C.3   211  LEU211      0.0001
    137  N          1.7970  -24.2440   18.4090 N.am  212  LEU212     -0.1980
    138  CA         0.8670  -23.7470   17.4070 C.3   212  LEU212      0.1596
    139  C          0.9180  -24.6500   16.1990 C.2   212  LEU212      0.2287
    140  O         -0.0660  -24.8170   15.4800 O.2   212  LEU212     -0.2864
    141  CB         1.2580  -22.3310   16.9920 C.3   212  LEU212      0.0297
    142  CG         0.4250  -21.6640   15.9100 C.3   212  LEU212      0.0022
    143  CD1       -1.0730  -21.8500   16.1830 C.3   212  LEU212      0.0001
    144  CD2        0.8120  -20.1980   15.8740 C.3   212  LEU212      0.0001
    145  N         -0.7940  -28.0020   17.3150 N.3   215  SER215     -0.1202
    146  CA        -2.2040  -27.8100   17.6110 C.3   215  SER215      0.2020
    147  C         -2.9890  -27.9120   16.3170 C.2   215  SER215      0.2618
    148  O         -4.0630  -28.5110   16.2780 O.2   215  SER215     -0.2717
    149  CB        -2.4440  -26.4420   18.2490 C.3   215  SER215      0.2103
    150  OG        -2.1680  -26.4800   19.6350 O.3   215  SER215     -0.2182
    151  N         -2.4430  -27.3360   15.2540 N.am  216  ASP216     -0.1973
    152  CA        -3.1140  -27.3580   13.9660 C.3   216  ASP216      0.1709
    153  C         -3.0850  -28.7170   13.3190 C.2   216  ASP216      0.2293
    154  O         -4.0670  -29.1430   12.7150 O.2   216  ASP216     -0.2864
    155  CB        -2.4870  -26.3240   13.0520 C.3   216  ASP216      0.1436
    156  CG        -2.4700  -24.9420   13.6790 C.2   216  ASP216      0.3671
    157  OD1       -2.2230  -23.9560   12.9380 O.co2 216  ASP216     -0.2456
    158  OD2       -2.7030  -24.8430   14.9110 O.co2 216  ASP216     -0.2456
@<TRIPOS>BOND
     1   154   153    2
     2   157   156   ar
     3   155   156    1
     4   155   152    1
     5   153   152    1
     6   156   158   ar
     7   152   151    1
     8   151   147   am
     9   140   139    2
    10   144   142    1
    11   142   143    1
    12   142   141    1
    13   139   138    1
    14   148   147    2
    15   147   146    1
    16   126   125    2
    17   127   128    1
    18   127   124    1
    19   141   138    1
    20   145   146    1
    21   138   137    1
    22   125   124    1
    23   146   149    1
    24   124   123    1
    25   149   150    1
    26    69    70    1
    27   137   131   am
    28    70    71    1
    29    70    73    1
    30    71    72    2
    31   123   117   am
    32   131   132    2
    33   131   130    1
    34    60    61    1
    35    60    59    1
    36    64    67    1
    37    64    63    1
    38    64    65    1
    39    66    65    2
    40    67    68    1
    41   129   130    1
    42    61    62    2
    43   118   117    2
    44   117   116    1
    45    76    74    1
    46   130   133    1
    47    73    74    1
    48    74    75    1
    49   113   111    1
    50   121   120   ar
    51   116   115    1
    52   116   119    1
    53   133   134    1
    54   110   109    2
    55   120   122   ar
    56   120   119    1
    57   114   112    1
    58   111   112    1
    59   111   108    1
    60   115   109   am
    61   109   108    1
    62   135   134    1
    63    54    53    2
    64    15    14    1
    65    15    16    1
    66   134   136    1
    67    49    48    1
    68    14    12   am
    69   108   107    1
    70    17    16    2
    71    53    52    1
    72    16    18   am
    73    12    13    2
    74    12    11    1
    75    58    56   ar
    76    57    56   ar
    77    48    50    1
    78    48    45    1
    79    56    55    1
    80    42    43    1
    81    42    39    1
    82     9     8    1
    83    11    10    1
    84   107   102   am
    85    55    52    1
    86    45    44    1
    87    45    46    1
    88     8     7    1
    89    52    51    1
    90    44    40   am
    91    18    19    1
    92    10     3   am
    93    26    25    1
    94    26    27    1
    95    82    83    1
    96    82    81    1
    97   103   102    2
    98    25    20   am
    99    40    39    1
   100    40    41    2
   101   102   101    1
   102    39    38    1
   103    83    77    1
   104    91    89   am
   105    20    19    1
   106    20    21    2
   107    19    22    1
   108    38    31   am
   109    46    47    2
   110    81    78    1
   111     7     6    1
   112    27    29   am
   113    27    28    2
   114    90    89    2
   115     3     4    2
   116     3     2    1
   117    29    30    1
   118    37    36    1
   119   104   101    1
   120   104   105    1
   121    89    88    1
   122   101   100    1
   123     6     5    1
   124     5     2    1
   125   105   106    1
   126    77    78    1
   127    31    30    1
   128    31    32    2
   129    24    22    1
   130    22    23    1
   131     2     1    1
   132    36    35    1
   133    78    79    1
   134    30    33    1
   135    98    96    1
   136    87    86    2
   137    86    85    1
   138   100   106    1
   139   100    94   am
   140    33    34    1
   141    95    94    2
   142    88    85    1
   143    80    79    2
   144    94    93    1
   145    85    84    1
   146    34    35    1
   147    96    93    1
   148    96    97    1
   149    93    92    1
   150    99    97    1
