@<TRIPOS>MOLECULE
tmp/3kb2A00.pdb
 94 91 0 0 0
SMALL
GASTEIGER

@<TRIPOS>ATOM
      1  N        -15.6820   58.0620   57.2390 N.3     9  ASP9       -0.1225
      2  CA       -15.9120   56.7110   57.7420 C.3     9  ASP9        0.1805
      3  C        -17.2220   56.0840   57.2890 C.2     9  ASP9        0.2598
      4  O        -18.1910   56.7750   56.9640 O.2     9  ASP9       -0.2718
      5  CB       -15.9100   56.7090   59.2640 C.3     9  ASP9        0.1424
      6  CG       -14.5380   56.9160   59.8470 C.2     9  ASP9        0.3668
      7  OD1      -14.4240   56.8430   61.0910 O.co2   9  ASP9       -0.2456
      8  OD2      -13.5850   57.1530   59.0720 O.co2   9  ASP9       -0.2456
      9  N        -17.2400   54.7590   57.2930 N.am   10  CYS10      -0.1956
     10  CA       -18.4280   54.0120   56.9220 C.3    10  CYS10       0.1843
     11  C        -18.9360   54.2920   55.5170 C.2    10  CYS10       0.2626
     12  O        -20.1460   54.3730   55.2880 O.2    10  CYS10      -0.2714
     13  CB       -19.5290   54.2870   57.9460 C.3    10  CYS10       0.0997
     14  SG       -19.0780   53.7360   59.6050 S.3    10  CYS10      -0.0797
     15  N        -18.0160   54.4430   54.5740 N.am   11  CYS11      -0.1954
     16  CA       -18.4130   54.6940   53.2020 C.3    11  CYS11       0.1843
     17  C        -17.8940   53.6010   52.2790 C.2    11  CYS11       0.2625
     18  O        -17.6010   53.8490   51.1130 O.2    11  CYS11      -0.2714
     19  CB       -17.9350   56.0760   52.7450 C.3    11  CYS11       0.0997
     20  SG       -18.8510   57.4540   53.5070 S.3    11  CYS11      -0.0797
     21  N        -17.7840   52.3940   52.8230 N.am   12  PHE12      -0.1960
     22  CA       -17.3530   51.2260   52.0750 C.3    12  PHE12       0.1771
     23  C        -15.9040   51.2300   51.5890 C.2    12  PHE12       0.2619
     24  O        -15.5150   50.3600   50.8130 O.2    12  PHE12      -0.2715
     25  CB       -18.2870   51.0090   50.8670 C.3    12  PHE12       0.0574
     26  CG       -19.7740   51.0370   51.2020 C.ar   12  PHE12      -0.0200
     27  CD1      -20.2270   50.8260   52.5020 C.ar   12  PHE12      -0.0042
     28  CD2      -20.7260   51.2120   50.1930 C.ar   12  PHE12      -0.0042
     29  CE1      -21.5980   50.7850   52.7870 C.ar   12  PHE12      -0.0003
     30  CE2      -22.0960   51.1680   50.4810 C.ar   12  PHE12      -0.0003
     31  CZ       -22.5270   50.9550   51.7700 C.ar   12  PHE12      -0.0000
     32  N        -15.0960   52.1810   52.0470 N.am   13  LYS13      -0.1963
     33  CA       -13.7090   52.2500   51.5890 C.3    13  LYS13       0.1728
     34  C        -12.9320   50.9440   51.7070 C.2    13  LYS13       0.2617
     35  O        -12.3950   50.4490   50.7180 O.2    13  LYS13      -0.2715
     36  CB       -12.9630   53.3820   52.3100 C.3    13  LYS13       0.0311
     37  CG       -13.5860   54.7510   52.0450 C.3    13  LYS13       0.0038
     38  CD       -12.6510   55.9000   52.3930 C.3    13  LYS13       0.0206
     39  CE       -12.1040   55.7680   53.8010 C.3    13  LYS13       0.1093
     40  NZ       -13.2000   55.5930   54.7580 N.3    13  LYS13      -0.1314
     41  N        -12.8860   50.3760   52.9080 N.am   14  SER14      -0.1936
     42  CA       -12.1480   49.1380   53.1350 C.3    14  SER14       0.2055
     43  C        -12.7350   47.9170   52.4430 C.2    14  SER14       0.2643
     44  O        -12.0090   47.0030   52.0430 O.2    14  SER14      -0.2714
     45  CB       -12.0300   48.8950   54.6300 C.3    14  SER14       0.2130
     46  OG       -11.1850   49.8920   55.1780 O.3    14  SER14      -0.2179
     47  N        -14.0580   47.9110   52.3120 N.am   15  THR15      -0.1950
     48  CA       -14.7780   46.8300   51.6470 C.3    15  THR15       0.1897
     49  C        -14.4140   46.9150   50.1650 C.2    15  THR15       0.2313
     50  O        -14.0000   45.9270   49.5600 O.2    15  THR15      -0.2863
     51  CB       -16.3020   47.0090   51.8170 C.3    15  THR15       0.1794
     52  OG1      -16.6070   47.0440   53.2130 O.3    15  THR15      -0.2208
     53  CG2      -17.0730   45.8560   51.1720 C.3    15  THR15       0.0378
     54  N        -25.1020   54.6770   59.8690 N.3   110  ARG110     -0.1245
     55  CA       -24.1120   53.6240   59.8780 C.3   110  ARG110      0.1563
     56  C        -23.2920   53.6310   61.1530 C.2   110  ARG110      0.2260
     57  O        -22.8140   52.5900   61.5790 O.2   110  ARG110     -0.2867
     58  CB       -23.2300   53.7460   58.6370 C.3   110  ARG110      0.0307
     59  CG       -24.0310   53.5410   57.3620 C.3   110  ARG110      0.0489
     60  CD       -23.1910   53.6520   56.1130 C.3   110  ARG110      0.2205
     61  NE       -24.0230   53.4270   54.9390 N.pl3 110  ARG110     -0.0865
     62  CZ       -23.6850   53.7660   53.7020 C.cat 110  ARG110      0.5346
     63  NH1      -22.5160   54.3520   53.4640 N.pl3 110  ARG110      0.1354
     64  NH2      -24.5340   53.5340   52.7090 N.pl3 110  ARG110      0.1354
     65  N        -25.5690   51.9730   64.0020 N.3   113  VAL113     -0.1231
     66  CA       -25.5270   50.5230   63.8970 C.3   113  VAL113      0.1692
     67  C        -24.1450   49.9630   64.2040 C.2   113  VAL113      0.2591
     68  O        -24.0230   48.8860   64.7860 O.2   113  VAL113     -0.2718
     69  CB       -25.9570   50.0400   62.5030 C.3   113  VAL113      0.0266
     70  CG1      -27.3660   50.5130   62.2110 C.3   113  VAL113      0.0020
     71  CG2      -24.9950   50.5420   61.4580 C.3   113  VAL113      0.0020
     72  N        -23.1030   50.6840   63.8130 N.am  114  ARG114     -0.1980
     73  CA       -21.7500   50.2200   64.0800 C.3   114  ARG114      0.1597
     74  C        -21.5460   50.1340   65.5920 C.2   114  ARG114      0.2287
     75  O        -20.7660   49.3160   66.0860 O.2   114  ARG114     -0.2864
     76  CB       -20.7280   51.1880   63.4800 C.3   114  ARG114      0.0334
     77  CG       -19.2900   50.8310   63.8120 C.3   114  ARG114      0.0492
     78  CD       -18.4530   52.0750   64.0620 C.3   114  ARG114      0.2205
     79  NE       -17.6530   52.4700   62.9050 N.pl3 114  ARG114     -0.0865
     80  CZ       -16.7970   53.4870   62.9060 C.cat 114  ARG114      0.5346
     81  NH1      -16.6300   54.2160   64.0050 N.pl3 114  ARG114      0.1354
     82  NH2      -16.0990   53.7700   61.8140 N.pl3 114  ARG114      0.1354
     83  N        -23.6800   50.2840   45.9170 N.3   150  SER150     -0.1202
     84  CA       -23.1030   49.2370   46.7850 C.3   150  SER150      0.2020
     85  C        -21.6100   49.0300   46.5080 C.2   150  SER150      0.2619
     86  O        -21.1250   49.3860   45.4390 O.2   150  SER150     -0.2717
     87  CB       -23.8310   47.9100   46.5670 C.3   150  SER150      0.2103
     88  OG       -23.4750   47.3470   45.3180 O.3   150  SER150     -0.2182
     89  N        -20.8800   48.4400   47.4530 N.am  151  SER151     -0.1951
     90  CA       -19.4480   48.2240   47.2510 C.3   151  SER151      0.1924
     91  C        -19.1750   47.3380   46.0380 C.2   151  SER151      0.2314
     92  O        -18.1230   47.4430   45.4170 O.2   151  SER151     -0.2863
     93  CB       -18.7850   47.6360   48.5080 C.3   151  SER151      0.2116
     94  OG       -19.4270   46.4620   48.9600 O.3   151  SER151     -0.2180
@<TRIPOS>BOND
     1    88    87    1
     2    92    91    2
     3    86    85    2
     4    83    84    1
     5    91    90    1
     6    85    84    1
     7    85    89   am
     8    87    84    1
     9    90    89    1
    10    90    93    1
    11    93    94    1
    12    50    49    2
    13    49    48    1
    14    28    30   ar
    15    28    26   ar
    16    30    31   ar
    17    35    34    2
    18    24    23    2
    19    25    26    1
    20    25    22    1
    21    18    17    2
    22    53    51    1
    23    26    27   ar
    24    33    34    1
    25    33    32    1
    26    33    36    1
    27    23    32   am
    28    23    22    1
    29    48    51    1
    30    48    47    1
    31    34    41   am
    32    31    29   ar
    33    51    52    1
    34    44    43    2
    35    37    36    1
    36    37    38    1
    37    22    21    1
    38    17    21   am
    39    17    16    1
    40    47    43   am
    41    38    39    1
    42    43    42    1
    43    27    29   ar
    44    64    62    1
    45    19    16    1
    46    19    20    1
    47    41    42    1
    48    42    45    1
    49    16    15    1
    50    63    62    1
    51    62    61    2
    52    39    40    1
    53    15    11   am
    54    45    46    1
    55    61    60    1
    56    12    11    2
    57    11    10    1
    58    60    59    1
    59    10     9    1
    60    10    13    1
    61     4     3    2
    62     1     2    1
    63     3     9   am
    64     3     2    1
    65    59    58    1
    66     2     5    1
    67    13    14    1
    68    58    55    1
    69     8     6   ar
    70     5     6    1
    71     6     7   ar
    72    54    55    1
    73    55    56    1
    74    56    57    2
    75    71    69    1
    76    82    80    1
    77    70    69    1
    78    69    66    1
    79    79    80    2
    80    79    78    1
    81    80    81    1
    82    76    77    1
    83    76    73    1
    84    77    78    1
    85    72    73    1
    86    72    67   am
    87    66    65    1
    88    66    67    1
    89    73    74    1
    90    67    68    2
    91    74    75    2
