@<TRIPOS>MOLECULE
tmp/3kb7A00.pdb
 198 185 0 0 0
SMALL
GASTEIGER

@<TRIPOS>ATOM
      1  N         49.6500   -3.6970   15.5450 N.3    19  ARG19      -0.1245
      2  CA        50.5460   -4.7960   15.8260 C.3    19  ARG19       0.1563
      3  C         50.2150   -6.0470   14.9970 C.2    19  ARG19       0.2260
      4  O         49.0610   -6.4500   14.9140 O.2    19  ARG19      -0.2867
      5  CB        50.4720   -5.0410   17.3390 C.3    19  ARG19       0.0307
      6  CG        50.6430   -6.4640   17.8290 C.3    19  ARG19       0.0489
      7  CD        51.5330   -6.5200   19.0960 C.3    19  ARG19       0.2205
      8  NE        51.5210   -5.2790   19.8960 N.pl3  19  ARG19      -0.0865
      9  CZ        52.5210   -4.3870   19.9520 C.cat  19  ARG19       0.5346
     10  NH1       53.6520   -4.5700   19.2640 N.pl3  19  ARG19       0.1354
     11  NH2       52.3880   -3.3000   20.7040 N.pl3  19  ARG19       0.1354
     12  N         49.7710   -9.8600   14.4620 N.3    21  LEU21      -0.1231
     13  CA        49.4280  -11.0190   15.2930 C.3    21  LEU21       0.1693
     14  C         49.9960  -12.3740   14.8050 C.2    21  LEU21       0.2593
     15  O         50.7730  -13.0090   15.5220 O.2    21  LEU21      -0.2718
     16  CB        47.9220  -11.0760   15.5360 C.3    21  LEU21       0.0284
     17  CG        47.2550   -9.7450   15.9110 C.3    21  LEU21       0.0019
     18  CD1       45.7790   -9.9230   16.0200 C.3    21  LEU21       0.0001
     19  CD2       47.7760   -9.1220   17.1830 C.3    21  LEU21       0.0001
     20  N         49.6120  -12.8120   13.6070 N.am   22  GLY22      -0.1942
     21  CA        50.0510  -14.0950   13.0340 C.3    22  GLY22       0.2014
     22  C         49.7550  -14.1980   11.5400 C.2    22  GLY22       0.2639
     23  O         49.1630  -13.2950   10.9440 O.2    22  GLY22      -0.2714
     24  N         50.1690  -15.2930   10.9120 N.am   23  LYS23      -0.1963
     25  CA        49.9380  -15.4310    9.4730 C.3    23  LYS23       0.1728
     26  C         49.5450  -16.8610    9.1070 C.2    23  LYS23       0.2616
     27  O         49.8480  -17.7900    9.8490 O.2    23  LYS23      -0.2715
     28  CB        51.1600  -14.9210    8.6800 C.3    23  LYS23       0.0311
     29  CG        52.0510  -15.9760    8.0080 C.3    23  LYS23       0.0038
     30  CD        53.5340  -15.6120    8.0680 C.3    23  LYS23       0.0206
     31  CE        53.8230  -14.2010    7.5540 C.3    23  LYS23       0.1093
     32  NZ        55.1320  -13.6540    8.0830 N.3    23  LYS23      -0.1314
     33  N         48.8690  -17.0370    7.9730 N.am   24  GLY24      -0.1955
     34  CA        48.4740  -18.3730    7.5240 C.3    24  GLY24       0.1869
     35  C         47.6790  -18.4010    6.2320 C.2    24  GLY24       0.2309
     36  O         46.8440  -17.5220    5.9840 O.2    24  GLY24      -0.2863
     37  N         47.1560  -11.2510    9.9040 N.3    29  CYS29      -0.1235
     38  CA        46.2950  -10.5580   10.8720 C.3    29  CYS29       0.1677
     39  C         47.0100   -9.5360   11.7290 C.2    29  CYS29       0.2270
     40  O         48.0920   -9.7900   12.2490 O.2    29  CYS29      -0.2867
     41  CB        45.5870  -11.5410   11.7980 C.3    29  CYS29       0.0956
     42  SG        44.6800  -12.7570   10.9240 S.3    29  CYS29      -0.0801
     43  N         46.3060   -6.2460   14.7680 N.3    31  GLU31      -0.1245
     44  CA        45.4940   -5.4570   15.6730 C.3    31  GLU31       0.1567
     45  C         45.1020   -4.2140   14.8970 C.2    31  GLU31       0.2260
     46  O         45.9340   -3.5720   14.2710 O.2    31  GLU31      -0.2867
     47  CB        46.3320   -5.0600   16.9020 C.3    31  GLU31       0.0388
     48  CG        45.5320   -4.7360   18.1710 C.3    31  GLU31       0.1160
     49  CD        46.3970   -4.7400   19.4460 C.2    31  GLU31       0.3649
     50  OE1       46.1850   -3.8550   20.3030 O.co2  31  GLU31      -0.2457
     51  OE2       47.2960   -5.6120   19.6010 O.co2  31  GLU31      -0.2457
     52  N         40.5440   -7.4350   15.5130 N.3    42  ALA42      -0.1245
     53  CA        41.5580   -8.0890   14.6760 C.3    42  ALA42       0.1562
     54  C         41.1520   -7.9980   13.2000 C.2    42  ALA42       0.2260
     55  O         40.0050   -8.3040   12.8500 O.2    42  ALA42      -0.2867
     56  CB        41.7390   -9.5420   15.0780 C.3    42  ALA42       0.0290
     57  N         41.7640   -9.4500    9.4650 N.3    44  LYS44      -0.1245
     58  CA        42.3220  -10.5020    8.6210 C.3    44  LYS44       0.1561
     59  C         42.4320   -9.9400    7.1830 C.2    44  LYS44       0.2260
     60  O         41.4520   -9.4760    6.6090 O.2    44  LYS44      -0.2867
     61  CB        41.4520  -11.7700    8.7050 C.3    44  LYS44       0.0271
     62  CG        42.0110  -13.0140    8.0180 C.3    44  LYS44       0.0035
     63  CD        41.1950  -14.2940    8.3480 C.3    44  LYS44       0.0206
     64  CE        41.9960  -15.5210    7.9710 C.3    44  LYS44       0.1093
     65  NZ        41.2500  -16.7870    8.0090 N.3    44  LYS44      -0.1314
     66  N         34.4280  -18.3830    3.1900 N.3    63  GLU63      -0.1245
     67  CA        34.8690  -18.1870    4.5600 C.3    63  GLU63       0.1567
     68  C         34.0400  -17.1120    5.2440 C.2    63  GLU63       0.2260
     69  O         33.7870  -17.1910    6.4410 O.2    63  GLU63      -0.2867
     70  CB        36.3580  -17.8020    4.6250 C.3    63  GLU63       0.0388
     71  CG        36.8820  -17.6710    6.0720 C.3    63  GLU63       0.1160
     72  CD        38.3350  -17.2570    6.1950 C.2    63  GLU63       0.3649
     73  OE1       39.1340  -17.5440    5.2980 O.co2  63  GLU63      -0.2457
     74  OE2       38.6990  -16.6480    7.2200 O.co2  63  GLU63      -0.2457
     75  N         31.2960  -17.4510    8.1500 N.3    67  HIS67      -0.1241
     76  CA        31.6760  -16.7470    9.3640 C.3    67  HIS67       0.1621
     77  C         30.7240  -15.6160    9.7000 C.2    67  HIS67       0.2264
     78  O         30.3730  -15.4070   10.8700 O.2    67  HIS67      -0.2867
     79  CB        33.0980  -16.2190    9.2300 C.3    67  HIS67       0.0745
     80  CG        33.7710  -15.9660   10.5380 C.ar   67  HIS67       0.0817
     81  ND1       35.1410  -15.9710   10.6800 N.ar   67  HIS67      -0.2268
     82  CD2       33.2660  -15.7070   11.7700 C.ar   67  HIS67       0.1154
     83  CE1       35.4520  -15.7010   11.9340 C.ar   67  HIS67       0.1986
     84  NE2       34.3320  -15.5420   12.6150 N.ar   67  HIS67      -0.2212
     85  N         34.9030  -16.8050   17.3400 N.3    76  VAL76      -0.1245
     86  CA        35.4070  -15.4660   17.0880 C.3    76  VAL76       0.1561
     87  C         34.3170  -14.6820   16.3670 C.2    76  VAL76       0.2260
     88  O         34.0110  -14.9950   15.2250 O.2    76  VAL76      -0.2867
     89  CB        36.6970  -15.5080   16.1980 C.3    76  VAL76       0.0252
     90  CG1       37.1360  -14.0990   15.7500 C.3    76  VAL76       0.0019
     91  CG2       37.8080  -16.2050   16.9040 C.3    76  VAL76       0.0019
     92  N         37.5130   -8.6980   12.8550 N.3    92  LEU92      -0.1231
     93  CA        37.0920   -9.7380   13.8120 C.3    92  LEU92       0.1693
     94  C         37.3180   -9.3380   15.2640 C.2    92  LEU92       0.2592
     95  O         38.0430   -8.3740   15.5500 O.2    92  LEU92      -0.2718
     96  CB        37.7880  -11.0730   13.5050 C.3    92  LEU92       0.0284
     97  CG        37.6950  -11.5490   12.0580 C.3    92  LEU92       0.0019
     98  CD1       38.7260  -12.5670   11.7580 C.3    92  LEU92       0.0001
     99  CD2       36.2710  -12.0220   11.6840 C.3    92  LEU92       0.0001
    100  N         36.6890  -10.0830   16.1700 N.am   93  GLU93      -0.1966
    101  CA        36.8610   -9.9000   17.6180 C.3    93  GLU93       0.1733
    102  C         38.3130  -10.1870   18.0080 C.2    93  GLU93       0.2616
    103  O         38.8290  -11.2630   17.7090 O.2    93  GLU93      -0.2715
    104  CB        35.8870  -10.8420   18.3550 C.3    93  GLU93       0.0429
    105  CG        36.1710  -11.0860   19.8330 C.3    93  GLU93       0.1163
    106  CD        35.1500  -12.0070   20.4810 C.2    93  GLU93       0.3649
    107  OE1       34.5670  -12.8900   19.8000 O.co2  93  GLU93      -0.2457
    108  OE2       34.9140  -11.8510   21.6960 O.co2  93  GLU93      -0.2457
    109  N         38.9910   -9.2290   18.6290 N.am   94  LEU94      -0.1963
    110  CA        40.3620   -9.4510   19.0630 C.3    94  LEU94       0.1728
    111  C         40.3870  -10.3560   20.3240 C.2    94  LEU94       0.2616
    112  O         39.6110  -10.1620   21.2730 O.2    94  LEU94      -0.2715
    113  CB        41.0860   -8.1190   19.3140 C.3    94  LEU94       0.0311
    114  CG        42.5830   -8.1830   19.6920 C.3    94  LEU94       0.0022
    115  CD1       43.5090   -8.5240   18.4890 C.3    94  LEU94       0.0001
    116  CD2       43.0320   -6.8740   20.3230 C.3    94  LEU94       0.0001
    117  N         41.2660  -11.3540   20.2890 N.am   95  CYS95      -0.1954
    118  CA        41.4900  -12.2670   21.4000 C.3    95  CYS95       0.1843
    119  C         42.8950  -12.0230   21.9430 C.2    95  CYS95       0.2625
    120  O         43.8720  -12.5640   21.4260 O.2    95  CYS95      -0.2714
    121  CB        41.3010  -13.7120   20.9460 C.3    95  CYS95       0.0997
    122  SG        39.6290  -14.0460   20.2750 S.3    95  CYS95      -0.0797
    123  N         42.9860  -11.1990   22.9870 N.am   96  ARG96      -0.1977
    124  CA        44.2680  -10.6670   23.4350 C.3    96  ARG96       0.1597
    125  C         45.2910  -11.6980   23.9600 C.2    96  ARG96       0.2287
    126  O         46.4970  -11.4140   24.0160 O.2    96  ARG96      -0.2864
    127  CB        44.0470   -9.5280   24.4420 C.3    96  ARG96       0.0334
    128  CG        43.5150   -8.2130   23.8160 C.3    96  ARG96       0.0492
    129  CD        43.2170   -7.1650   24.9480 C.3    96  ARG96       0.2205
    130  NE        42.8150   -5.8230   24.4760 N.pl3  96  ARG96      -0.0865
    131  CZ        43.5750   -5.0050   23.7290 C.cat  96  ARG96       0.5346
    132  NH1       44.7870   -5.3810   23.3130 N.pl3  96  ARG96       0.1354
    133  NH2       43.1110   -3.8110   23.3690 N.pl3  96  ARG96       0.1354
    134  N         46.0380  -14.6300   22.6040 N.3    98  ARG98      -0.1231
    135  CA        46.5200  -15.4860   21.5380 C.3    98  ARG98       0.1694
    136  C         45.6490  -16.7420   21.3790 C.2    98  ARG98       0.2592
    137  O         44.4230  -16.6080   21.3020 O.2    98  ARG98      -0.2718
    138  CB        48.0030  -15.7830   21.7670 C.3    98  ARG98       0.0321
    139  CG        48.8530  -14.5500   22.0560 C.3    98  ARG98       0.0489
    140  CD        50.2520  -14.9500   22.5020 C.3    98  ARG98       0.2205
    141  NE        51.2820  -14.0270   22.0090 N.pl3  98  ARG98      -0.0865
    142  CZ        51.8430  -14.0650   20.7860 C.cat  98  ARG98       0.5346
    143  NH1       51.4940  -14.9850   19.8820 N.pl3  98  ARG98       0.1354
    144  NH2       52.7620  -13.1630   20.4490 N.pl3  98  ARG98       0.1354
    145  N         46.2570  -17.9350   21.3580 N.am   99  SER99      -0.1952
    146  CA        45.5240  -19.2020   21.2010 C.3    99  SER99       0.1924
    147  C         46.0350  -20.3650   22.0840 C.2    99  SER99       0.2314
    148  O         47.1040  -20.2840   22.7110 O.2    99  SER99      -0.2863
    149  CB        45.6000  -19.6630   19.7310 C.3    99  SER99       0.2116
    150  OG        46.8140  -20.3630   19.4720 O.3    99  SER99      -0.2180
    151  N         47.4900  -22.8840   21.0760 N.3   101  LEU101     -0.1231
    152  CA        48.7780  -23.3480   20.6150 C.3   101  LEU101      0.1693
    153  C         49.9080  -22.7360   21.4430 C.2   101  LEU101      0.2591
    154  O         50.8520  -23.4430   21.7960 O.2   101  LEU101     -0.2718
    155  CB        49.0000  -23.0840   19.1110 C.3   101  LEU101      0.0284
    156  CG        50.3310  -23.6430   18.5520 C.3   101  LEU101      0.0019
    157  CD1       50.4050  -25.1940   18.6150 C.3   101  LEU101      0.0001
    158  CD2       50.6270  -23.1140   17.1290 C.3   101  LEU101      0.0001
    159  N         49.8090  -21.4400   21.7550 N.am  102  GLU102     -0.1979
    160  CA        50.8840  -20.7660   22.5010 C.3   102  GLU102      0.1602
    161  C         50.8860  -21.1790   23.9630 C.2   102  GLU102      0.2287
    162  O         51.9480  -21.3330   24.5560 O.2   102  GLU102     -0.2864
    163  CB        50.8500  -19.2400   22.3640 C.3   102  GLU102      0.0415
    164  CG        51.2120  -18.7060   20.9470 C.3   102  GLU102      0.1163
    165  CD        50.1080  -18.9350   19.9250 C.2   102  GLU102      0.3649
    166  OE1       48.9220  -19.0160   20.3150 O.co2 102  GLU102     -0.2457
    167  OE2       50.4300  -19.0400   18.7240 O.co2 102  GLU102     -0.2457
    168  N         46.0000  -23.8940   17.3240 N.3   142  GLY142     -0.1210
    169  CA        46.1740  -22.5410   16.7890 C.3   142  GLY142      0.1956
    170  C         44.9220  -21.8380   16.2800 C.2   142  GLY142      0.2611
    171  O         44.9690  -20.6470   16.0580 O.2   142  GLY142     -0.2717
    172  N         43.8220  -22.5820   16.0820 N.am  143  ASN143     -0.1974
    173  CA        42.4900  -22.0340   15.7440 C.3   143  ASN143      0.1688
    174  C         41.5830  -21.8250   16.9450 C.2   143  ASN143      0.2292
    175  O         40.4430  -21.3800   16.7850 O.2   143  ASN143     -0.2864
    176  CB        41.7320  -22.9400   14.7560 C.3   143  ASN143      0.1181
    177  CG        42.2270  -22.7900   13.3430 C.2   143  ASN143      0.2629
    178  OD1       42.9210  -21.8240   13.0150 O.2   143  ASN143     -0.2716
    179  ND2       41.8910  -23.7440   12.4940 N.am  143  ASN143     -0.0877
    180  N         41.2080  -19.6760   20.0630 N.3   145  PHE145     -0.1241
    181  CA        41.7580  -18.4240   20.5560 C.3   145  PHE145      0.1605
    182  C         41.2420  -18.0540   21.9410 C.2   145  PHE145      0.2264
    183  O         40.1070  -18.3670   22.3050 O.2   145  PHE145     -0.2867
    184  CB        41.3480  -17.2940   19.6280 C.3   145  PHE145      0.0534
    185  CG        41.9310  -17.3880   18.2760 C.ar  145  PHE145     -0.0203
    186  CD1       43.2180  -16.9050   18.0260 C.ar  145  PHE145     -0.0042
    187  CD2       41.2080  -17.9560   17.2360 C.ar  145  PHE145     -0.0042
    188  CE1       43.7530  -16.9860   16.7610 C.ar  145  PHE145     -0.0003
    189  CE2       41.7560  -18.0540   15.9800 C.ar  145  PHE145     -0.0003
    190  CZ        43.0250  -17.5670   15.7430 C.ar  145  PHE145     -0.0000
    191  N         38.9140  -19.1040   12.4360 N.3   156  ASP156     -0.1239
    192  CA        39.3890  -19.5790   11.1260 C.3   156  ASP156      0.1674
    193  C         38.4230  -20.5160   10.4490 C.2   156  ASP156      0.2266
    194  O         38.4830  -21.7510   10.5780 O.2   156  ASP156     -0.2867
    195  CB        40.8030  -20.1760   11.1550 C.3   156  ASP156      0.1410
    196  CG        41.4450  -20.2060    9.7500 C.2   156  ASP156      0.3668
    197  OD1       40.6900  -20.2670    8.7200 O.co2 156  ASP156     -0.2456
    198  OD2       42.6990  -20.1530    9.6720 O.co2 156  ASP156     -0.2456
@<TRIPOS>BOND
     1    66    67    1
     2    67    70    1
     3    67    68    1
     4    70    71    1
     5    68    69    2
     6    73    72   ar
     7    36    35    2
     8    71    72    1
     9    72    74   ar
    10    35    34    1
    11    60    59    2
    12    59    58    1
    13    34    33    1
    14    31    30    1
    15    31    32    1
    16    64    65    1
    17    64    63    1
    18    33    26   am
    19    29    30    1
    20    29    28    1
    21    62    63    1
    22    62    61    1
    23    75    76    1
    24    58    61    1
    25    58    57    1
    26    28    25    1
    27   197   196   ar
    28    26    25    1
    29    26    27    2
    30    79    76    1
    31    79    80    1
    32    76    77    1
    33    25    24    1
    34   198   196   ar
    35    77    78    2
    36   196   195    1
    37    37    38    1
    38   193   194    2
    39   193   192    1
    40    80    81   ar
    41    80    82   ar
    42    81    83   ar
    43    38    39    1
    44    38    41    1
    45    24    22   am
    46    42    41    1
    47    23    22    2
    48   192   195    1
    49   192   191    1
    50    22    21    1
    51    99    97    1
    52    39    40    2
    53    98    97    1
    54    82    84   ar
    55    83    84   ar
    56    97    96    1
    57   179   177   am
    58    55    54    2
    59    92    93    1
    60   178   177    2
    61    21    20    1
    62    54    53    1
    63   177   176    1
    64    96    93    1
    65    20    14   am
    66    93    94    1
    67    46    45    2
    68    12    13    1
    69    53    56    1
    70    53    52    1
    71   176   173    1
    72    43    44    1
    73    14    13    1
    74    14    15    2
    75    45    44    1
    76     4     3    2
    77     3     2    1
    78    88    87    2
    79    94    95    2
    80    94   100   am
    81    13    16    1
    82    16    17    1
    83     1     2    1
    84    44    47    1
    85   190   189   ar
    86   190   188   ar
    87   173   172    1
    88   173   174    1
    89    90    89    1
    90     2     5    1
    91    17    18    1
    92    17    19    1
    93   189   187   ar
    94   171   170    2
    95   172   170   am
    96   100   101    1
    97    89    91    1
    98    89    86    1
    99   170   169    1
   100    87    86    1
   101   188   186   ar
   102   175   174    2
   103   169   168    1
   104    47    48    1
   105    86    85    1
   106   158   156    1
   107   187   185   ar
   108     5     6    1
   109   101   102    1
   110   101   104    1
   111   103   102    2
   112     6     7    1
   113   102   109   am
   114   186   185   ar
   115    48    49    1
   116   185   184    1
   117   104   105    1
   118   115   114    1
   119   156   157    1
   120   156   155    1
   121   109   110    1
   122   167   165   ar
   123   110   113    1
   124   110   111    1
   125     7     8    1
   126   155   152    1
   127    10     9    1
   128   113   114    1
   129    49    51   ar
   130    49    50   ar
   131   150   149    1
   132   184   181    1
   133   114   116    1
   134   149   146    1
   135   107   106   ar
   136   105   106    1
   137   143   142    1
   138     8     9    2
   139   165   166   ar
   140   165   164    1
   141     9    11    1
   142   180   181    1
   143   122   121    1
   144   117   111   am
   145   117   118    1
   146   111   112    2
   147   144   142    1
   148   106   108   ar
   149   181   182    1
   150   152   151    1
   151   152   153    1
   152   142   141    2
   153   121   118    1
   154   164   163    1
   155   146   145    1
   156   146   147    1
   157   137   136    2
   158   145   136   am
   159   136   135    1
   160   118   119    1
   161   120   119    2
   162   153   159   am
   163   153   154    2
   164   135   138    1
   165   135   134    1
   166   159   160    1
   167   138   139    1
   168   182   183    2
   169   119   123   am
   170   141   140    1
   171   139   140    1
   172   147   148    2
   173   163   160    1
   174   160   161    1
   175   123   124    1
   176   132   131    1
   177   133   131    1
   178   124   125    1
   179   124   127    1
   180   131   130    2
   181   128   127    1
   182   128   129    1
   183   125   126    2
   184   161   162    2
   185   130   129    1
