@<TRIPOS>MOLECULE
tmp/3kb8A00.pdb
 118 114 0 0 0
SMALL
GASTEIGER

@<TRIPOS>ATOM
      1  N         38.5760   10.9140   47.2760 N.3   121  GLU121     -0.1231
      2  CA        39.9250   11.2520   46.8770 C.3   121  GLU121      0.1699
      3  C         40.9080   11.2520   48.0230 C.2   121  GLU121      0.2592
      4  O         40.5500   11.3220   49.1800 O.2   121  GLU121     -0.2718
      5  CB        39.8720   12.6360   46.2060 C.3   121  GLU121      0.0402
      6  CG        41.1390   13.1200   45.5030 C.3   121  GLU121      0.1161
      7  CD        41.6630   12.1460   44.4500 C.2   121  GLU121      0.3649
      8  OE1       41.6810   12.5380   43.2570 O.co2 121  GLU121     -0.2457
      9  OE2       41.9930   10.9820   44.8100 O.co2 121  GLU121     -0.2457
     10  N         42.1750   11.1750   47.6800 N.am  122  ASP122     -0.1960
     11  CA        43.2460   11.2180   48.6740 C.3   122  ASP122      0.1840
     12  C         43.6810   12.6480   48.9600 C.2   122  ASP122      0.2622
     13  O         43.7540   13.0590   50.1170 O.2   122  ASP122     -0.2715
     14  CB        44.4490   10.3090   48.3100 C.3   122  ASP122      0.1450
     15  CG        44.9780   10.5190   46.9020 C.2   122  ASP122      0.3671
     16  OD1       44.4750   11.3690   46.1540 O.co2 122  ASP122     -0.2456
     17  OD2       45.9530    9.8400   46.5350 O.co2 122  ASP122     -0.2456
     18  N         43.9270   13.4290   47.9340 N.am  123  ILE123     -0.1963
     19  CA        44.3670   14.7990   48.1690 C.3   123  ILE123      0.1727
     20  C         43.9030   15.6370   47.0170 C.2   123  ILE123      0.2616
     21  O         43.8220   15.1360   45.9120 O.2   123  ILE123     -0.2715
     22  CB        45.9700   14.8790   48.3050 C.3   123  ILE123      0.0290
     23  CG1       46.4520   16.2830   48.6820 C.3   123  ILE123      0.0022
     24  CG2       46.6320   14.4630   47.0070 C.3   123  ILE123      0.0023
     25  CD1       47.9060   16.3450   49.2410 C.3   123  ILE123      0.0001
     26  N         43.5030   16.8700   47.2840 N.am  124  ILE124     -0.1963
     27  CA        43.1710   17.7950   46.2140 C.3   124  ILE124      0.1727
     28  C         44.1290   19.0030   46.3560 C.2   124  ILE124      0.2616
     29  O         44.2330   19.6080   47.4410 O.2   124  ILE124     -0.2715
     30  CB        41.7380   18.3020   46.2610 C.3   124  ILE124      0.0290
     31  CG1       40.7110   17.1750   46.3730 C.3   124  ILE124      0.0022
     32  CG2       41.4380   19.1100   45.0040 C.3   124  ILE124      0.0023
     33  CD1       39.2610   17.7450   46.5770 C.3   124  ILE124      0.0001
     34  N         44.7910   19.3680   45.2610 N.am  125  ASP125     -0.1957
     35  CA        45.7650   20.4670   45.2520 C.3   125  ASP125      0.1840
     36  C         45.3640   21.4490   44.1400 C.2   125  ASP125      0.2623
     37  O         44.5880   22.3730   44.3990 O.2   125  ASP125     -0.2715
     38  CB        47.1740   19.8670   45.1010 C.3   125  ASP125      0.1450
     39  CG        48.3100   20.8670   45.3050 C.2   125  ASP125      0.3671
     40  OD1       48.1050   22.0880   45.5470 O.co2 125  ASP125     -0.2456
     41  OD2       49.4640   20.3970   45.1940 O.co2 125  ASP125     -0.2456
     42  N         45.8140   21.2240   42.9030 N.am  126  SER126     -0.1936
     43  CA        45.4500   22.1100   41.8110 C.3   126  SER126      0.2055
     44  C         43.9660   21.9230   41.5460 C.2   126  SER126      0.2643
     45  O         43.2770   22.8760   41.1990 O.2   126  SER126     -0.2714
     46  CB        46.2260   21.8030   40.5160 C.3   126  SER126      0.2130
     47  OG        45.7310   20.6140   39.8960 O.3   126  SER126     -0.2179
     48  N         43.4770   20.6850   41.6930 N.am  127  GLY127     -0.1954
     49  CA        42.0740   20.3860   41.4510 C.3   127  GLY127      0.1869
     50  C         41.6660   20.2720   39.9640 C.2   127  GLY127      0.2309
     51  O         40.5250   19.9520   39.6350 O.2   127  GLY127     -0.2863
     52  N         42.3640   18.0660   37.4250 N.3   129  THR129     -0.1203
     53  CA        41.8820   16.7650   36.9960 C.3   129  THR129      0.1994
     54  C         40.5440   16.3850   37.6720 C.2   129  THR129      0.2617
     55  O         39.5650   15.9850   37.0300 O.2   129  THR129     -0.2717
     56  CB        42.9840   15.6920   37.1840 C.3   129  THR129      0.1784
     57  OG1       44.0050   15.8780   36.1700 O.3   129  THR129     -0.2211
     58  CG2       42.4040   14.3250   37.0150 C.3   129  THR129      0.0376
     59  N         40.4380   16.6160   38.9630 N.am  130  LEU130     -0.1979
     60  CA        39.2030   16.2750   39.6310 C.3   130  LEU130      0.1596
     61  C         38.0380   17.1120   39.1100 C.2   130  LEU130      0.2287
     62  O         36.9470   16.6250   38.9260 O.2   130  LEU130     -0.2864
     63  CB        39.3970   16.4110   41.1500 C.3   130  LEU130      0.0297
     64  CG        38.2150   16.0790   42.0270 C.3   130  LEU130      0.0022
     65  CD1       37.6320   14.6750   41.7550 C.3   130  LEU130      0.0001
     66  CD2       38.6630   16.2030   43.4780 C.3   130  LEU130      0.0001
     67  N         44.6500   20.8710   50.0140 N.3   153  LYS153     -0.1245
     68  CA        45.6420   21.9660   49.9860 C.3   153  LYS153      0.1561
     69  C         44.9240   23.0220   49.1990 C.2   153  LYS153      0.2260
     70  O         45.2290   23.2930   48.0430 O.2   153  LYS153     -0.2867
     71  CB        46.9550   21.5370   49.3180 C.3   153  LYS153      0.0271
     72  CG        47.7910   20.5230   50.1220 C.3   153  LYS153      0.0035
     73  CD        49.0950   20.1580   49.3800 C.3   153  LYS153      0.0206
     74  CE        50.0900   19.4230   50.2860 C.3   153  LYS153      0.1093
     75  NZ        51.4590   19.2830   49.6160 N.3   153  LYS153     -0.1314
     76  N         54.0390   20.8500   53.3490 N.3   173  GLU173     -0.1231
     77  CA        54.8360   19.6330   53.5440 C.3   173  GLU173      0.1699
     78  C         54.5140   18.6070   52.4760 C.2   173  GLU173      0.2592
     79  O         53.3790   18.5020   51.9990 O.2   173  GLU173     -0.2718
     80  CB        54.6600   18.9760   54.9320 C.3   173  GLU173      0.0402
     81  CG        55.6210   19.4700   56.0470 C.3   173  GLU173      0.1161
     82  CD        57.1260   19.3920   55.6700 C.2   173  GLU173      0.3649
     83  OE1       57.4890   18.8450   54.5810 O.co2 173  GLU173     -0.2457
     84  OE2       57.9500   19.9110   56.4690 O.co2 173  GLU173     -0.2457
     85  N         55.5380   17.8770   52.0720 N.am  174  PHE174     -0.1962
     86  CA        55.3400   16.8140   51.1280 C.3   174  PHE174      0.1771
     87  C         55.0550   15.5670   51.9790 C.2   174  PHE174      0.2619
     88  O         55.8890   15.1280   52.7930 O.2   174  PHE174     -0.2715
     89  CB        56.5210   16.5860   50.1790 C.3   174  PHE174      0.0574
     90  CG        56.2500   15.4930   49.1930 C.ar  174  PHE174     -0.0200
     91  CD1       55.4450   15.7400   48.0820 C.ar  174  PHE174     -0.0042
     92  CD2       56.6900   14.2090   49.4200 C.ar  174  PHE174     -0.0042
     93  CE1       55.1340   14.7250   47.1920 C.ar  174  PHE174     -0.0003
     94  CE2       56.3910   13.1950   48.5320 C.ar  174  PHE174     -0.0003
     95  CZ        55.6150   13.4510   47.4180 C.ar  174  PHE174     -0.0000
     96  N         53.8630   15.0120   51.8020 N.am  175  VAL175     -0.1977
     97  CA        53.4650   13.8810   52.5980 C.3   175  VAL175      0.1596
     98  C         53.3240   12.5870   51.7710 C.2   175  VAL175      0.2287
     99  O         53.1990   12.6090   50.5300 O.2   175  VAL175     -0.2864
    100  CB        52.1640   14.1970   53.3480 C.3   175  VAL175      0.0276
    101  CG1       52.4040   15.2830   54.4070 C.3   175  VAL175      0.0022
    102  CG2       51.0360   14.6360   52.3650 C.3   175  VAL175      0.0022
    103  N         48.8920    7.8720   49.4910 N.3   180  LEU180     -0.1231
    104  CA        49.8690    8.7940   48.8700 C.3   180  LEU180      0.1693
    105  C         51.2700    8.1610   48.7820 C.2   180  LEU180      0.2592
    106  O         51.7680    7.5540   49.7840 O.2   180  LEU180     -0.2718
    107  CB        49.9520   10.0780   49.6980 C.3   180  LEU180      0.0284
    108  CG        48.6830   10.9280   49.6860 C.3   180  LEU180      0.0019
    109  CD1       48.8770   12.0430   50.6380 C.3   180  LEU180      0.0001
    110  CD2       48.4630   11.4870   48.3090 C.3   180  LEU180      0.0001
    111  N         51.8780    8.3010   47.5980 N.am  181  ASP181     -0.1974
    112  CA        53.1930    7.7290   47.3090 C.3   181  ASP181      0.1709
    113  C         54.3050    8.7240   47.0340 C.2   181  ASP181      0.2293
    114  O         54.0930    9.9420   46.9160 O.2   181  ASP181     -0.2864
    115  CB        53.1480    6.8650   46.0380 C.3   181  ASP181      0.1436
    116  CG        53.0770    7.6750   44.7470 C.2   181  ASP181      0.3671
    117  OD1       52.1750    8.5460   44.5900 O.co2 181  ASP181     -0.2456
    118  OD2       53.9310    7.4140   43.8480 O.co2 181  ASP181     -0.2456
@<TRIPOS>BOND
     1    57    56    1
     2    53    56    1
     3    53    52    1
     4    53    54    1
     5    58    56    1
     6    55    54    2
     7    54    59   am
     8    62    61    2
     9    59    60    1
    10    61    60    1
    11    60    63    1
    12    51    50    2
    13    47    46    1
    14    50    49    1
    15    46    43    1
    16    63    64    1
    17    45    44    2
    18    49    48    1
    19    44    48   am
    20    44    43    1
    21    65    64    1
    22    43    42    1
    23    64    66    1
    24    42    36   am
    25     8     7   ar
    26   118   116   ar
    27    36    37    2
    28    36    35    1
    29     7     9   ar
    30     7     6    1
    31   117   116   ar
    32   116   115    1
    33    32    30    1
    34    38    35    1
    35    38    39    1
    36    41    39   ar
    37    35    34    1
    38    34    28   am
    39    39    40   ar
    40     6     5    1
    41    21    20    2
    42   115   112    1
    43    16    15   ar
    44     5     2    1
    45    27    30    1
    46    27    28    1
    47    27    26    1
    48    30    31    1
    49    28    29    2
    50    31    33    1
    51    17    15   ar
    52     2     1    1
    53     2     3    1
    54    15    14    1
    55   114   113    2
    56    24    22    1
    57    20    26   am
    58    20    19    1
    59   113   112    1
    60    93    95   ar
    61    93    91   ar
    62   112   111    1
    63    95    94   ar
    64   111   105   am
    65    10     3   am
    66    10    11    1
    67    18    19    1
    68    18    12   am
    69     3     4    2
    70    70    69    2
    71    91    90   ar
    72    19    22    1
    73    22    23    1
    74   110   108    1
    75    14    11    1
    76    94    92   ar
    77    11    12    1
    78    23    25    1
    79   105   104    1
    80   105   106    2
    81   104   103    1
    82   104   107    1
    83    12    13    2
    84    90    92   ar
    85    90    89    1
    86    69    68    1
    87    71    68    1
    88    71    72    1
    89    73    72    1
    90    73    74    1
    91    75    74    1
    92   108   107    1
    93   108   109    1
    94    68    67    1
    95    89    86    1
    96    99    98    2
    97    86    87    1
    98    86    85    1
    99    98    97    1
   100    96    87   am
   101    96    97    1
   102    87    88    2
   103    79    78    2
   104    85    78   am
   105   102   100    1
   106    78    77    1
   107    97   100    1
   108   100   101    1
   109    76    77    1
   110    77    80    1
   111    83    82   ar
   112    80    81    1
   113    82    81    1
   114    82    84   ar
