@<TRIPOS>MOLECULE
tmp/3kbaB00.pdb
 198 186 0 0 0
SMALL
GASTEIGER

@<TRIPOS>ATOM
      1  N          6.3430   21.4470   11.5880 N.3    34  LEU34      -0.1245
      2  CA         6.2000   20.0040   11.3990 C.3    34  LEU34       0.1561
      3  C          5.0790   19.6550   10.4150 C.2    34  LEU34       0.2260
      4  O          5.2010   18.6940    9.6630 O.2    34  LEU34      -0.2867
      5  CB         5.9860   19.2930   12.7410 C.3    34  LEU34       0.0270
      6  CG         7.1770   19.3120   13.7080 C.3    34  LEU34       0.0019
      7  CD1        6.7930   18.6680   15.0340 C.3    34  LEU34       0.0001
      8  CD2        8.4000   18.6190   13.1080 C.3    34  LEU34       0.0001
      9  N          6.5910   20.3450    7.0920 N.3    37  LEU37      -0.1231
     10  CA         7.5700   19.2880    6.8130 C.3    37  LEU37       0.1693
     11  C          6.9070   17.9680    6.3930 C.2    37  LEU37       0.2592
     12  O          7.4700   17.2210    5.5970 O.2    37  LEU37      -0.2718
     13  CB         8.4900   19.0720    8.0150 C.3    37  LEU37       0.0284
     14  CG         9.4700   20.2240    8.2660 C.3    37  LEU37       0.0019
     15  CD1       10.0020   20.1920    9.6980 C.3    37  LEU37       0.0001
     16  CD2       10.6120   20.2070    7.2610 C.3    37  LEU37       0.0001
     17  N          5.7170   17.6920    6.9240 N.am   38  ASN38      -0.1974
     18  CA         4.9190   16.5360    6.4920 C.3    38  ASN38       0.1688
     19  C          4.3080   16.7320    5.1070 C.2    38  ASN38       0.2292
     20  O          4.1270   15.7670    4.3650 O.2    38  ASN38      -0.2864
     21  CB         3.7960   16.2400    7.4890 C.3    38  ASN38       0.1181
     22  CG         4.3070   15.6930    8.8000 C.2    38  ASN38       0.2629
     23  OD1        5.4230   15.1850    8.8840 O.2    38  ASN38      -0.2716
     24  ND2        3.4830   15.7820    9.8370 N.am   38  ASN38      -0.0877
     25  N          5.7030   18.6970    2.6960 N.3    40  LEU40      -0.1231
     26  CA         6.8840   18.4900    1.8640 C.3    40  LEU40       0.1693
     27  C          7.1950   17.0050    1.7360 C.2    40  LEU40       0.2592
     28  O          7.4750   16.5150    0.6400 O.2    40  LEU40      -0.2718
     29  CB         8.0960   19.2080    2.4710 C.3    40  LEU40       0.0284
     30  CG         9.4320   19.0770    1.7310 C.3    40  LEU40       0.0019
     31  CD1        9.3590   19.7340    0.3620 C.3    40  LEU40       0.0001
     32  CD2       10.5570   19.6810    2.5650 C.3    40  LEU40       0.0001
     33  N          7.1640   16.3020    2.8680 N.am   41  GLY41      -0.1957
     34  CA         7.4500   14.8750    2.9070 C.3    41  GLY41       0.1869
     35  C          6.5210   14.0640    2.0230 C.2    41  GLY41       0.2309
     36  O          6.9560   13.1210    1.3640 O.2    41  GLY41      -0.2863
     37  N          7.7040   14.7740   -1.4840 N.3    44  GLN44      -0.1245
     38  CA         8.9540   14.0420   -1.6790 C.3    44  GLN44       0.1566
     39  C          8.6590   12.5600   -1.9120 C.2    44  GLN44       0.2260
     40  O          9.1260   11.9720   -2.8860 O.2    44  GLN44      -0.2867
     41  CB         9.8840   14.2070   -0.4680 C.3    44  GLN44       0.0367
     42  CG        10.4890   15.6080   -0.3110 C.3    44  GLN44       0.0905
     43  CD        11.6750   15.8630   -1.2290 C.2    44  GLN44       0.2608
     44  OE1       12.3990   14.9370   -1.6100 O.2    44  GLN44      -0.2717
     45  NE2       11.8860   17.1310   -1.5830 N.am   44  GLN44      -0.0878
     46  N         12.2610    5.5820    3.0360 N.3    74  TRP74      -0.1227
     47  CA        11.6590    6.9150    2.9040 C.3    74  TRP74       0.1737
     48  C         12.4040    8.0260    3.6740 C.2    74  TRP74       0.2595
     49  O         12.7740    9.0400    3.0860 O.2    74  TRP74      -0.2718
     50  CB        10.1670    6.8480    3.2840 C.3    74  TRP74       0.0564
     51  CG         9.6700    7.9780    4.1060 C.ar   74  TRP74       0.0003
     52  CD1        9.4720    9.2660    3.7010 C.ar   74  TRP74       0.0946
     53  CD2        9.2910    7.9280    5.4820 C.ar   74  TRP74       0.0152
     54  NE1        9.0050   10.0260    4.7500 N.ar   74  TRP74      -0.2442
     55  CE2        8.8850    9.2260    5.8520 C.ar   74  TRP74       0.0810
     56  CE3        9.2610    6.9130    6.4400 C.ar   74  TRP74       0.0012
     57  CZ2        8.4530    9.5350    7.1350 C.ar   74  TRP74       0.0191
     58  CZ3        8.8360    7.2230    7.7140 C.ar   74  TRP74       0.0001
     59  CH2        8.4360    8.5220    8.0500 C.ar   74  TRP74       0.0015
     60  N         12.6310    7.8210    4.9690 N.am   75  MET75      -0.1979
     61  CA        13.2490    8.8380    5.8290 C.3    75  MET75       0.1605
     62  C         14.7110    9.0820    5.4650 C.2    75  MET75       0.2287
     63  O         15.1730   10.2310    5.4550 O.2    75  MET75      -0.2864
     64  CB        13.1450    8.4240    7.3020 C.3    75  MET75       0.0413
     65  CG        13.6830    9.4490    8.3060 C.3    75  MET75       0.0598
     66  SD        12.6780   10.9440    8.4210 S.3    75  MET75      -0.1393
     67  CE        11.2160   10.3040    9.2370 C.3    75  MET75       0.0692
     68  N         14.9830   11.0740    2.1910 N.3    78  MET78      -0.1230
     69  CA        14.6500   12.4820    2.4440 C.3    78  MET78       0.1702
     70  C         15.8090   13.2630    3.0590 C.2    78  MET78       0.2592
     71  O         16.1560   14.3390    2.5780 O.2    78  MET78      -0.2718
     72  CB        13.4320   12.6050    3.3590 C.3    78  MET78       0.0401
     73  CG        12.1300   12.4260    2.6310 C.3    78  MET78       0.0596
     74  SD        10.7060   12.7370    3.6730 S.3    78  MET78      -0.1393
     75  CE         9.4280   12.2270    2.5230 C.3    78  MET78       0.0692
     76  N         16.3890   12.7180    4.1230 N.am   79  VAL79      -0.1980
     77  CA        17.4760   13.3830    4.8410 C.3    79  VAL79       0.1595
     78  C         18.7740   13.4350    4.0150 C.2    79  VAL79       0.2287
     79  O         19.5600   14.3790    4.1460 O.2    79  VAL79      -0.2864
     80  CB        17.7330   12.7200    6.2270 C.3    79  VAL79       0.0276
     81  CG1       18.3500   11.3360    6.0720 C.3    79  VAL79       0.0022
     82  CG2       18.6180   13.6050    7.0870 C.3    79  VAL79       0.0022
     83  N         18.0690   16.1660    1.5670 N.3    82  LEU82      -0.1245
     84  CA        18.1740   17.4160    2.3260 C.3    82  LEU82       0.1561
     85  C         19.6300   17.8560    2.4580 C.2    82  LEU82       0.2260
     86  O         19.9470   19.0420    2.3270 O.2    82  LEU82      -0.2867
     87  CB        17.5610   17.2420    3.7210 C.3    82  LEU82       0.0270
     88  CG        17.7770   18.3500    4.7610 C.3    82  LEU82       0.0019
     89  CD1       17.1350   19.6600    4.3160 C.3    82  LEU82       0.0001
     90  CD2       17.2250   17.9100    6.1090 C.3    82  LEU82       0.0001
     91  N         20.8870   19.1100   -1.1080 N.3    85  ARG85      -0.1245
     92  CA        20.3720   20.4560   -1.3810 C.3    85  ARG85       0.1563
     93  C         21.0250   21.5200   -0.5000 C.2    85  ARG85       0.2260
     94  O         21.3300   22.6130   -0.9660 O.2    85  ARG85      -0.2867
     95  CB        18.8550   20.5010   -1.2060 C.3    85  ARG85       0.0307
     96  CG        18.1000   19.7960   -2.3080 C.3    85  ARG85       0.0489
     97  CD        16.6260   20.1350   -2.2560 C.3    85  ARG85       0.2205
     98  NE        16.0520   19.7760   -0.9630 N.pl3  85  ARG85      -0.0865
     99  CZ        15.6880   18.5450   -0.6080 C.cat  85  ARG85       0.5346
    100  NH1       15.8100   17.5220   -1.4500 N.pl3  85  ARG85       0.1354
    101  NH2       15.1900   18.3370    0.6020 N.pl3  85  ARG85       0.1354
    102  N         15.4700   22.4670    3.2180 N.3    97  PHE97      -0.1241
    103  CA        14.3700   21.5130    3.0360 C.3    97  PHE97       0.1605
    104  C         13.7110   21.7300    1.6840 C.2    97  PHE97       0.2264
    105  O         13.4150   20.7760    0.9640 O.2    97  PHE97      -0.2867
    106  CB        13.3260   21.6530    4.1500 C.3    97  PHE97       0.0534
    107  CG        13.8210   21.2310    5.5000 C.ar   97  PHE97      -0.0203
    108  CD1       14.2740   22.1670    6.4140 C.ar   97  PHE97      -0.0042
    109  CD2       13.8400   19.8910    5.8550 C.ar   97  PHE97      -0.0042
    110  CE1       14.7350   21.7730    7.6620 C.ar   97  PHE97      -0.0003
    111  CE2       14.3010   19.4870    7.0990 C.ar   97  PHE97      -0.0003
    112  CZ        14.7470   20.4260    8.0040 C.ar   97  PHE97      -0.0000
    113  N         12.8110   21.3060   17.8970 N.3   113  PHE113     -0.1241
    114  CA        13.5960   20.1190   17.5640 C.3   113  PHE113      0.1605
    115  C         15.0050   20.5080   17.1160 C.2   113  PHE113      0.2264
    116  O         15.5150   20.0080   16.1140 O.2   113  PHE113     -0.2867
    117  CB        12.8760   19.2700   16.5000 C.3   113  PHE113      0.0534
    118  CG        12.3430   20.0620   15.3310 C.ar  113  PHE113     -0.0203
    119  CD1       11.0800   20.6420   15.3870 C.ar  113  PHE113     -0.0042
    120  CD2       13.0900   20.2070   14.1670 C.ar  113  PHE113     -0.0042
    121  CE1       10.5770   21.3640   14.3130 C.ar  113  PHE113     -0.0003
    122  CE2       12.5940   20.9290   13.0820 C.ar  113  PHE113     -0.0003
    123  CZ        11.3340   21.5060   13.1560 C.ar  113  PHE113     -0.0000
    124  N         17.5390   17.5950   16.7780 N.3   116  LEU116     -0.1245
    125  CA        17.3370   16.8070   15.5570 C.3   116  LEU116      0.1561
    126  C         17.7700   17.5820   14.3130 C.2   116  LEU116      0.2260
    127  O         18.2440   16.9840   13.3480 O.2   116  LEU116     -0.2867
    128  CB        15.8830   16.3400   15.4300 C.3   116  LEU116      0.0270
    129  CG        15.4850   15.2460   16.4290 C.3   116  LEU116      0.0019
    130  CD1       14.0420   14.8930   16.2430 C.3   116  LEU116      0.0001
    131  CD2       16.3610   13.9950   16.2930 C.3   116  LEU116      0.0001
    132  N         20.4910   16.0430   11.6120 N.3   120  MET120     -0.1245
    133  CA        20.3510   16.0760   10.1560 C.3   120  MET120      0.1570
    134  C         21.4290   16.9370    9.4910 C.2   120  MET120      0.2261
    135  O         21.8870   16.6280    8.3900 O.2   120  MET120     -0.2867
    136  CB        18.9640   16.6040    9.7710 C.3   120  MET120      0.0387
    137  CG        17.8270   15.6580   10.1260 C.3   120  MET120      0.0595
    138  SD        16.1930   16.3370    9.7720 S.3   120  MET120     -0.1393
    139  CE        16.0630   17.5890   11.0430 C.3   120  MET120      0.0692
    140  N         15.6150    9.8140   14.1020 N.3   206  LEU206     -0.1245
    141  CA        14.5570   10.4810   13.3490 C.3   206  LEU206      0.1561
    142  C         13.2700    9.6430   13.3250 C.2   206  LEU206      0.2260
    143  O         12.1660   10.1890   13.4530 O.2   206  LEU206     -0.2867
    144  CB        15.0220   10.7960   11.9160 C.3   206  LEU206      0.0270
    145  CG        16.2000   11.7720   11.7490 C.3   206  LEU206      0.0019
    146  CD1       16.5130   12.0130   10.2770 C.3   206  LEU206      0.0001
    147  CD2       15.9220   13.0910   12.4390 C.3   206  LEU206      0.0001
    148  N         11.4150    9.8770   16.8050 N.3   209  TYR209     -0.1227
    149  CA        10.7750   11.1850   16.8990 C.3   209  TYR209      0.1736
    150  C          9.5300   11.2380   16.0190 C.2   209  TYR209      0.2595
    151  O          8.4990   11.7680   16.4270 O.2   209  TYR209     -0.2718
    152  CB        11.7590   12.2860   16.4810 C.3   209  TYR209      0.0548
    153  CG        11.2160   13.7000   16.6000 C.ar  209  TYR209     -0.0200
    154  CD1       10.9370   14.4590   15.4660 C.ar  209  TYR209     -0.0009
    155  CD2       10.9940   14.2820   17.8450 C.ar  209  TYR209     -0.0009
    156  CE1       10.4490   15.7620   15.5690 C.ar  209  TYR209      0.0417
    157  CE2       10.5020   15.5800   17.9570 C.ar  209  TYR209      0.0417
    158  CZ        10.2330   16.3130   16.8130 C.ar  209  TYR209      0.1957
    159  OH         9.7450   17.5980   16.9140 O.3   209  TYR209     -0.2866
    160  N          9.6410   10.6860   14.8130 N.am  210  CYS210     -0.1970
    161  CA         8.5240   10.6430   13.8720 C.3   210  CYS210      0.1712
    162  C          7.3540    9.8130   14.3970 C.2   210  CYS210      0.2296
    163  O          6.2110   10.2740   14.3860 O.2   210  CYS210     -0.2864
    164  CB         8.9720   10.1100   12.5050 C.3   210  CYS210      0.0983
    165  SG         7.5940    9.6750   11.3990 S.3   210  CYS210     -0.0798
    166  N          5.6940   11.5990   17.2940 N.3   213  THR213     -0.1218
    167  CA         4.9050   12.7060   16.7500 C.3   213  THR213      0.1862
    168  C          3.6170   12.2030   16.0910 C.2   213  THR213      0.2287
    169  O          2.5600   12.8120   16.2470 O.2   213  THR213     -0.2866
    170  CB         5.7140   13.5300   15.7260 C.3   213  THR213      0.1770
    171  OG1        6.9140   14.0190   16.3420 O.3   213  THR213     -0.2211
    172  CG2        4.8900   14.7060   15.1940 C.3   213  THR213      0.0375
    173  N         -0.3200   18.3700   14.5750 N.3   222  VAL222     -0.1245
    174  CA         0.5470   18.1020   13.4400 C.3   222  VAL222      0.1561
    175  C         -0.1980   17.1860   12.4720 C.2   222  VAL222      0.2260
    176  O         -0.5150   16.0460   12.8100 O.2   222  VAL222     -0.2867
    177  CB         1.8580   17.4300   13.8980 C.3   222  VAL222      0.0252
    178  CG1        2.7330   17.0830   12.7050 C.3   222  VAL222      0.0019
    179  CG2        2.6040   18.3390   14.8650 C.3   222  VAL222      0.0019
    180  N         -0.6620   14.7720    9.2890 N.3   224  PHE224     -0.1241
    181  CA         0.0820   13.7910    8.5150 C.3   224  PHE224      0.1605
    182  C         -0.7430   13.4040    7.2950 C.2   224  PHE224      0.2264
    183  O         -1.7980   12.7950    7.4410 O.2   224  PHE224     -0.2867
    184  CB         0.3580   12.5430    9.3530 C.3   224  PHE224      0.0534
    185  CG         1.4750   12.7110   10.3330 C.ar  224  PHE224     -0.0203
    186  CD1        1.2420   13.2770   11.5770 C.ar  224  PHE224     -0.0042
    187  CD2        2.7590   12.2940   10.0150 C.ar  224  PHE224     -0.0042
    188  CE1        2.2670   13.4320   12.4850 C.ar  224  PHE224     -0.0003
    189  CE2        3.7910   12.4420   10.9170 C.ar  224  PHE224     -0.0003
    190  CZ         3.5450   13.0150   12.1590 C.ar  224  PHE224     -0.0000
    191  N          2.2320    9.2560    3.6550 N.3   228  MET228     -0.1245
    192  CA         3.2400    9.1230    4.7020 C.3   228  MET228      0.1570
    193  C          2.6270    8.5860    5.9980 C.2   228  MET228      0.2261
    194  O          3.3220    7.9640    6.7970 O.2   228  MET228     -0.2867
    195  CB         4.0190   10.4250    4.9110 C.3   228  MET228      0.0387
    196  CG         3.4510   11.4300    5.8970 C.3   228  MET228      0.0595
    197  SD         4.8230   12.2790    6.7180 S.3   228  MET228     -0.1393
    198  CE         5.8500   12.7060    5.3080 C.3   228  MET228      0.0692
@<TRIPOS>BOND
     1    40    39    2
     2    96    97    1
     3    96    95    1
     4    97    98    1
     5    39    38    1
     6    38    37    1
     7    38    41    1
     8    44    43    2
     9    45    43   am
    10   100    99    1
    11    92    95    1
    12    92    91    1
    13    92    93    1
    14    43    42    1
    15    94    93    2
    16    98    99    2
    17    99   101    1
    18    41    42    1
    19    31    30    1
    20    28    27    2
    21   105   104    2
    22    36    35    2
    23    83    84    1
    24   104   103    1
    25    30    29    1
    26    30    32    1
    27    27    26    1
    28    27    33   am
    29    26    29    1
    30    26    25    1
    31    35    34    1
    32    68    69    1
    33    84    85    1
    34    84    87    1
    35    86    85    2
    36    69    70    1
    37    69    72    1
    38    75    74    1
    39    71    70    2
    40    73    72    1
    41    73    74    1
    42    33    34    1
    43    47    46    1
    44    47    50    1
    45    47    48    1
    46   103   102    1
    47   103   106    1
    48    70    76   am
    49    49    48    2
    50    50    51    1
    51   191   192    1
    52    48    60   am
    53    52    51   ar
    54    52    54   ar
    55    87    88    1
    56    78    79    2
    57    78    77    1
    58    51    53   ar
    59    76    77    1
    60   106   107    1
    61    89    88    1
    62    20    19    2
    63   192   195    1
    64   192   193    1
    65    54    55   ar
    66    88    90    1
    67    77    80    1
    68   195   196    1
    69    60    61    1
    70    19    18    1
    71   198   197    1
    72    63    62    2
    73    62    61    1
    74    53    55   ar
    75    53    56   ar
    76   107   109   ar
    77   107   108   ar
    78    12    11    2
    79    61    64    1
    80    55    57   ar
    81   109   111   ar
    82   196   197    1
    83   193   194    2
    84    81    80    1
    85    80    82    1
    86    11    10    1
    87    11    17   am
    88   108   110   ar
    89    56    58   ar
    90    18    17    1
    91    18    21    1
    92    10     9    1
    93    10    13    1
    94   111   112   ar
    95    57    59   ar
    96    16    14    1
    97   182   183    2
    98   182   181    1
    99    64    65    1
   100    21    22    1
   101   110   112   ar
   102    58    59   ar
   103    13    14    1
   104    14    15    1
   105    65    66    1
   106   135   134    2
   107    66    67    1
   108   181   180    1
   109   181   184    1
   110    22    23    2
   111    22    24   am
   112   184   185    1
   113   134   133    1
   114     4     3    2
   115   136   137    1
   116   136   133    1
   117   138   137    1
   118   138   139    1
   119   187   185   ar
   120   187   189   ar
   121   133   132    1
   122   146   145    1
   123   185   186   ar
   124     3     2    1
   125   189   190   ar
   126   165   164    1
   127     2     1    1
   128     2     5    1
   129   186   188   ar
   130   145   144    1
   131   145   147    1
   132   144   141    1
   133   190   188   ar
   134   175   176    2
   135   175   174    1
   136   164   161    1
   137   178   177    1
   138     5     6    1
   139   122   123   ar
   140   122   120   ar
   141     8     6    1
   142   123   121   ar
   143   142   141    1
   144   142   143    2
   145   127   126    2
   146   141   140    1
   147   174   177    1
   148   174   173    1
   149     6     7    1
   150   161   162    1
   151   161   160    1
   152   177   179    1
   153   120   118   ar
   154   121   119   ar
   155   126   125    1
   156   163   162    2
   157   160   150   am
   158   172   170    1
   159   118   119   ar
   160   118   117    1
   161   128   125    1
   162   128   129    1
   163   154   156   ar
   164   154   153   ar
   165   125   124    1
   166   156   158   ar
   167   170   171    1
   168   170   167    1
   169   150   151    2
   170   150   149    1
   171   168   169    2
   172   168   167    1
   173   116   115    2
   174   130   129    1
   175   131   129    1
   176   152   153    1
   177   152   149    1
   178   117   114    1
   179   153   155   ar
   180   167   166    1
   181   148   149    1
   182   158   159    1
   183   158   157   ar
   184   115   114    1
   185   114   113    1
   186   155   157   ar
