@<TRIPOS>MOLECULE
tmp/3kboA01.pdb
 90 89 0 0 0
SMALL
GASTEIGER

@<TRIPOS>ATOM
      1  N         18.7460    3.2370  -24.8260 N.3    30  TRP30      -0.1241
      2  CA        17.3680    3.3350  -25.2400 C.3    30  TRP30       0.1605
      3  C         16.9950    4.8120  -25.3850 C.2    30  TRP30       0.2264
      4  O         17.4860    5.6350  -24.6550 O.2    30  TRP30      -0.2867
      5  CB        16.4410    2.6900  -24.2290 C.3    30  TRP30       0.0550
      6  CG        14.9880    2.7630  -24.6390 C.ar   30  TRP30       0.0003
      7  CD1       14.3000    1.8630  -25.3960 C.ar   30  TRP30       0.0946
      8  CD2       14.0660    3.7930  -24.2990 C.ar   30  TRP30       0.0152
      9  NE1       12.9940    2.2820  -25.5730 N.ar   30  TRP30      -0.2442
     10  CE2       12.8320    3.4710  -24.9070 C.ar   30  TRP30       0.0810
     11  CE3       14.1750    4.9870  -23.5760 C.ar   30  TRP30       0.0012
     12  CZ2       11.7160    4.2940  -24.8100 C.ar   30  TRP30       0.0191
     13  CZ3       13.0700    5.7980  -23.4720 C.ar   30  TRP30       0.0001
     14  CH2       11.8430    5.4360  -24.0690 C.ar   30  TRP30       0.0015
     15  N         12.3110    3.8890  -29.5250 N.3    34  ASP34      -0.1225
     16  CA        12.8940    2.5390  -29.6050 C.3    34  ASP34       0.1805
     17  C         11.8420    1.5020  -29.1800 C.2    34  ASP34       0.2598
     18  O         11.5260    1.3440  -27.9890 O.2    34  ASP34      -0.2718
     19  CB        14.1750    2.4210  -28.7680 C.3    34  ASP34       0.1424
     20  CG        14.8250    1.0040  -28.8380 C.2    34  ASP34       0.3668
     21  OD1       14.1830    0.0240  -29.3090 O.co2  34  ASP34      -0.2456
     22  OD2       15.9870    0.8610  -28.3890 O.co2  34  ASP34      -0.2456
     23  N         11.2600    0.8590  -30.1740 N.am   35  ASN35      -0.1960
     24  CA        10.2720   -0.2150  -29.9640 C.3    35  ASN35       0.1819
     25  C         10.8350   -1.5720  -30.4060 C.2    35  ASN35       0.2621
     26  O         10.0730   -2.5070  -30.6600 O.2    35  ASN35      -0.2715
     27  CB         9.0070    0.0950  -30.7540 C.3    35  ASN35       0.1195
     28  CG         8.2730    1.3420  -30.2260 C.2    35  ASN35       0.2630
     29  OD1        7.7620    1.3460  -29.0990 O.2    35  ASN35      -0.2716
     30  ND2        8.1940    2.3890  -31.0560 N.am   35  ASN35      -0.0877
     31  N         12.1600   -1.6810  -30.5200 N.am   36  ASN36      -0.1959
     32  CA        12.7570   -2.9490  -30.9620 C.3    36  ASN36       0.1804
     33  C         12.8470   -3.9060  -29.7770 C.2    36  ASN36       0.2463
     34  O         12.7850   -3.4670  -28.6120 O.2    36  ASN36      -0.2730
     35  CB        14.1440   -2.7590  -31.5930 C.3    36  ASN36       0.1195
     36  CG        14.0980   -1.9840  -32.9230 C.2    36  ASN36       0.2630
     37  OD1       13.0580   -1.4500  -33.3270 O.2    36  ASN36      -0.2716
     38  ND2       15.2260   -1.9260  -33.5970 N.am   36  ASN36      -0.0877
     39  N         12.9900   -5.2150  -30.0660 N.am   37  PRO37      -0.2716
     40  CA        13.0410   -6.1490  -28.9700 C.3    37  PRO37       0.1536
     41  C         14.3200   -6.0280  -28.1570 C.2    37  PRO37       0.2598
     42  O         15.3370   -5.4690  -28.6180 O.2    37  PRO37      -0.2715
     43  CB        12.9680   -7.5400  -29.6610 C.3    37  PRO37       0.0310
     44  CG        12.7310   -7.2830  -31.1090 C.3    37  PRO37       0.0237
     45  CD        13.1280   -5.8780  -31.3790 C.3    37  PRO37       0.0939
     46  N         14.2500   -6.5440  -26.9400 N.am   38  ALA38      -0.1978
     47  CA        15.3880   -6.5890  -26.0430 C.3    38  ALA38       0.1597
     48  C         15.2120   -7.7910  -25.1760 C.2    38  ALA38       0.2287
     49  O         14.0820   -8.1930  -24.9250 O.2    38  ALA38      -0.2864
     50  CB        15.4310   -5.3750  -25.1880 C.3    38  ALA38       0.0319
     51  N          7.1000    4.4420  -20.6820 N.3    49  GLU49      -0.1245
     52  CA         7.0580    4.0150  -22.0910 C.3    49  GLU49       0.1567
     53  C          8.2210    3.0720  -22.4600 C.2    49  GLU49       0.2260
     54  O          8.0720    2.2460  -23.3300 O.2    49  GLU49      -0.2867
     55  CB         7.0450    5.2310  -23.0160 C.3    49  GLU49       0.0388
     56  CG         8.3060    6.0700  -22.9540 C.3    49  GLU49       0.1160
     57  CD         8.2240    7.3370  -23.8260 C.2    49  GLU49       0.3649
     58  OE1        8.5460    8.4440  -23.3230 O.co2  49  GLU49      -0.2457
     59  OE2        7.8060    7.2200  -24.9970 O.co2  49  GLU49      -0.2457
     60  N          7.0900   -0.3960  -20.4330 N.3    51  ALA51      -0.1231
     61  CA         5.6630   -0.7340  -20.6460 C.3    51  ALA51       0.1694
     62  C          5.4780   -1.5840  -21.8730 C.2    51  ALA51       0.2593
     63  O          5.9230   -1.2390  -22.9420 O.2    51  ALA51      -0.2718
     64  CB         4.7830    0.5370  -20.7290 C.3    51  ALA51       0.0304
     65  N          4.9070   -2.7650  -21.6820 N.am   52  GLY52      -0.1942
     66  CA         4.6390   -3.6750  -22.7840 C.3    52  GLY52       0.2014
     67  C          5.7180   -4.6770  -23.1070 C.2    52  GLY52       0.2639
     68  O          5.4350   -5.7180  -23.6900 O.2    52  GLY52      -0.2714
     69  N          6.9380   -4.3990  -22.6740 N.am   53  ARG53      -0.1963
     70  CA         8.0930   -5.2460  -23.0050 C.3    53  ARG53       0.1729
     71  C          8.1720   -6.6760  -22.4540 C.2    53  ARG53       0.2616
     72  O          7.8650   -6.9340  -21.2710 O.2    53  ARG53      -0.2715
     73  CB         9.4110   -4.5270  -22.6250 C.3    53  ARG53       0.0348
     74  CG         9.7400   -3.3530  -23.5260 C.3    53  ARG53       0.0492
     75  CD        11.1580   -2.8170  -23.3330 C.3    53  ARG53       0.2205
     76  NE        11.4290   -1.8010  -24.3310 N.pl3  53  ARG53      -0.0865
     77  CZ        11.9400   -2.0520  -25.5340 C.cat  53  ARG53       0.5346
     78  NH1       12.2820   -3.2930  -25.9030 N.pl3  53  ARG53       0.1354
     79  NH2       12.1060   -1.0550  -26.3860 N.pl3  53  ARG53       0.1354
     80  N          8.6460   -7.5760  -23.3290 N.am   54  ARG54      -0.1977
     81  CA         8.9480   -8.9530  -22.9720 C.3    54  ARG54       0.1597
     82  C         10.4500   -8.9810  -22.7780 C.2    54  ARG54       0.2287
     83  O         11.2070   -8.7670  -23.7310 O.2    54  ARG54      -0.2864
     84  CB         8.5330   -9.9270  -24.0760 C.3    54  ARG54       0.0334
     85  CG         7.0230   -9.9800  -24.2780 C.3    54  ARG54       0.0492
     86  CD         6.5890  -10.8060  -25.4930 C.3    54  ARG54       0.2205
     87  NE         5.1860  -10.5060  -25.7970 N.pl3  54  ARG54      -0.0865
     88  CZ         4.7780   -9.5060  -26.5850 C.cat  54  ARG54       0.5346
     89  NH1        5.6630   -8.7250  -27.2050 N.pl3  54  ARG54       0.1354
     90  NH2        3.4770   -9.2900  -26.7670 N.pl3  54  ARG54       0.1354
@<TRIPOS>BOND
     1    38    36   am
     2    37    36    2
     3    36    35    1
     4    35    32    1
     5    45    44    1
     6    45    39    1
     7    44    43    1
     8    30    28   am
     9    32    31    1
    10    32    33    1
    11    27    28    1
    12    27    24    1
    13    26    25    2
    14    31    25   am
    15    25    24    1
    16    28    29    2
    17    23    24    1
    18    23    17   am
    19    39    33   am
    20    39    40    1
    21    33    34    2
    22    43    40    1
    23    16    15    1
    24    16    17    1
    25    16    19    1
    26    21    20   ar
    27    17    18    2
    28    40    41    1
    29    20    19    1
    30    20    22   ar
    31    42    41    2
    32    41    46   am
    33    89    88    1
    34    46    47    1
    35    90    88    1
    36    88    87    2
    37    79    77    1
    38    47    50    1
    39    47    48    1
    40    78    77    1
    41    87    86    1
    42     9     7   ar
    43     9    10   ar
    44    77    76    2
    45    86    85    1
    46     7     6   ar
    47     3     2    1
    48     3     4    2
    49     2     1    1
    50     2     5    1
    51    48    49    2
    52    59    57   ar
    53    10    12   ar
    54    10     8   ar
    55    12    14   ar
    56     6     8   ar
    57     6     5    1
    58    76    75    1
    59     8    11   ar
    60    85    84    1
    61    84    81    1
    62    14    13   ar
    63    57    58   ar
    64    57    56    1
    65    83    82    2
    66    68    67    2
    67    11    13   ar
    68    74    75    1
    69    74    73    1
    70    54    53    2
    71    80    81    1
    72    80    71   am
    73    67    66    1
    74    67    69   am
    75    55    56    1
    76    55    52    1
    77    70    69    1
    78    70    73    1
    79    70    71    1
    80    81    82    1
    81    63    62    2
    82    66    65    1
    83    53    52    1
    84    71    72    2
    85    52    51    1
    86    62    65   am
    87    62    61    1
    88    64    61    1
    89    61    60    1
