@<TRIPOS>MOLECULE
tmp/3kbrA00.pdb
 136 128 0 0 0
SMALL
GASTEIGER

@<TRIPOS>ATOM
      1  N         30.0300    1.9470   25.2220 N.3    20  ASP20      -0.1225
      2  CA        30.7080    3.0010   25.9780 C.3    20  ASP20       0.1805
      3  C         29.9500    3.3980   27.2480 C.2    20  ASP20       0.2597
      4  O         30.1620    4.4910   27.7880 O.2    20  ASP20      -0.2718
      5  CB        30.9530    4.2370   25.0970 C.3    20  ASP20       0.1424
      6  CG        29.6720    4.9990   24.7760 C.2    20  ASP20       0.3668
      7  OD1       28.5780    4.5180   25.1440 O.co2  20  ASP20      -0.2456
      8  OD2       29.7650    6.0840   24.1580 O.co2  20  ASP20      -0.2456
      9  N         29.1020    2.5010   27.7370 N.am   21  TYR21      -0.1976
     10  CA        28.1870    2.8120   28.8390 C.3    21  TYR21       0.1639
     11  C         27.9500    1.6250   29.7800 C.2    21  TYR21       0.2290
     12  O         26.8410    1.0730   29.8260 O.2    21  TYR21      -0.2864
     13  CB        26.8400    3.2860   28.2670 C.3    21  TYR21       0.0560
     14  CG        25.9080    3.9600   29.2610 C.ar   21  TYR21      -0.0198
     15  CD1       24.6750    4.4670   28.8490 C.ar   21  TYR21      -0.0009
     16  CD2       26.2590    4.0960   30.5990 C.ar   21  TYR21      -0.0009
     17  CE1       23.8090    5.0890   29.7520 C.ar   21  TYR21       0.0417
     18  CE2       25.4030    4.7120   31.5090 C.ar   21  TYR21       0.0417
     19  CZ        24.1860    5.2150   31.0780 C.ar   21  TYR21       0.1957
     20  OH        23.3340    5.8260   31.9730 O.3    21  TYR21      -0.2866
     21  N         26.7430    7.6090   20.1010 N.3    58  TRP58      -0.1241
     22  CA        25.6830    8.5420   20.4540 C.3    58  TRP58       0.1605
     23  C         25.4350    9.6100   19.3850 C.2    58  TRP58       0.2264
     24  O         24.2900    9.8580   19.0360 O.2    58  TRP58      -0.2867
     25  CB        25.8940    9.1140   21.8580 C.3    58  TRP58       0.0550
     26  CG        25.8670    8.0010   22.8520 C.ar   58  TRP58       0.0003
     27  CD1       26.9340    7.4600   23.5090 C.ar   58  TRP58       0.0946
     28  CD2       24.7240    7.2410   23.2520 C.ar   58  TRP58       0.0152
     29  NE1       26.5280    6.4250   24.3080 N.ar   58  TRP58      -0.2442
     30  CE2       25.1710    6.2700   24.1740 C.ar   58  TRP58       0.0810
     31  CE3       23.3610    7.2900   22.9270 C.ar   58  TRP58       0.0012
     32  CZ2       24.3050    5.3480   24.7710 C.ar   58  TRP58       0.0191
     33  CZ3       22.5030    6.3700   23.5160 C.ar   58  TRP58       0.0001
     34  CH2       22.9760    5.4170   24.4350 C.ar   58  TRP58       0.0015
     35  N         21.3690    1.3670   26.8830 N.3    74  GLY74      -0.1210
     36  CA        21.1470    2.3920   27.8890 C.3    74  GLY74       0.1956
     37  C         20.5550    3.6590   27.2800 C.2    74  GLY74       0.2612
     38  O         20.9060    4.7790   27.6680 O.2    74  GLY74      -0.2717
     39  N         19.6450    3.4710   26.3310 N.am   75  ILE75      -0.1965
     40  CA        19.0550    4.5750   25.5730 C.3    75  ILE75       0.1727
     41  C         17.8190    5.1600   26.2620 C.2    75  ILE75       0.2616
     42  O         16.8860    4.4320   26.5760 O.2    75  ILE75      -0.2715
     43  CB        18.6440    4.0870   24.1610 C.3    75  ILE75       0.0290
     44  CG1       19.8380    3.4600   23.4380 C.3    75  ILE75       0.0022
     45  CG2       18.0920    5.2440   23.3220 C.3    75  ILE75       0.0023
     46  CD1       19.4480    2.8060   22.1120 C.3    75  ILE75       0.0001
     47  N         17.8050    6.4770   26.4770 N.am   76  SER76      -0.1950
     48  CA        16.6270    7.1160   27.0590 C.3    76  SER76       0.1924
     49  C         15.5820    7.3850   25.9990 C.2    76  SER76       0.2314
     50  O         15.9050    7.7710   24.8760 O.2    76  SER76      -0.2863
     51  CB        17.0040    8.4450   27.7150 C.3    76  SER76       0.2116
     52  OG        17.5640    8.2330   28.9930 O.3    76  SER76      -0.2180
     53  N         13.8150   11.7790   19.5620 N.3    81  ARG81      -0.1245
     54  CA        13.9840   10.4730   18.9360 C.3    81  ARG81       0.1563
     55  C         12.6410    9.8880   18.4940 C.2    81  ARG81       0.2260
     56  O         12.5540    9.2420   17.4470 O.2    81  ARG81      -0.2867
     57  CB        14.6890    9.5050   19.8980 C.3    81  ARG81       0.0307
     58  CG        16.1360    9.9080   20.1780 C.3    81  ARG81       0.0489
     59  CD        16.7350    9.1610   21.3530 C.3    81  ARG81       0.2205
     60  NE        18.1690    9.4570   21.4500 N.pl3  81  ARG81      -0.0865
     61  CZ        18.9020    9.2330   22.5350 C.cat  81  ARG81       0.5346
     62  NH1       18.3350    8.7260   23.6250 N.pl3  81  ARG81       0.1354
     63  NH2       20.2030    9.5060   22.5240 N.pl3  81  ARG81       0.1354
     64  N         18.2550   12.7490   34.2910 N.3    96  LYS96      -0.1245
     65  CA        19.5300   13.4190   34.5250 C.3    96  LYS96       0.1561
     66  C         19.5820   13.8980   35.9670 C.2    96  LYS96       0.2260
     67  O         18.5530   14.2130   36.5780 O.2    96  LYS96      -0.2867
     68  CB        19.7160   14.6160   33.5860 C.3    96  LYS96       0.0271
     69  CG        19.5270   14.2980   32.1000 C.3    96  LYS96       0.0035
     70  CD        20.5900   13.3640   31.5720 C.3    96  LYS96       0.0206
     71  CE        20.4390   13.1550   30.0650 C.3    96  LYS96       0.1093
     72  NZ        21.4380   12.1850   29.5290 N.3    96  LYS96      -0.1314
     73  N         29.9580   16.1420   28.0310 N.3   124  ASN124     -0.1240
     74  CA        30.5370   15.4930   26.8600 C.3   124  ASN124      0.1653
     75  C         29.7950   15.9850   25.6190 C.2   124  ASN124      0.2266
     76  O         28.6230   16.3750   25.7000 O.2   124  ASN124     -0.2867
     77  CB        30.4490   13.9710   26.9800 C.3   124  ASN124      0.1155
     78  CG        29.0410   13.4950   27.2760 C.2   124  ASN124      0.2627
     79  OD1       28.3800   14.0050   28.1820 O.2   124  ASN124     -0.2716
     80  ND2       28.5780   12.5170   26.5150 N.am  124  ASN124     -0.0877
     81  N         22.8500   13.8660   24.6170 N.3   128  THR128     -0.1203
     82  CA        21.7330   14.3990   25.3740 C.3   128  THR128      0.1994
     83  C         22.1990   15.1590   26.6090 C.2   128  THR128      0.2617
     84  O         21.4870   16.0270   27.1140 O.2   128  THR128     -0.2717
     85  CB        20.7760   13.2800   25.8040 C.3   128  THR128      0.1784
     86  OG1       21.5210   12.2950   26.5200 O.3   128  THR128     -0.2211
     87  CG2       20.1440   12.6440   24.5820 C.3   128  THR128      0.0376
     88  N         23.3810   14.8300   27.1130 N.am  129  ASN129     -0.1974
     89  CA        23.9220   15.5970   28.2260 C.3   129  ASN129      0.1688
     90  C         24.1490   17.0590   27.8420 C.2   129  ASN129      0.2292
     91  O         23.7600   17.9650   28.5810 O.2   129  ASN129     -0.2864
     92  CB        25.2040   14.9620   28.7630 C.3   129  ASN129      0.1181
     93  CG        24.9250   13.7460   29.6190 C.2   129  ASN129      0.2629
     94  OD1       23.7780   13.4940   29.9920 O.2   129  ASN129     -0.2716
     95  ND2       25.9720   12.9830   29.9380 N.am  129  ASN129     -0.0877
     96  N         36.0160   11.3030   27.3720 N.3   148  ASN148     -0.1240
     97  CA        35.1460   10.7040   28.3820 C.3   148  ASN148      0.1653
     98  C         35.8730    9.9160   29.4700 C.2   148  ASN148      0.2266
     99  O         35.3280    9.6950   30.5510 O.2   148  ASN148     -0.2867
    100  CB        34.0780    9.8380   27.7150 C.3   148  ASN148      0.1155
    101  CG        33.0700   10.6630   26.9470 C.2   148  ASN148      0.2627
    102  OD1       32.7850   11.8050   27.3120 O.2   148  ASN148     -0.2716
    103  ND2       32.5260   10.0950   25.8770 N.am  148  ASN148     -0.0877
    104  N         24.1450   14.2400   34.3940 N.3   163  THR163     -0.1203
    105  CA        24.1530   13.0600   33.5320 C.3   163  THR163      0.1994
    106  C         23.1420   12.0420   34.0410 C.2   163  THR163      0.2617
    107  O         22.4830   12.2840   35.0620 O.2   163  THR163     -0.2717
    108  CB        25.5440   12.4230   33.4810 C.3   163  THR163      0.1784
    109  OG1       25.5590   11.3760   32.5040 O.3   163  THR163     -0.2211
    110  CG2       25.9330   11.8740   34.8450 C.3   163  THR163      0.0376
    111  N         23.0080   10.9160   33.3350 N.am  164  ASP164     -0.1973
    112  CA        22.0800    9.8680   33.7640 C.3   164  ASP164      0.1709
    113  C         22.3440    9.5360   35.2240 C.2   164  ASP164      0.2293
    114  O         23.4950    9.4210   35.6420 O.2   164  ASP164     -0.2864
    115  CB        22.2290    8.5770   32.9400 C.3   164  ASP164      0.1436
    116  CG        21.7420    8.7170   31.5090 C.2   164  ASP164      0.3671
    117  OD1       21.2090    9.7840   31.1270 O.co2 164  ASP164     -0.2456
    118  OD2       21.8970    7.7390   30.7510 O.co2 164  ASP164     -0.2456
    119  N         24.5360    6.6340   35.7870 N.3   167  GLU167     -0.1245
    120  CA        25.9480    6.9710   35.6150 C.3   167  GLU167      0.1567
    121  C         26.4990    7.7600   36.7990 C.2   167  GLU167      0.2260
    122  O         27.6130    7.4980   37.2590 O.2   167  GLU167     -0.2867
    123  CB        26.2020    7.7360   34.3100 C.3   167  GLU167      0.0388
    124  CG        27.6930    8.0060   34.1010 C.3   167  GLU167      0.1160
    125  CD        28.0370    8.5870   32.7400 C.2   167  GLU167      0.3649
    126  OE1       27.4110    9.5840   32.3380 O.co2 167  GLU167     -0.2457
    127  OE2       28.9710    8.0620   32.0860 O.co2 167  GLU167     -0.2457
    128  N         14.6050    4.3880   30.3570 N.3   191  LYS191     -0.1245
    129  CA        15.3700    3.6670   29.3440 C.3   191  LYS191      0.1561
    130  C         14.4670    2.6720   28.6100 C.2   191  LYS191      0.2260
    131  O         13.5510    2.0820   29.1980 O.2   191  LYS191     -0.2867
    132  CB        16.5410    2.9120   29.9870 C.3   191  LYS191      0.0271
    133  CG        17.5590    3.8250   30.6850 C.3   191  LYS191      0.0035
    134  CD        18.1550    4.8310   29.7130 C.3   191  LYS191      0.0206
    135  CE        19.2720    5.6520   30.3500 C.3   191  LYS191      0.1093
    136  NZ        19.7530    6.6610   29.3790 N.3   191  LYS191     -0.1314
@<TRIPOS>BOND
     1    56    55    2
     2    55    54    1
     3    54    53    1
     4    54    57    1
     5    24    23    2
     6    23    22    1
     7    57    58    1
     8    21    22    1
     9    58    59    1
    10    22    25    1
    11    59    60    1
    12    60    61    2
    13    25    26    1
    14    46    44    1
    15    63    61    1
    16    61    62    1
    17    26    28   ar
    18    26    27   ar
    19    31    28   ar
    20    31    33   ar
    21    28    30   ar
    22    45    43    1
    23    44    43    1
    24    27    29   ar
    25    33    34   ar
    26     8     6   ar
    27    43    40    1
    28    30    29   ar
    29    30    32   ar
    30    34    32   ar
    31    87    85    1
    32    81    82    1
    33     6     5    1
    34     6     7   ar
    35    50    49    2
    36     5     2    1
    37     1     2    1
    38    82    85    1
    39    82    83    1
    40    40    41    1
    41    40    39    1
    42    75    76    2
    43    75    74    1
    44    85    86    1
    45   103   101   am
    46     2     3    1
    47    49    48    1
    48    41    47   am
    49    41    42    2
    50    39    37   am
    51    47    48    1
    52    80    78   am
    53    83    88   am
    54    83    84    2
    55    74    77    1
    56    74    73    1
    57    35    36    1
    58   101   102    2
    59   101   100    1
    60    77    78    1
    61    48    51    1
    62    88    89    1
    63     3     9   am
    64     3     4    2
    65    78    79    2
    66    37    38    2
    67    37    36    1
    68    96    97    1
    69   100    97    1
    70    51    52    1
    71     9    10    1
    72    90    89    1
    73    90    91    2
    74    89    92    1
    75    13    10    1
    76    13    14    1
    77    97    98    1
    78   130   131    2
    79   130   129    1
    80    92    93    1
    81    10    11    1
    82    15    14   ar
    83    15    17   ar
    84    14    16   ar
    85   129   132    1
    86   129   128    1
    87   136   135    1
    88    98    99    2
    89    72    71    1
    90    93    95   am
    91    93    94    2
    92   134   135    1
    93   134   133    1
    94    17    19   ar
    95    11    12    2
    96   132   133    1
    97    71    70    1
    98    16    18   ar
    99   118   116   ar
   100    19    18   ar
   101    19    20    1
   102   117   116   ar
   103   116   115    1
   104    70    69    1
   105   127   125   ar
   106    69    68    1
   107   126   125   ar
   108   109   108    1
   109   125   124    1
   110   115   112    1
   111   111   112    1
   112   111   106   am
   113   108   105    1
   114   108   110    1
   115   105   106    1
   116   105   104    1
   117    68    65    1
   118   112   113    1
   119   106   107    2
   120   124   123    1
   121    64    65    1
   122   123   120    1
   123    65    66    1
   124   113   114    2
   125   120   119    1
   126   120   121    1
   127    66    67    2
   128   121   122    2
