@<TRIPOS>MOLECULE
tmp/3kbzB00.pdb
 144 136 0 0 0
SMALL
GASTEIGER

@<TRIPOS>ATOM
      1  N         27.7510    8.3520   31.9000 N.3     9  VAL9       -0.1245
      2  CA        28.8980    8.0540   32.7470 C.3     9  VAL9        0.1561
      3  C         28.5710    7.0070   33.8040 C.2     9  VAL9        0.2260
      4  O         29.3370    6.0680   34.0190 O.2     9  VAL9       -0.2867
      5  CB        29.4210    9.3590   33.4200 C.3     9  VAL9        0.0252
      6  CG1       30.3550    9.0390   34.5930 C.3     9  VAL9        0.0019
      7  CG2       30.1650   10.1920   32.3840 C.3     9  VAL9        0.0019
      8  N         28.2230    3.4630   32.0290 N.3    12  GLU12      -0.1231
      9  CA        29.4880    2.8670   31.6260 C.3    12  GLU12       0.1699
     10  C         30.2430    2.4150   32.8710 C.2    12  GLU12       0.2593
     11  O         30.9210    1.3960   32.8500 O.2    12  GLU12      -0.2718
     12  CB        30.3360    3.8630   30.8310 C.3    12  GLU12       0.0402
     13  CG        29.7890    4.1850   29.4570 C.3    12  GLU12       0.1161
     14  CD        29.4430    2.9380   28.6690 C.2    12  GLU12       0.3649
     15  OE1       30.3110    2.0440   28.5590 O.co2  12  GLU12      -0.2457
     16  OE2       28.3020    2.8500   28.1610 O.co2  12  GLU12      -0.2457
     17  N         30.1130    3.1740   33.9560 N.am   13  GLY13      -0.1942
     18  CA        30.7830    2.8190   35.1910 C.3    13  GLY13       0.2014
     19  C         30.2110    1.5460   35.7810 C.2    13  GLY13       0.2638
     20  O         30.9410    0.7240   36.3270 O.2    13  GLY13      -0.2714
     21  N         28.8980    1.3790   35.6750 N.am   14  ARG14      -0.1977
     22  CA        28.2550    0.1890   36.2000 C.3    14  ARG14       0.1597
     23  C         28.7220   -1.0360   35.4380 C.2    14  ARG14       0.2287
     24  O         28.9800   -2.0800   36.0330 O.2    14  ARG14      -0.2864
     25  CB        26.7380    0.3270   36.1120 C.3    14  ARG14       0.0334
     26  CG        26.1320    1.1180   37.2640 C.3    14  ARG14       0.0492
     27  CD        27.0470    2.2560   37.7120 C.3    14  ARG14       0.2205
     28  NE        28.1580    1.8070   38.5590 N.pl3  14  ARG14      -0.0865
     29  CZ        29.2700    2.5090   38.7800 C.cat  14  ARG14       0.5346
     30  NH1       29.4370    3.7000   38.2130 N.pl3  14  ARG14       0.1354
     31  NH2       30.2140    2.0190   39.5790 N.pl3  14  ARG14       0.1354
     32  N         31.5620   -1.4470   33.9790 N.3    16  ALA16      -0.1245
     33  CA        32.9650   -1.7160   34.2820 C.3    16  ALA16       0.1562
     34  C         33.1260   -2.4910   35.5910 C.2    16  ALA16       0.2260
     35  O         34.1820   -3.0690   35.8480 O.2    16  ALA16      -0.2867
     36  CB        33.7420   -0.4080   34.3450 C.3    16  ALA16       0.0290
     37  N         33.5750   -1.5910   38.7310 N.3    18  GLY18      -0.1210
     38  CA        34.7150   -1.1760   39.5300 C.3    18  GLY18       0.1956
     39  C         34.3060   -0.5900   40.8690 C.2    18  GLY18       0.2613
     40  O         33.2880   -0.9850   41.4410 O.2    18  GLY18      -0.2717
     41  N         35.0900    0.3610   41.3700 N.am   19  THR19      -0.1938
     42  CA        34.8010    0.9980   42.6580 C.3    19  THR19       0.2028
     43  C         33.9100    2.2220   42.5290 C.2    19  THR19       0.2643
     44  O         33.4040    2.7310   43.5340 O.2    19  THR19      -0.2714
     45  CB        36.0780    1.4610   43.3680 C.3    19  THR19       0.1808
     46  OG1       36.7130    2.4850   42.5870 O.3    19  THR19      -0.2208
     47  CG2       37.0310    0.2910   43.5580 C.3    19  THR19       0.0379
     48  N         33.7300    2.7000   41.3010 N.am   20  GLY20      -0.1939
     49  CA        32.8990    3.8650   41.0730 C.3    20  GLY20       0.2014
     50  C         33.6770    5.1670   41.1070 C.2    20  GLY20       0.2639
     51  O         33.1050    6.2420   40.9250 O.2    20  GLY20      -0.2714
     52  N         34.9840    5.0750   41.3310 N.am   21  GLU21      -0.1963
     53  CA        35.8350    6.2570   41.3960 C.3    21  GLU21       0.1733
     54  C         35.8210    7.1080   40.1280 C.2    21  GLU21       0.2616
     55  O         35.5960    8.3240   40.1840 O.2    21  GLU21      -0.2715
     56  CB        37.2750    5.8540   41.7190 C.3    21  GLU21       0.0429
     57  CG        37.5660    5.7620   43.2130 C.3    21  GLU21       0.1163
     58  CD        38.9660    5.2510   43.5100 C.2    21  GLU21       0.3649
     59  OE1       39.2230    4.0460   43.2950 O.co2  21  GLU21      -0.2457
     60  OE2       39.8120    6.0550   43.9550 O.co2  21  GLU21      -0.2457
     61  N         36.0630    6.4810   38.9810 N.am   22  LEU22      -0.1963
     62  CA        36.0840    7.2310   37.7320 C.3    22  LEU22       0.1728
     63  C         34.7460    7.9310   37.4940 C.2    22  LEU22       0.2616
     64  O         34.6940    9.0030   36.8990 O.2    22  LEU22      -0.2715
     65  CB        36.4360    6.3200   36.5510 C.3    22  LEU22       0.0311
     66  CG        36.6300    7.0790   35.2300 C.3    22  LEU22       0.0022
     67  CD1       37.6190    8.1910   35.4280 C.3    22  LEU22       0.0001
     68  CD2       37.1110    6.1430   34.1420 C.3    22  LEU22       0.0001
     69  N         33.6670    7.3230   37.9660 N.am   23  THR23      -0.1951
     70  CA        32.3480    7.9200   37.8300 C.3    23  THR23       0.1897
     71  C         32.3260    9.2390   38.6070 C.2    23  THR23       0.2313
     72  O         31.8780   10.2720   38.0990 O.2    23  THR23      -0.2863
     73  CB        31.2790    7.0090   38.4140 C.3    23  THR23       0.1794
     74  OG1       31.2900    5.7630   37.7160 O.3    23  THR23      -0.2208
     75  CG2       29.9080    7.6530   38.2990 C.3    23  THR23       0.0378
     76  N         34.5720   11.8640   36.9010 N.3    26  LEU26      -0.1245
     77  CA        33.9200   12.4370   35.7290 C.3    26  LEU26       0.1561
     78  C         32.7740   13.3750   36.1000 C.2    26  LEU26       0.2260
     79  O         32.5970   14.4160   35.4750 O.2    26  LEU26      -0.2867
     80  CB        33.4100   11.3160   34.8130 C.3    26  LEU26       0.0270
     81  CG        34.5200   10.4990   34.1440 C.3    26  LEU26       0.0019
     82  CD1       33.9170    9.4040   33.2730 C.3    26  LEU26       0.0001
     83  CD2       35.4010   11.4280   33.3130 C.3    26  LEU26       0.0001
     84  N         42.6450    6.6680   42.8990 N.3    95  LYS95      -0.1231
     85  CA        43.6430    6.0080   42.0610 C.3    95  LYS95       0.1693
     86  C         43.9240    6.6410   40.7000 C.2    95  LYS95       0.2592
     87  O         44.7140    6.1080   39.9310 O.2    95  LYS95      -0.2718
     88  CB        43.2410    4.5470   41.8450 C.3    95  LYS95       0.0285
     89  CG        41.9170    4.3830   41.1080 C.3    95  LYS95       0.0035
     90  CD        41.4160    2.9530   41.1720 C.3    95  LYS95       0.0206
     91  CE        39.9860    2.8600   40.6850 C.3    95  LYS95       0.1093
     92  NZ        39.4150    1.5280   40.9610 N.3    95  LYS95      -0.1314
     93  N         43.3000    7.7740   40.4010 N.am   96  TYR96      -0.1976
     94  CA        43.4990    8.4080   39.1050 C.3    96  TYR96       0.1639
     95  C         44.4230    9.6140   39.0650 C.2    96  TYR96       0.2290
     96  O         44.5590   10.3570   40.0400 O.2    96  TYR96      -0.2864
     97  CB        42.1420    8.7880   38.5130 C.3    96  TYR96       0.0560
     98  CG        41.3300    7.5760   38.1370 C.ar   96  TYR96      -0.0198
     99  CD1       41.6920    6.7810   37.0450 C.ar   96  TYR96      -0.0009
    100  CD2       40.2310    7.1850   38.9000 C.ar   96  TYR96      -0.0009
    101  CE1       40.9800    5.6250   36.7270 C.ar   96  TYR96       0.0417
    102  CE2       39.5180    6.0320   38.5910 C.ar   96  TYR96       0.0417
    103  CZ        39.9010    5.2570   37.5030 C.ar   96  TYR96       0.1957
    104  OH        39.2100    4.1060   37.2140 O.3    96  TYR96      -0.2866
    105  N         45.3550    5.8690   35.1480 N.3   123  ARG123     -0.1245
    106  CA        45.2110    5.0820   36.3640 C.3   123  ARG123      0.1563
    107  C         46.6200    5.0310   36.9560 C.2   123  ARG123      0.2260
    108  O         47.5740    4.7260   36.2380 O.2   123  ARG123     -0.2867
    109  CB        44.7480    3.6710   36.0170 C.3   123  ARG123      0.0307
    110  CG        44.4570    2.7960   37.2220 C.3   123  ARG123      0.0489
    111  CD        43.0340    2.3090   37.1550 C.3   123  ARG123      0.2205
    112  NE        42.7460    1.7390   35.8440 N.pl3 123  ARG123     -0.0865
    113  CZ        41.5220    1.4770   35.3970 C.cat 123  ARG123      0.5346
    114  NH1       40.4720    1.7390   36.1670 N.pl3 123  ARG123      0.1354
    115  NH2       41.3510    0.9570   34.1840 N.pl3 123  ARG123      0.1354
    116  N         42.8500    6.2220   30.0980 N.3   143  VAL143     -0.1245
    117  CA        41.6260    5.4910   30.4000 C.3   143  VAL143      0.1561
    118  C         40.4470    6.2970   29.8510 C.2   143  VAL143      0.2260
    119  O         39.3890    5.7520   29.5240 O.2   143  VAL143     -0.2867
    120  CB        41.4520    5.3010   31.9340 C.3   143  VAL143      0.0252
    121  CG1       40.1120    4.6300   32.2360 C.3   143  VAL143      0.0019
    122  CG2       42.5920    4.4410   32.4840 C.3   143  VAL143      0.0019
    123  N         36.6120    7.3950   25.3110 N.3   160  MET160     -0.1230
    124  CA        36.9550    6.2440   26.1420 C.3   160  MET160      0.1702
    125  C         37.0840    5.0700   25.1930 C.2   160  MET160      0.2592
    126  O         36.9270    5.2280   23.9830 O.2   160  MET160     -0.2718
    127  CB        35.8460    5.9430   27.1580 C.3   160  MET160      0.0401
    128  CG        35.5090    7.0990   28.0900 C.3   160  MET160      0.0596
    129  SD        34.3780    6.6380   29.4460 S.3   160  MET160     -0.1393
    130  CE        32.7870    6.7440   28.6540 C.3   160  MET160      0.0692
    131  N         37.3610    3.8920   25.7370 N.am  161  ASP161     -0.1960
    132  CA        37.4930    2.7070   24.9060 C.3   161  ASP161      0.1840
    133  C         36.2570    2.4610   24.0400 C.2   161  ASP161      0.2622
    134  O         36.3790    2.0230   22.8960 O.2   161  ASP161     -0.2715
    135  CB        37.7500    1.4780   25.7710 C.3   161  ASP161      0.1450
    136  CG        39.1040    0.8660   25.5090 C.2   161  ASP161      0.3671
    137  OD1       40.1120    1.4850   25.9000 O.co2 161  ASP161     -0.2456
    138  OD2       39.1600   -0.2260   24.9010 O.co2 161  ASP161     -0.2456
    139  N         35.0730    2.7450   24.5780 N.am  162  CYS162     -0.1968
    140  CA        33.8360    2.5350   23.8280 C.3   162  CYS162      0.1712
    141  C         33.6290    3.5410   22.6980 C.2   162  CYS162      0.2296
    142  O         32.6560    3.4410   21.9500 O.2   162  CYS162     -0.2864
    143  CB        32.6160    2.5470   24.7570 C.3   162  CYS162      0.0983
    144  SG        32.3380    4.0880   25.6630 S.3   162  CYS162     -0.0798
@<TRIPOS>BOND
     1   142   141    2
     2   141   140    1
     3   134   133    2
     4   140   139    1
     5   140   143    1
     6   126   125    2
     7   133   139   am
     8   133   132    1
     9   143   144    1
    10   138   136   ar
    11   132   131    1
    12   132   135    1
    13   125   131   am
    14   125   124    1
    15   123   124    1
    16   136   135    1
    17   136   137   ar
    18   124   127    1
    19   127   128    1
    20   128   129    1
    21    16    14   ar
    22    15    14   ar
    23   130   129    1
    24    14    13    1
    25    13    12    1
    26   119   118    2
    27   118   117    1
    28   116   117    1
    29   117   120    1
    30    12     9    1
    31     9     8    1
    32     9    10    1
    33     1     2    1
    34   120   121    1
    35   120   122    1
    36     7     5    1
    37     2     5    1
    38     2     3    1
    39    11    10    2
    40    10    17   am
    41    82    81    1
    42    83    81    1
    43     5     6    1
    44     3     4    2
    45    17    18    1
    46    32    33    1
    47    68    66    1
    48    81    80    1
    49   115   113    1
    50    33    36    1
    51    33    34    1
    52    80    77    1
    53   105   106    1
    54    18    19    1
    55    66    67    1
    56    66    65    1
    57   113   112    2
    58   113   114    1
    59    23    24    2
    60    23    22    1
    61    79    78    2
    62    34    35    2
    63    21    19   am
    64    21    22    1
    65    77    78    1
    66    77    76    1
    67    19    20    2
    68   112   111    1
    69   109   106    1
    70   109   110    1
    71    25    22    1
    72    25    26    1
    73   108   107    2
    74   106   107    1
    75    65    62    1
    76   101    99   ar
    77   101   103   ar
    78    64    63    2
    79    99    98   ar
    80   111   110    1
    81   104   103    1
    82    26    27    1
    83    63    62    1
    84    63    69   am
    85   103   102   ar
    86    27    28    1
    87    74    73    1
    88    62    61    1
    89    70    69    1
    90    70    73    1
    91    70    71    1
    92    72    71    2
    93    98    97    1
    94    98   100   ar
    95    30    29    1
    96    75    73    1
    97    97    94    1
    98    28    29    2
    99   102   100   ar
   100    37    38    1
   101    29    31    1
   102    61    54   am
   103    95    94    1
   104    95    96    2
   105    94    93    1
   106    38    39    1
   107    87    86    2
   108    54    55    2
   109    54    53    1
   110    93    86   am
   111    91    92    1
   112    91    90    1
   113    86    85    1
   114    39    41   am
   115    39    40    2
   116    51    50    2
   117    49    50    1
   118    49    48    1
   119    50    52   am
   120    89    90    1
   121    89    88    1
   122    48    43   am
   123    52    53    1
   124    41    42    1
   125    53    56    1
   126    56    57    1
   127    88    85    1
   128    85    84    1
   129    43    42    1
   130    43    44    2
   131    46    45    1
   132    42    45    1
   133    57    58    1
   134    59    58   ar
   135    45    47    1
   136    58    60   ar
