@<TRIPOS>MOLECULE
tmp/3kc1C00.pdb
 133 125 0 0 0
SMALL
GASTEIGER

@<TRIPOS>ATOM
      1  N          7.5020   51.2490   28.4430 N.3     9  VAL9       -0.1245
      2  CA         7.8410   52.4620   29.1800 C.3     9  VAL9        0.1561
      3  C          8.3360   53.5770   28.2540 C.2     9  VAL9        0.2260
      4  O          7.9830   54.7420   28.4260 O.2     9  VAL9       -0.2867
      5  CB         8.9180   52.1630   30.2580 C.3     9  VAL9        0.0252
      6  CG1        9.4580   53.4620   30.8480 C.3     9  VAL9        0.0019
      7  CG2        8.3110   51.2840   31.3660 C.3     9  VAL9        0.0019
      8  N          5.2230   55.1100   26.4920 N.3    12  GLU12      -0.1231
      9  CA         4.4350   55.9390   27.3980 C.3    12  GLU12       0.1699
     10  C          5.1820   57.2370   27.6920 C.2    12  GLU12       0.2592
     11  O          4.5910   58.3160   27.6980 O.2    12  GLU12      -0.2718
     12  CB         4.1690   55.2020   28.7140 C.3    12  GLU12       0.0402
     13  CG         2.8830   54.4220   28.7260 C.3    12  GLU12       0.1161
     14  CD         1.6830   55.3210   28.5310 C.2    12  GLU12       0.3649
     15  OE1        1.4110   56.1740   29.4080 O.co2  12  GLU12      -0.2457
     16  OE2        1.0170   55.1760   27.4900 O.co2  12  GLU12      -0.2457
     17  N          6.4820   57.1180   27.9390 N.am   13  GLY13      -0.1957
     18  CA         7.2930   58.2880   28.2190 C.3    13  GLY13       0.1869
     19  C          7.2830   59.2570   27.0530 C.2    13  GLY13       0.2309
     20  O          7.2130   60.4700   27.2410 O.2    13  GLY13      -0.2863
     21  N          4.2680   61.4430   26.9170 N.3    16  ALA16      -0.1245
     22  CA         4.2470   62.4790   27.9440 C.3    16  ALA16       0.1562
     23  C          5.0250   63.7240   27.5350 C.2    16  ALA16       0.2260
     24  O          4.8720   64.7840   28.1400 O.2    16  ALA16      -0.2867
     25  CB         4.7990   61.9310   29.2510 C.3    16  ALA16       0.0290
     26  N          8.0820   64.6770   27.9900 N.3    18  GLY18      -0.1210
     27  CA         8.8370   65.2630   29.0830 C.3    18  GLY18       0.1956
     28  C         10.3330   65.2380   28.8480 C.2    18  GLY18       0.2613
     29  O         10.7930   65.3540   27.7160 O.2    18  GLY18      -0.2717
     30  N         11.0970   65.0730   29.9220 N.am   19  THR19      -0.1938
     31  CA        12.5510   65.0400   29.8340 C.3    19  THR19       0.2028
     32  C         13.1100   63.6370   29.5840 C.2    19  THR19       0.2643
     33  O         14.2520   63.4910   29.1550 O.2    19  THR19      -0.2714
     34  CB        13.1810   65.5880   31.1310 C.3    19  THR19       0.1808
     35  OG1       12.9600   64.6560   32.2000 O.3    19  THR19      -0.2208
     36  CG2       12.5420   66.9260   31.5060 C.3    19  THR19       0.0379
     37  N         12.3030   62.6130   29.8560 N.am   20  GLY20      -0.1939
     38  CA        12.7460   61.2390   29.6740 C.3    20  GLY20       0.2014
     39  C         13.2790   60.6360   30.9710 C.2    20  GLY20       0.2639
     40  O         13.6850   59.4670   31.0210 O.2    20  GLY20      -0.2714
     41  N         13.2720   61.4340   32.0340 N.am   21  GLU21      -0.1963
     42  CA        13.7670   60.9800   33.3270 C.3    21  GLU21       0.1733
     43  C         13.0570   59.7540   33.9020 C.2    21  GLU21       0.2616
     44  O         13.7100   58.7930   34.2930 O.2    21  GLU21      -0.2715
     45  CB        13.7030   62.1200   34.3410 C.3    21  GLU21       0.0429
     46  CG        14.9550   62.9900   34.3860 C.3    21  GLU21       0.1163
     47  CD        14.7540   64.2400   35.2310 C.2    21  GLU21       0.3649
     48  OE1       14.0710   65.1740   34.7590 O.co2  21  GLU21      -0.2457
     49  OE2       15.2610   64.2800   36.3700 O.co2  21  GLU21      -0.2457
     50  N         11.7310   59.7790   33.9590 N.am   22  LEU22      -0.1963
     51  CA        11.0060   58.6490   34.5210 C.3    22  LEU22       0.1728
     52  C         11.2990   57.3780   33.7300 C.2    22  LEU22       0.2616
     53  O         11.3370   56.2820   34.2920 O.2    22  LEU22      -0.2715
     54  CB         9.5000   58.9370   34.5610 C.3    22  LEU22       0.0311
     55  CG         8.6190   57.8900   35.2460 C.3    22  LEU22       0.0022
     56  CD1        9.2120   57.4960   36.5960 C.3    22  LEU22       0.0001
     57  CD2        7.2250   58.4460   35.4230 C.3    22  LEU22       0.0001
     58  N         11.5160   57.5310   32.4280 N.am   23  THR23      -0.1951
     59  CA        11.8340   56.4020   31.5680 C.3    23  THR23       0.1897
     60  C         13.1640   55.7900   32.0240 C.2    23  THR23       0.2313
     61  O         13.2860   54.5710   32.1780 O.2    23  THR23      -0.2863
     62  CB        11.9480   56.8660   30.0920 C.3    23  THR23       0.1794
     63  OG1       10.6470   57.2420   29.6120 O.3    23  THR23      -0.2208
     64  CG2       12.5100   55.7590   29.2100 C.3    23  THR23       0.0378
     65  N         12.7570   54.1030   35.4680 N.3    26  LEU26      -0.1245
     66  CA        12.1350   52.7880   35.3700 C.3    26  LEU26       0.1561
     67  C         13.0470   51.7570   34.7140 C.2    26  LEU26       0.2260
     68  O         13.0470   50.5920   35.1120 O.2    26  LEU26      -0.2867
     69  CB        10.7990   52.8820   34.6250 C.3    26  LEU26       0.0270
     70  CG         9.7070   53.6110   35.4210 C.3    26  LEU26       0.0019
     71  CD1        8.5100   53.8620   34.5370 C.3    26  LEU26       0.0001
     72  CD2        9.3100   52.7950   36.6500 C.3    26  LEU26       0.0001
     73  N         14.5530   64.7880   39.2640 N.3    95  LYS95      -0.1231
     74  CA        13.3730   65.3230   39.9340 C.3    95  LYS95       0.1693
     75  C         12.4580   64.3380   40.6740 C.2    95  LYS95       0.2592
     76  O         11.4490   64.7540   41.2400 O.2    95  LYS95      -0.2718
     77  CB        12.5410   66.1170   38.9230 C.3    95  LYS95       0.0285
     78  CG        12.0380   65.2790   37.7530 C.3    95  LYS95       0.0035
     79  CD        11.1460   66.0910   36.8170 C.3    95  LYS95       0.0206
     80  CE        10.6930   65.2510   35.6330 C.3    95  LYS95       0.1093
     81  NZ         9.6840   65.9430   34.8020 N.3    95  LYS95      -0.1314
     82  N         12.8040   63.0540   40.7000 N.am   96  TYR96      -0.1976
     83  CA        11.9460   62.0720   41.3590 C.3    96  TYR96       0.1639
     84  C         12.3870   61.5830   42.7360 C.2    96  TYR96       0.2290
     85  O         13.5740   61.5670   43.0630 O.2    96  TYR96      -0.2864
     86  CB        11.7450   60.8690   40.4350 C.3    96  TYR96       0.0560
     87  CG        10.9560   61.1830   39.1830 C.ar   96  TYR96      -0.0198
     88  CD1        9.5700   61.3350   39.2260 C.ar   96  TYR96      -0.0009
     89  CD2       11.5960   61.3370   37.9580 C.ar   96  TYR96      -0.0009
     90  CE1        8.8410   61.6300   38.0690 C.ar   96  TYR96       0.0417
     91  CE2       10.8840   61.6310   36.8050 C.ar   96  TYR96       0.0417
     92  CZ         9.5100   61.7750   36.8630 C.ar   96  TYR96       0.1957
     93  OH         8.8110   62.0600   35.7100 O.3    96  TYR96      -0.2866
     94  N          7.0130   62.8080   42.1820 N.3   123  ARG123     -0.1245
     95  CA         7.7350   63.9070   41.5500 C.3   123  ARG123      0.1563
     96  C          8.0060   64.8670   42.7100 C.2   123  ARG123      0.2260
     97  O          7.0960   65.1650   43.4820 O.2   123  ARG123     -0.2867
     98  CB         6.8360   64.5890   40.5060 C.3   123  ARG123      0.0307
     99  CG         7.5590   65.4470   39.4690 C.3   123  ARG123      0.0489
    100  CD         6.5660   66.2940   38.6370 C.3   123  ARG123      0.2205
    101  NE         5.4610   65.5230   38.0440 N.pl3 123  ARG123     -0.0865
    102  CZ         5.5660   64.7030   36.9950 C.cat 123  ARG123      0.5346
    103  NH1        6.7370   64.5250   36.3880 N.pl3 123  ARG123      0.1354
    104  NH2        4.4920   64.0520   36.5520 N.pl3 123  ARG123      0.1354
    105  N          3.2260   58.9440   40.7760 N.3   143  VAL143     -0.1245
    106  CA         3.2080   59.0190   39.3210 C.3   143  VAL143      0.1561
    107  C          3.3420   57.5920   38.7810 C.2   143  VAL143      0.2260
    108  O          2.8900   57.2840   37.6820 O.2   143  VAL143     -0.2867
    109  CB         4.3370   59.9230   38.7660 C.3   143  VAL143      0.0252
    110  CG1        5.6880   59.3470   39.0930 C.3   143  VAL143      0.0019
    111  CG2        4.1660   60.0910   37.2570 C.3   143  VAL143      0.0019
    112  N          0.4310   52.9660   36.6130 N.3   160  MET160     -0.1230
    113  CA         0.5920   54.3800   36.3030 C.3   160  MET160      0.1702
    114  C         -0.7920   54.8700   35.8820 C.2   160  MET160      0.2592
    115  O         -1.7640   54.1090   35.9360 O.2   160  MET160     -0.2718
    116  CB         1.5880   54.5740   35.1510 C.3   160  MET160      0.0401
    117  CG         2.9360   53.8870   35.3540 C.3   160  MET160      0.0596
    118  SD         4.2090   54.4000   34.1560 S.3   160  MET160     -0.1393
    119  CE         3.5120   53.7760   32.6270 C.3   160  MET160      0.0692
    120  N         -0.8890   56.1270   35.4590 N.am  161  ASP161     -0.1960
    121  CA        -2.1710   56.6770   35.0290 C.3   161  ASP161      0.1840
    122  C         -2.8570   55.8400   33.9530 C.2   161  ASP161      0.2622
    123  O         -4.0830   55.7070   33.9560 O.2   161  ASP161     -0.2715
    124  CB        -2.0010   58.1070   34.5040 C.3   161  ASP161      0.1450
    125  CG        -2.1580   59.1490   35.5880 C.2   161  ASP161      0.3671
    126  OD1       -2.9920   58.9380   36.4950 O.co2 161  ASP161     -0.2456
    127  OD2       -1.4660   60.1890   35.5260 O.co2 161  ASP161     -0.2456
    128  N         -2.0710   55.2810   33.0350 N.am  162  CYS162     -0.1968
    129  CA        -2.6170   54.4720   31.9440 C.3   162  CYS162      0.1712
    130  C         -3.1800   53.1270   32.4050 C.2   162  CYS162      0.2296
    131  O         -3.7780   52.3960   31.6130 O.2   162  CYS162     -0.2864
    132  CB        -1.5420   54.2230   30.8830 C.3   162  CYS162      0.0983
    133  SG        -0.1990   53.1550   31.4540 S.3   162  CYS162     -0.0798
@<TRIPOS>BOND
     1     8     9    1
     2    21    22    1
     3    19    20    2
     4    19    18    1
     5     9    10    1
     6     9    12    1
     7    16    14   ar
     8    23    22    1
     9    23    24    2
    10    10    11    2
    11    10    17   am
    12    29    28    2
    13    17    18    1
    14    22    25    1
    15    26    27    1
    16     3     4    2
    17     3     2    1
    18     1     2    1
    19    14    13    1
    20    14    15   ar
    21    12    13    1
    22    28    27    1
    23    28    30   am
    24    33    32    2
    25     2     5    1
    26    64    62    1
    27    32    31    1
    28    32    37   am
    29    63    62    1
    30    38    37    1
    31    38    39    1
    32    31    30    1
    33    31    34    1
    34    62    59    1
    35     5     6    1
    36     5     7    1
    37   132   133    1
    38   132   129    1
    39    39    40    2
    40    39    41   am
    41    34    36    1
    42    34    35    1
    43    59    60    1
    44    59    58    1
    45   131   130    2
    46   129   130    1
    47   129   128    1
    48    60    61    2
    49    41    42    1
    50    58    52   am
    51   119   118    1
    52   128   122   am
    53    42    43    1
    54    42    45    1
    55    52    53    2
    56    52    51    1
    57    43    50   am
    58    43    44    2
    59   122   123    2
    60   122   121    1
    61    50    51    1
    62   118   117    1
    63    45    46    1
    64    46    47    1
    65   124   121    1
    66   124   125    1
    67    51    54    1
    68    71    70    1
    69    54    55    1
    70    69    66    1
    71    69    70    1
    72    67    68    2
    73    67    66    1
    74    48    47   ar
    75    81    80    1
    76   121   120    1
    77   116   117    1
    78   116   113    1
    79    47    49   ar
    80    55    57    1
    81    55    56    1
    82    66    65    1
    83    70    72    1
    84   120   114   am
    85   127   125   ar
    86   125   126   ar
    87    80    79    1
    88    93    92    1
    89   114   115    2
    90   114   113    1
    91   113   112    1
    92   103   102    1
    93   104   102    1
    94    91    92   ar
    95    91    89   ar
    96    79    78    1
    97    92    90   ar
    98   102   101    2
    99   111   109    1
   100   108   107    2
   101    78    77    1
   102    89    87   ar
   103   101   100    1
   104    90    88   ar
   105   100    99    1
   106   109   110    1
   107   109   106    1
   108   107   106    1
   109    77    74    1
   110    87    88   ar
   111    87    86    1
   112    73    74    1
   113   106   105    1
   114    99    98    1
   115    74    75    1
   116    86    83    1
   117    98    95    1
   118    75    82   am
   119    75    76    2
   120    82    83    1
   121    83    84    1
   122    95    94    1
   123    95    96    1
   124    96    97    2
   125    84    85    2
