@<TRIPOS>MOLECULE
tmp/3kc3A00.pdb
 182 170 0 0 0
SMALL
GASTEIGER

@<TRIPOS>ATOM
      1  N         -4.5240   55.8720   -4.5610 N.3    28  LEU28      -0.1231
      2  CA        -5.1470   56.8500   -5.4090 C.3    28  LEU28       0.1693
      3  C         -6.5380   56.3650   -5.6990 C.2    28  LEU28       0.2592
      4  O         -7.5150   57.1000   -5.5590 O.2    28  LEU28      -0.2718
      5  CB        -4.3730   56.9530   -6.7000 C.3    28  LEU28       0.0284
      6  CG        -3.0310   57.6270   -6.6150 C.3    28  LEU28       0.0019
      7  CD1       -2.4510   57.7670   -7.9990 C.3    28  LEU28       0.0001
      8  CD2       -3.2360   58.9840   -6.0280 C.3    28  LEU28       0.0001
      9  N         -6.6160   55.1000   -6.0980 N.am   29  GLY29      -0.1957
     10  CA        -7.8890   54.4550   -6.4200 C.3    29  GLY29       0.1869
     11  C         -7.7580   52.9640   -6.1840 C.2    29  GLY29       0.2309
     12  O         -6.8070   52.3530   -6.6470 O.2    29  GLY29      -0.2863
     13  N         -9.5910   50.4420   -7.3280 N.3    31  GLY31      -0.1210
     14  CA        -9.6450   49.8460   -8.6660 C.3    31  GLY31       0.1956
     15  C         -9.9140   48.3470   -8.7120 C.2    31  GLY31       0.2611
     16  O        -10.2910   47.7370   -7.6960 O.2    31  GLY31      -0.2717
     17  N         -9.7450   47.7650   -9.9060 N.am   32  ILE32      -0.1979
     18  CA        -9.7450   46.2990  -10.1080 C.3    32  ILE32       0.1595
     19  C         -8.2960   45.7370  -10.0110 C.2    32  ILE32       0.2287
     20  O         -7.3320   46.5050   -9.7680 O.2    32  ILE32      -0.2864
     21  CB       -10.4500   45.8790  -11.4690 C.3    32  ILE32       0.0276
     22  CG1      -10.9270   44.3970  -11.4360 C.3    32  ILE32       0.0022
     23  CG2       -9.5600   46.2030  -12.6670 C.3    32  ILE32       0.0022
     24  CD1      -11.0570   43.6700  -12.8240 C.3    32  ILE32       0.0001
     25  N         -4.4320   50.8140   -6.6060 N.3    36  VAL36      -0.1245
     26  CA        -3.5540   51.7400   -7.3470 C.3    36  VAL36       0.1561
     27  C         -2.8470   52.6960   -6.4160 C.2    36  VAL36       0.2260
     28  O         -3.4790   53.6070   -5.8850 O.2    36  VAL36      -0.2867
     29  CB        -4.2940   52.5060   -8.4710 C.3    36  VAL36       0.0252
     30  CG1       -3.4580   53.6130   -9.0510 C.3    36  VAL36       0.0019
     31  CG2       -4.6890   51.5390   -9.5460 C.3    36  VAL36       0.0019
     32  N          1.7800   56.2980  -11.0540 N.3    49  ALA49      -0.1245
     33  CA         0.8200   55.4230  -10.4230 C.3    49  ALA49       0.1562
     34  C          1.1550   53.9860  -10.7110 C.2    49  ALA49       0.2260
     35  O          1.5490   53.6330  -11.8430 O.2    49  ALA49      -0.2867
     36  CB        -0.5560   55.7440  -10.9070 C.3    49  ALA49       0.0290
     37  N         -0.0920   49.9470  -10.4820 N.3    51  LYS51      -0.1245
     38  CA        -1.0950   48.9170  -10.2700 C.3    51  LYS51       0.1561
     39  C         -0.4000   47.5710  -10.4720 C.2    51  LYS51       0.2260
     40  O          0.4130   47.4600  -11.3920 O.2    51  LYS51      -0.2867
     41  CB        -2.2440   49.0650  -11.2280 C.3    51  LYS51       0.0271
     42  CG        -2.8980   47.7410  -11.4910 C.3    51  LYS51       0.0035
     43  CD        -3.7660   47.7560  -12.6930 C.3    51  LYS51       0.0206
     44  CE        -5.2060   47.6500  -12.3190 C.3    51  LYS51       0.1093
     45  NZ        -6.0650   47.4370  -13.5300 N.3    51  LYS51      -0.1314
     46  N         -4.3350   42.1160  -19.9590 N.3    62  GLU62      -0.1245
     47  CA        -4.6240   43.4880  -19.5960 C.3    62  GLU62       0.1567
     48  C         -3.5190   44.4080  -20.1240 C.2    62  GLU62       0.2260
     49  O         -3.8130   45.4690  -20.6710 O.2    62  GLU62      -0.2867
     50  CB        -4.7750   43.6620  -18.1110 C.3    62  GLU62       0.0388
     51  CG        -5.1200   45.0720  -17.7510 C.3    62  GLU62       0.1160
     52  CD        -5.4230   45.2390  -16.2720 C.2    62  GLU62       0.3649
     53  OE1       -5.7670   44.2360  -15.5880 O.co2  62  GLU62      -0.2457
     54  OE2       -5.3140   46.3980  -15.7890 O.co2  62  GLU62      -0.2457
     55  N         -3.9910   47.5550  -22.6880 N.3    66  HIS66      -0.1241
     56  CA        -3.8070   48.8830  -22.2060 C.3    66  HIS66       0.1621
     57  C         -2.6250   49.4860  -22.9880 C.2    66  HIS66       0.2264
     58  O         -2.6500   50.6900  -23.3470 O.2    66  HIS66      -0.2867
     59  CB        -3.5450   48.8370  -20.7220 C.3    66  HIS66       0.0745
     60  CG        -3.6020   50.1710  -20.0360 C.ar   66  HIS66       0.0817
     61  ND1       -3.8620   50.2960  -18.6860 N.ar   66  HIS66      -0.2268
     62  CD2       -3.4360   51.4280  -20.4960 C.ar   66  HIS66       0.1154
     63  CE1       -3.8860   51.5710  -18.3460 C.ar   66  HIS66       0.1986
     64  NE2       -3.6270   52.2780  -19.4260 N.ar   66  HIS66      -0.2212
     65  N         -5.3950   56.4420  -20.3680 N.3    76  VAL76      -0.1245
     66  CA        -4.3170   56.8440  -19.4420 C.3    76  VAL76       0.1561
     67  C         -3.0120   56.1570  -19.8340 C.2    76  VAL76       0.2260
     68  O         -3.0120   54.9710  -20.0400 O.2    76  VAL76      -0.2867
     69  CB        -4.6440   56.6480  -17.8920 C.3    76  VAL76       0.0252
     70  CG1       -5.0620   55.2930  -17.5900 C.3    76  VAL76       0.0019
     71  CG2       -3.4240   56.8970  -17.0670 C.3    76  VAL76       0.0019
     72  N          2.4800   47.6940  -13.2610 N.3    94  ILE94      -0.1245
     73  CA         2.1320   48.6160  -14.3160 C.3    94  ILE94       0.1561
     74  C          2.3400   50.0260  -13.8390 C.2    94  ILE94       0.2260
     75  O          1.6780   50.4630  -12.9160 O.2    94  ILE94      -0.2867
     76  CB         0.6860   48.3650  -14.7820 C.3    94  ILE94       0.0252
     77  CG1        0.5440   46.9280  -15.3180 C.3    94  ILE94       0.0019
     78  CG2        0.3100   49.3480  -15.8580 C.3    94  ILE94       0.0019
     79  CD1       -0.8010   46.5850  -15.7860 C.3    94  ILE94       0.0001
     80  N          1.7500   53.7730  -14.5190 N.3    96  MET96      -0.1230
     81  CA         0.9290   54.6990  -15.3340 C.3    96  MET96       0.1702
     82  C          1.3260   56.1570  -15.1090 C.2    96  MET96       0.2592
     83  O          1.7870   56.5120  -14.0110 O.2    96  MET96      -0.2718
     84  CB        -0.4940   54.6430  -14.8240 C.3    96  MET96       0.0401
     85  CG        -1.4540   53.9580  -15.6430 C.3    96  MET96       0.0596
     86  SD        -2.4230   52.7350  -14.7460 S.3    96  MET96      -0.1393
     87  CE        -2.1000   53.0140  -13.0050 C.3    96  MET96       0.0692
     88  N          1.0790   57.0260  -16.0890 N.am   97  GLU97      -0.1966
     89  CA         1.0970   58.4630  -15.7990 C.3    97  GLU97       0.1733
     90  C          0.1440   58.6570  -14.5890 C.2    97  GLU97       0.2616
     91  O         -0.8780   57.9770  -14.4780 O.2    97  GLU97      -0.2715
     92  CB         0.7070   59.3190  -17.0370 C.3    97  GLU97       0.0429
     93  CG        -0.7010   58.9890  -17.5000 C.3    97  GLU97       0.1163
     94  CD        -1.3570   59.8930  -18.5710 C.2    97  GLU97       0.3649
     95  OE1       -1.1040   61.1310  -18.6310 O.co2  97  GLU97      -0.2457
     96  OE2       -2.1930   59.3210  -19.3300 O.co2  97  GLU97      -0.2457
     97  N          0.4960   59.5350  -13.6550 N.am   98  CYS98      -0.1954
     98  CA        -0.4010   59.7970  -12.5190 C.3    98  CYS98       0.1843
     99  C         -1.3110   60.8920  -12.9110 C.2    98  CYS98       0.2625
    100  O         -0.8530   62.0030  -13.1690 O.2    98  CYS98      -0.2714
    101  CB         0.3220   60.2670  -11.2510 C.3    98  CYS98       0.0997
    102  SG        -0.7960   60.9020   -9.9210 S.3    98  CYS98      -0.0797
    103  N         -2.6040   60.5680  -12.9350 N.am   99  LEU99      -0.1963
    104  CA        -3.6450   61.5350  -13.1630 C.3    99  LEU99       0.1728
    105  C         -4.1200   61.8690  -11.7860 C.2    99  LEU99       0.2616
    106  O         -4.6220   60.9520  -11.0440 O.2    99  LEU99      -0.2715
    107  CB        -4.7990   60.8860  -13.9180 C.3    99  LEU99       0.0311
    108  CG        -4.9030   60.6020  -15.4160 C.3    99  LEU99       0.0022
    109  CD1       -5.9360   61.4420  -16.0180 C.3    99  LEU99       0.0001
    110  CD2       -3.6020   60.7370  -16.1460 C.3    99  LEU99       0.0001
    111  N         -4.0120   63.1590  -11.4240 N.am  100  ASP100     -0.1971
    112  CA        -4.5310   63.5830  -10.0890 C.3   100  ASP100      0.1709
    113  C         -5.5300   64.7610   -9.9370 C.2   100  ASP100      0.2293
    114  O         -5.7860   65.2090   -8.8180 O.2   100  ASP100     -0.2864
    115  CB        -3.3890   63.7200   -9.1040 C.3   100  ASP100      0.1436
    116  CG        -2.6590   65.0230   -9.2430 C.2   100  ASP100      0.3671
    117  OD1       -3.0680   65.8670  -10.0730 O.co2 100  ASP100     -0.2456
    118  OD2       -1.6570   65.1940   -8.4950 O.co2 100  ASP100     -0.2456
    119  N         -8.7000   64.4910  -10.1410 N.3   102  GLY102     -0.1210
    120  CA        -9.9640   63.9480   -9.6800 C.3   102  GLY102      0.1956
    121  C        -10.7950   63.1520  -10.6750 C.2   102  GLY102      0.2611
    122  O        -10.6560   63.2730  -11.8730 O.2   102  GLY102     -0.2717
    123  N        -11.6700   62.3240  -10.1440 N.am  103  GLU103     -0.1979
    124  CA       -12.7380   61.6530  -10.8640 C.3   103  GLU103      0.1602
    125  C        -13.7070   62.6320  -11.5090 C.2   103  GLU103      0.2287
    126  O        -13.9810   63.6760  -10.9560 O.2   103  GLU103     -0.2864
    127  CB       -13.5090   60.7750   -9.8680 C.3   103  GLU103      0.0415
    128  CG       -12.6500   59.6280   -9.2510 C.3   103  GLU103      0.1163
    129  CD       -13.4080   58.8230   -8.1870 C.2   103  GLU103      0.3649
    130  OE1      -12.9750   58.8500   -6.9910 O.co2 103  GLU103     -0.2457
    131  OE2      -14.4550   58.1990   -8.5280 O.co2 103  GLU103     -0.2457
    132  N        -15.8270   56.1860  -12.2370 N.3   145  GLU145     -0.1231
    133  CA       -14.5740   56.1880  -11.5060 C.3   145  GLU145      0.1699
    134  C        -13.4040   55.8340  -12.3760 C.2   145  GLU145      0.2592
    135  O        -12.2370   55.8420  -11.9320 O.2   145  GLU145     -0.2718
    136  CB       -14.6360   55.1520  -10.4210 C.3   145  GLU145      0.0402
    137  CG       -15.9930   54.9680   -9.7830 C.3   145  GLU145      0.1161
    138  CD       -15.9900   53.6980   -8.9070 C.2   145  GLU145      0.3649
    139  OE1      -14.9400   52.9540   -9.0200 O.co2 145  GLU145     -0.2457
    140  OE2      -16.9960   53.4650   -8.1250 O.co2 145  GLU145     -0.2457
    141  N        -13.6800   55.4670  -13.6110 N.am  146  ASN146     -0.1974
    142  CA       -12.6130   55.1970  -14.5350 C.3   146  ASN146      0.1688
    143  C        -12.3940   56.2880  -15.5330 C.2   146  ASN146      0.2292
    144  O        -11.7780   56.0510  -16.5770 O.2   146  ASN146     -0.2864
    145  CB       -12.8930   53.9090  -15.2660 C.3   146  ASN146      0.1181
    146  CG       -12.7920   52.7430  -14.3860 C.2   146  ASN146      0.2629
    147  OD1      -13.2540   51.6650  -14.7380 O.2   146  ASN146     -0.2716
    148  ND2      -12.1700   52.9230  -13.2240 N.am  146  ASN146     -0.0877
    149  N        -10.8910   60.0170  -15.5050 N.3   148  LEU148     -0.1245
    150  CA       -10.1090   60.8420  -14.5780 C.3   148  LEU148      0.1561
    151  C         -9.4860   62.0310  -15.2380 C.2   148  LEU148      0.2260
    152  O         -9.0490   61.9500  -16.3660 O.2   148  LEU148     -0.2867
    153  CB        -8.9780   60.0520  -13.9440 C.3   148  LEU148      0.0270
    154  CG        -9.3200   58.6600  -13.3850 C.3   148  LEU148      0.0019
    155  CD1       -8.0310   57.9000  -13.2460 C.3   148  LEU148      0.0001
    156  CD2      -10.0350   58.6940  -12.0680 C.3   148  LEU148      0.0001
    157  N         -9.6060   54.9390  -17.9810 N.3   161  THR161     -0.1203
    158  CA        -8.6220   53.9710  -17.4740 C.3   161  THR161      0.1994
    159  C         -9.2020   52.5890  -17.1760 C.2   161  THR161      0.2618
    160  O        -10.4030   52.3530  -17.3520 O.2   161  THR161     -0.2717
    161  CB        -7.9330   54.4920  -16.2050 C.3   161  THR161      0.1784
    162  OG1       -6.9270   53.5620  -15.8210 O.3   161  THR161     -0.2211
    163  CG2       -8.9200   54.5610  -15.0610 C.3   161  THR161      0.0376
    164  N         -8.3440   51.7250  -16.6570 N.am  162  ASP162     -0.1959
    165  CA        -8.6830   50.4000  -16.1880 C.3   162  ASP162      0.1840
    166  C         -9.1170   49.3860  -17.2370 C.2   162  ASP162      0.2622
    167  O        -10.2780   49.2180  -17.5010 O.2   162  ASP162     -0.2715
    168  CB        -9.6920   50.4590  -15.0550 C.3   162  ASP162      0.1450
    169  CG        -9.9240   49.0800  -14.4210 C.2   162  ASP162      0.3671
    170  OD1       -9.2060   48.1170  -14.8570 O.co2 162  ASP162     -0.2456
    171  OD2      -10.8090   48.9840  -13.5180 O.co2 162  ASP162     -0.2456
    172  N         -8.1520   48.6570  -17.7690 N.am  163  PHE163     -0.1974
    173  CA        -8.3820   47.6340  -18.7860 C.3   163  PHE163      0.1639
    174  C         -8.5360   46.2390  -18.1920 C.2   163  PHE163      0.2290
    175  O         -8.4740   45.2460  -18.8960 O.2   163  PHE163     -0.2864
    176  CB        -7.2990   47.7020  -19.8670 C.3   163  PHE163      0.0560
    177  CG        -7.3870   48.9290  -20.6880 C.ar  163  PHE163     -0.0200
    178  CD1       -7.0070   50.1520  -20.1550 C.ar  163  PHE163     -0.0042
    179  CD2       -7.9380   48.8800  -21.9950 C.ar  163  PHE163     -0.0042
    180  CE1       -7.1340   51.3330  -20.9170 C.ar  163  PHE163     -0.0003
    181  CE2       -8.1020   50.0400  -22.7910 C.ar  163  PHE163     -0.0003
    182  CZ        -7.6840   51.2770  -22.2620 C.ar  163  PHE163     -0.0000
@<TRIPOS>BOND
     1    58    57    2
     2    57    56    1
     3   181   182   ar
     4   181   179   ar
     5    55    56    1
     6   182   180   ar
     7    56    59    1
     8   179   177   ar
     9   180   178   ar
    10    59    60    1
    11   177   178   ar
    12   177   176    1
    13    49    48    2
    14    62    60   ar
    15    62    64   ar
    16    65    66    1
    17    48    47    1
    18    68    67    2
    19    60    61   ar
    20    46    47    1
    21   176   173    1
    22    67    66    1
    23    47    50    1
    24    66    69    1
    25    64    63   ar
    26    96    94   ar
    27   175   174    2
    28   173   174    1
    29   173   172    1
    30    61    63   ar
    31    95    94   ar
    32    94    93    1
    33    50    51    1
    34   157   158    1
    35    69    70    1
    36    69    71    1
    37   172   166   am
    38    51    52    1
    39   167   166    2
    40    93    92    1
    41   158   159    1
    42   158   161    1
    43   160   159    2
    44   166   165    1
    45   159   164   am
    46    92    89    1
    47   164   165    1
    48   144   143    2
    49   152   151    2
    50    52    54   ar
    51    52    53   ar
    52   161   162    1
    53   161   163    1
    54   165   168    1
    55   110   108    1
    56    88    89    1
    57    88    82   am
    58   109   108    1
    59    78    76    1
    60    89    90    1
    61    79    77    1
    62    85    84    1
    63    85    86    1
    64   143   142    1
    65   149   150    1
    66   108   107    1
    67    81    82    1
    68    81    84    1
    69    81    80    1
    70    77    76    1
    71   145   142    1
    72   145   146    1
    73   151   150    1
    74    82    83    2
    75   168   169    1
    76   170   169   ar
    77    76    73    1
    78    86    87    1
    79   147   146    2
    80    90    91    2
    81    90    97   am
    82   150   153    1
    83   142   141    1
    84   169   171   ar
    85   146   148   am
    86    73    74    1
    87    73    72    1
    88   153   154    1
    89   107   104    1
    90    74    75    2
    91    97    98    1
    92   141   134   am
    93    45    44    1
    94   154   155    1
    95   154   156    1
    96   100    99    2
    97   104   103    1
    98   104   105    1
    99   103    99   am
   100    99    98    1
   101    24    22    1
   102    43    44    1
   103    43    42    1
   104    23    21    1
   105    98   101    1
   106   134   135    2
   107   134   133    1
   108   132   133    1
   109   122   121    2
   110    35    34    2
   111   105   111   am
   112   105   106    2
   113   125   126    2
   114   125   124    1
   115   133   136    1
   116    42    41    1
   117    21    22    1
   118    21    18    1
   119   111   112    1
   120    40    39    2
   121   101   102    1
   122    41    38    1
   123    32    33    1
   124    36    33    1
   125   124   123    1
   126   124   127    1
   127    34    33    1
   128   121   123   am
   129   121   120    1
   130    37    38    1
   131    39    38    1
   132   136   137    1
   133   119   120    1
   134    18    19    1
   135    18    17    1
   136   112   113    1
   137   112   115    1
   138   117   116   ar
   139    19    20    2
   140   113   114    2
   141    17    15   am
   142   127   128    1
   143   137   138    1
   144    31    29    1
   145   128   129    1
   146   116   115    1
   147   116   118   ar
   148    30    29    1
   149   139   138   ar
   150   138   140   ar
   151    15    14    1
   152    15    16    2
   153    14    13    1
   154   131   129   ar
   155    29    26    1
   156   129   130   ar
   157     7     6    1
   158    26    25    1
   159    26    27    1
   160     5     6    1
   161     5     2    1
   162    12    11    2
   163     6     8    1
   164    10    11    1
   165    10     9    1
   166    27    28    2
   167     9     3   am
   168     3     4    2
   169     3     2    1
   170     2     1    1
