@<TRIPOS>MOLECULE
tmp/3kceA01.pdb
 110 103 0 0 0
SMALL
GASTEIGER

@<TRIPOS>ATOM
      1  N         -1.6650   37.3120    8.1120 N.3    42  HIS42      -0.1241
      2  CA        -2.1110   37.8710    9.3720 C.3    42  HIS42       0.1621
      3  C         -2.8860   39.1430    9.1420 C.2    42  HIS42       0.2264
      4  O         -2.8640   39.7340    8.0450 O.2    42  HIS42      -0.2867
      5  CB        -0.9130   38.0270   10.3430 C.3    42  HIS42       0.0745
      6  CG        -0.0960   39.2490   10.1070 C.ar   42  HIS42       0.0817
      7  ND1        0.3490   40.0440   11.1350 N.ar   42  HIS42      -0.2268
      8  CD2        0.3200   39.8450    8.9570 C.ar   42  HIS42       0.1154
      9  CE1        1.0150   41.0720   10.6340 C.ar   42  HIS42       0.1986
     10  NE2        1.0080   40.9720    9.3130 N.ar   42  HIS42      -0.2212
     11  N         -3.0730   42.5870   11.4120 N.3    44  LEU44      -0.1245
     12  CA        -2.4770   43.2400   12.5750 C.3    44  LEU44       0.1561
     13  C         -3.3110   44.4620   12.9670 C.2    44  LEU44       0.2260
     14  O         -3.6590   45.2870   12.1150 O.2    44  LEU44      -0.2867
     15  CB        -1.0220   43.6460   12.2590 C.3    44  LEU44       0.0270
     16  CG        -0.3010   44.5230   13.3110 C.3    44  LEU44       0.0019
     17  CD1       -0.0490   43.7490   14.5940 C.3    44  LEU44       0.0001
     18  CD2        1.0240   45.0420   12.7540 C.3    44  LEU44       0.0001
     19  N         -2.7670   47.5170   15.5090 N.3    46  LYS46      -0.1245
     20  CA        -1.8010   48.2250   16.3600 C.3    46  LYS46       0.1561
     21  C         -2.5390   49.0560   17.4050 C.2    46  LYS46       0.2260
     22  O         -3.7460   49.3080   17.2740 O.2    46  LYS46      -0.2867
     23  CB        -0.8980   49.1210   15.4920 C.3    46  LYS46       0.0271
     24  CG         0.2070   48.3380   14.7800 C.3    46  LYS46       0.0035
     25  CD         1.2550   49.2750   14.0730 C.3    46  LYS46       0.0206
     26  CE         2.3330   48.4420   13.4260 C.3    46  LYS46       0.1093
     27  NZ         3.4730   49.2620   12.9350 N.3    46  LYS46      -0.1314
     28  N          5.9590   50.2430   17.1380 N.3    52  ARG52      -0.1245
     29  CA         5.9240   51.3070   16.1340 C.3    52  ARG52       0.1563
     30  C          4.4620   51.6960   15.8920 C.2    52  ARG52       0.2260
     31  O          3.7810   51.0650   15.0650 O.2    52  ARG52      -0.2867
     32  CB         6.6280   50.8720   14.8320 C.3    52  ARG52       0.0307
     33  CG         8.0240   50.1940   15.0360 C.3    52  ARG52       0.0489
     34  CD         8.6980   49.8210   13.7280 C.3    52  ARG52       0.2205
     35  NE        10.1340   49.5780   13.9140 N.pl3  52  ARG52      -0.0865
     36  CZ        10.6820   48.3860   14.1560 C.cat  52  ARG52       0.5346
     37  NH1        9.9230   47.2940   14.2450 N.pl3  52  ARG52       0.1354
     38  NH2       11.9980   48.2840   14.3130 N.pl3  52  ARG52       0.1354
     39  N         -2.8850   46.7160    9.9700 N.3    95  ASP95      -0.1225
     40  CA        -1.9380   47.8160   10.1890 C.3    95  ASP95       0.1805
     41  C         -0.5400   47.3980    9.7750 C.2    95  ASP95       0.2598
     42  O          0.4490   48.0470   10.1540 O.2    95  ASP95      -0.2718
     43  CB        -1.9370   48.2630   11.6700 C.3    95  ASP95       0.1424
     44  CG        -3.0590   49.2540   12.0030 C.2    95  ASP95       0.3668
     45  OD1       -3.3010   50.1950   11.2330 O.co2  95  ASP95      -0.2456
     46  OD2       -3.7270   49.1120   13.0500 O.co2  95  ASP95      -0.2456
     47  N         -0.4440   46.2970    9.0310 N.am   96  CYS96      -0.1956
     48  CA         0.8130   45.8430    8.4370 C.3    96  CYS96       0.1843
     49  C          0.7560   46.0950    6.9290 C.2    96  CYS96       0.2626
     50  O         -0.3150   46.0080    6.3380 O.2    96  CYS96      -0.2714
     51  CB         0.9850   44.3550    8.6720 C.3    96  CYS96       0.0997
     52  SG         2.5120   43.6000    8.0600 S.3    96  CYS96      -0.0797
     53  N          1.9090   46.3710    6.3110 N.am   97  SER97      -0.1950
     54  CA         1.9790   46.5760    4.8520 C.3    97  SER97       0.1924
     55  C          1.5670   45.3560    4.0440 C.2    97  SER97       0.2314
     56  O          1.1970   45.4820    2.8630 O.2    97  SER97      -0.2863
     57  CB         3.3900   46.9690    4.4460 C.3    97  SER97       0.2116
     58  OG         3.6140   48.2830    4.8990 O.3    97  SER97      -0.2180
     59  N          2.2920   36.7640    4.4320 N.3   105  LEU105     -0.1245
     60  CA         3.6690   37.0140    4.8190 C.3   105  LEU105      0.1561
     61  C          4.6430   36.1040    4.1020 C.2   105  LEU105      0.2260
     62  O          5.8530   36.2550    4.2570 O.2   105  LEU105     -0.2867
     63  CB         3.8460   36.8870    6.3510 C.3   105  LEU105      0.0270
     64  CG         3.0670   37.9050    7.2080 C.3   105  LEU105      0.0019
     65  CD1        3.1120   37.5160    8.6590 C.3   105  LEU105      0.0001
     66  CD2        3.5880   39.3070    7.0380 C.3   105  LEU105      0.0001
     67  N         10.5100   35.2150   13.1760 N.3   113  MET113     -0.1230
     68  CA         9.4690   36.1690   13.5950 C.3   113  MET113      0.1702
     69  C          9.4700   36.3710   15.1110 C.2   113  MET113      0.2592
     70  O         10.0390   35.5670   15.8430 O.2   113  MET113     -0.2718
     71  CB         8.0800   35.6510   13.1880 C.3   113  MET113      0.0401
     72  CG         7.9070   35.3170   11.7080 C.3   113  MET113      0.0596
     73  SD         7.8860   36.7870   10.6850 S.3   113  MET113     -0.1393
     74  CE         6.3120   36.5950    9.8620 C.3   113  MET113      0.0692
     75  N          8.8070   37.4210   15.5730 N.am  114  GLN114     -0.1979
     76  CA         8.5910   37.6310   17.0130 C.3   114  GLN114      0.1601
     77  C          8.0500   36.3390   17.6320 C.2   114  GLN114      0.2287
     78  O          7.2110   35.6570   17.0280 O.2   114  GLN114     -0.2864
     79  CB         7.6400   38.7890   17.2390 C.3   114  GLN114      0.0394
     80  CG         8.1690   40.1130   16.7020 C.3   114  GLN114      0.0908
     81  CD         7.5520   41.3120   17.3830 C.2   114  GLN114      0.2608
     82  OE1        7.5210   41.3950   18.6180 O.2   114  GLN114     -0.2717
     83  NE2        7.0670   42.2580   16.5910 N.am  114  GLN114     -0.0878
     84  N          4.2760   35.2030   17.8400 N.3   117  PHE117     -0.1241
     85  CA         3.8040   35.0100   16.4510 C.3   117  PHE117      0.1605
     86  C          4.2620   33.6700   15.9070 C.2   117  PHE117      0.2264
     87  O          3.4590   32.9080   15.3630 O.2   117  PHE117     -0.2867
     88  CB         4.2770   36.1540   15.5320 C.3   117  PHE117      0.0534
     89  CG         3.5570   36.2120   14.1710 C.ar  117  PHE117     -0.0203
     90  CD1        2.4020   36.9770   14.0090 C.ar  117  PHE117     -0.0042
     91  CD2        4.0320   35.5100   13.0750 C.ar  117  PHE117     -0.0042
     92  CE1        1.7270   37.0590   12.7530 C.ar  117  PHE117     -0.0003
     93  CE2        3.3290   35.5690   11.8130 C.ar  117  PHE117     -0.0003
     94  CZ         2.1870   36.3380   11.6830 C.ar  117  PHE117     -0.0000
     95  N          4.4110   44.2930   18.5150 N.3   137  SER137     -0.1217
     96  CA         3.8850   45.0750   17.3860 C.3   137  SER137      0.1889
     97  C          2.4180   45.4170   17.4810 C.2   137  SER137      0.2288
     98  O          1.9790   46.3860   16.8790 O.2   137  SER137     -0.2866
     99  CB         4.1180   44.3640   16.0620 C.3   137  SER137      0.2089
    100  OG         5.4900   44.2020   15.8670 O.3   137  SER137     -0.2183
    101  N         -2.5090   40.3110   16.6350 N.3   140  HIS140     -0.1241
    102  CA        -2.6170   39.6340   15.3190 C.3   140  HIS140      0.1621
    103  C         -3.7200   38.5560   15.3100 C.2   140  HIS140      0.2264
    104  O         -3.9800   37.9200   16.3450 O.2   140  HIS140     -0.2867
    105  CB        -1.3130   38.9010   14.9740 C.3   140  HIS140      0.0745
    106  CG        -0.0650   39.7190   15.1170 C.ar  140  HIS140      0.0817
    107  ND1        0.6910   40.1220   14.0320 N.ar  140  HIS140     -0.2268
    108  CD2        0.6150   40.1290   16.2190 C.ar  140  HIS140      0.1154
    109  CE1        1.7640   40.7710   14.4590 C.ar  140  HIS140      0.1986
    110  NE2        1.7370   40.8000   15.7810 N.ar  140  HIS140     -0.2212
@<TRIPOS>BOND
     1    56    55    2
     2    55    54    1
     3    61    62    2
     4    61    60    1
     5    59    60    1
     6    57    54    1
     7    57    58    1
     8    60    63    1
     9    54    53    1
    10    53    49   am
    11    50    49    2
    12    63    64    1
    13    49    48    1
    14    66    64    1
    15    64    65    1
    16     4     3    2
    17    52    51    1
    18     1     2    1
    19    48    51    1
    20    48    47    1
    21     8    10   ar
    22     8     6   ar
    23    47    41   am
    24     3     2    1
    25    10     9   ar
    26     2     5    1
    27    41    42    2
    28    41    40    1
    29    74    73    1
    30    39    40    1
    31     6     5    1
    32     6     7   ar
    33    40    43    1
    34     9     7   ar
    35    73    72    1
    36    45    44   ar
    37    11    12    1
    38    43    44    1
    39    94    93   ar
    40    94    92   ar
    41    72    71    1
    42    93    91   ar
    43    44    46   ar
    44    14    13    2
    45    15    12    1
    46    15    16    1
    47    12    13    1
    48    92    90   ar
    49    18    16    1
    50    27    26    1
    51    91    89   ar
    52    67    68    1
    53    71    68    1
    54    16    17    1
    55    26    25    1
    56    68    69    1
    57    34    35    1
    58    34    33    1
    59    35    36    2
    60    90    89   ar
    61   107   109   ar
    62   107   106   ar
    63    25    24    1
    64    36    37    1
    65    36    38    1
    66    89    88    1
    67   109   110   ar
    68    24    23    1
    69    32    33    1
    70    32    29    1
    71   105   106    1
    72   105   102    1
    73    31    30    2
    74    69    75   am
    75    69    70    2
    76   106   108   ar
    77   103   102    1
    78   103   104    2
    79   102   101    1
    80    87    86    2
    81    23    20    1
    82    19    20    1
    83    88    85    1
    84    75    76    1
    85   110   108   ar
    86   100    99    1
    87    30    29    1
    88    86    85    1
    89    99    96    1
    90    29    28    1
    91    20    21    1
    92    85    84    1
    93    83    81   am
    94    80    79    1
    95    80    81    1
    96    98    97    2
    97    76    79    1
    98    76    77    1
    99    78    77    2
   100    22    21    2
   101    81    82    2
   102    96    97    1
   103    96    95    1
