@<TRIPOS>MOLECULE
tmp/3kcfA00.pdb
 188 178 0 0 0
SMALL
GASTEIGER

@<TRIPOS>ATOM
      1  N         81.6460   21.4340   96.6990 N.3    41  ILE41      -0.1245
      2  CA        80.5370   20.5570   96.3340 C.3    41  ILE41       0.1561
      3  C         80.3220   20.4760   94.8340 C.2    41  ILE41       0.2260
      4  O         79.1850   20.4070   94.3650 O.2    41  ILE41      -0.2867
      5  CB        79.1880   21.0050   96.9730 C.3    41  ILE41       0.0252
      6  CG1       78.7670   22.3640   96.4090 C.3    41  ILE41       0.0019
      7  CG2       79.3020   21.0360   98.4960 C.3    41  ILE41       0.0019
      8  CD1       77.4560   22.8770   96.9510 C.3    41  ILE41       0.0001
      9  N         82.7030   23.3710   84.0920 N.3    45  ARG45      -0.1245
     10  CA        82.9890   24.4400   83.1390 C.3    45  ARG45       0.1563
     11  C         83.9580   25.4620   83.7220 C.2    45  ARG45       0.2260
     12  O         85.1770   25.3540   83.5600 O.2    45  ARG45      -0.2867
     13  CB        81.6830   25.1440   82.7440 C.3    45  ARG45       0.0307
     14  CG        80.5170   24.2050   82.4310 C.3    45  ARG45       0.0489
     15  CD        79.3180   24.9960   81.9320 C.3    45  ARG45       0.2205
     16  NE        79.7120   25.9320   80.8800 N.pl3  45  ARG45      -0.0865
     17  CZ        80.2940   25.5790   79.7340 C.cat  45  ARG45       0.5346
     18  NH1       80.5540   24.3000   79.4730 N.pl3  45  ARG45       0.1354
     19  NH2       80.6310   26.5080   78.8460 N.pl3  45  ARG45       0.1354
     20  N         82.3410   24.9790   92.8820 N.3    49  VAL49      -0.1245
     21  CA        81.2130   25.4460   93.6950 C.3    49  VAL49       0.1561
     22  C         81.2950   24.9160   95.1190 C.2    49  VAL49       0.2260
     23  O         81.4540   23.7220   95.3420 O.2    49  VAL49      -0.2867
     24  CB        79.8380   25.0190   93.1040 C.3    49  VAL49       0.0252
     25  CG1       78.7500   25.1180   94.1670 C.3    49  VAL49       0.0019
     26  CG2       79.4750   25.9140   91.9390 C.3    49  VAL49       0.0019
     27  N         74.9720   29.0430   98.5860 N.3    60  ALA60      -0.1245
     28  CA        75.9000   28.4410   97.6190 C.3    60  ALA60       0.1562
     29  C         76.8770   29.4750   97.0650 C.2    60  ALA60       0.2260
     30  O         76.4740   30.5520   96.6200 O.2    60  ALA60      -0.2867
     31  CB        75.1290   27.7800   96.4660 C.3    60  ALA60       0.0290
     32  N         79.9660   30.1960   94.3070 N.3    62  LYS62      -0.1245
     33  CA        80.6700   29.7240   93.1210 C.3    62  LYS62       0.1561
     34  C         81.9770   30.4910   92.9690 C.2    62  LYS62       0.2260
     35  O         81.9920   31.6270   92.4630 O.2    62  LYS62      -0.2867
     36  CB        79.8370   29.9070   91.8600 C.3    62  LYS62       0.0271
     37  CG        80.5220   29.2970   90.6590 C.3    62  LYS62       0.0035
     38  CD        79.5500   28.9230   89.5570 C.3    62  LYS62       0.0206
     39  CE        78.9750   30.1390   88.8860 C.3    62  LYS62       0.1093
     40  NZ        78.2230   29.7380   87.6710 N.3    62  LYS62      -0.1314
     41  N         77.5930   36.6010   84.2390 N.3    75  GLU75      -0.1245
     42  CA        76.4930   36.1850   85.2790 C.3    75  GLU75       0.1567
     43  C         76.1400   37.2540   86.1110 C.2    75  GLU75       0.2260
     44  O         74.9530   37.5330   86.2600 O.2    75  GLU75      -0.2867
     45  CB        76.9150   35.0030   86.1450 C.3    75  GLU75       0.0388
     46  CG        76.5680   33.6720   85.5480 C.3    75  GLU75       0.1160
     47  CD        76.0200   32.7070   86.5730 C.2    75  GLU75       0.3649
     48  OE1       76.8150   32.1840   87.3850 O.co2  75  GLU75      -0.2457
     49  OE2       74.7870   32.4780   86.5700 O.co2  75  GLU75      -0.2457
     50  N         72.3740   38.8670   85.9300 N.3    79  TYR79      -0.1241
     51  CA        71.4240   38.7910   87.0480 C.3    79  TYR79       0.1605
     52  C         71.0670   40.1780   87.5440 C.2    79  TYR79       0.2264
     53  O         70.0580   40.3630   88.2190 O.2    79  TYR79      -0.2867
     54  CB        71.9830   38.0160   88.2350 C.3    79  TYR79       0.0534
     55  CG        71.7640   36.5340   88.1800 C.ar   79  TYR79      -0.0201
     56  CD1       72.7920   35.6780   87.8250 C.ar   79  TYR79      -0.0009
     57  CD2       70.5440   35.9850   88.5240 C.ar   79  TYR79      -0.0009
     58  CE1       72.6150   34.3210   87.8210 C.ar   79  TYR79       0.0417
     59  CE2       70.3550   34.6230   88.5220 C.ar   79  TYR79       0.0417
     60  CZ        71.3960   33.7950   88.1700 C.ar   79  TYR79       0.1957
     61  OH        71.2220   32.4310   88.1740 O.3    79  TYR79      -0.2866
     62  N         67.5480   30.3060   89.4260 N.3    90  LEU90      -0.1245
     63  CA        68.3880   30.3800   90.6240 C.3    90  LEU90       0.1561
     64  C         68.5040   31.7990   91.1620 C.2    90  LEU90       0.2260
     65  O         68.8040   32.7260   90.4160 O.2    90  LEU90      -0.2867
     66  CB        69.7830   29.8220   90.3340 C.3    90  LEU90       0.0270
     67  CG        70.7020   29.8150   91.5600 C.3    90  LEU90       0.0019
     68  CD1       70.1320   28.8770   92.6160 C.3    90  LEU90       0.0001
     69  CD2       72.0950   29.3900   91.1540 C.3    90  LEU90       0.0001
     70  N         70.0030   34.9600   92.8100 N.3    92  PHE92      -0.1241
     71  CA        71.2620   35.6530   93.0270 C.3    92  PHE92       0.1605
     72  C         71.2450   36.3120   94.3890 C.2    92  PHE92       0.2264
     73  O         70.2510   36.9110   94.7720 O.2    92  PHE92      -0.2867
     74  CB        71.4290   36.7260   91.9480 C.3    92  PHE92       0.0534
     75  CG        72.6070   37.6470   92.1490 C.ar   92  PHE92      -0.0203
     76  CD1       73.7630   37.4950   91.3920 C.ar   92  PHE92      -0.0042
     77  CD2       72.5380   38.7040   93.0390 C.ar   92  PHE92      -0.0042
     78  CE1       74.8240   38.3810   91.5140 C.ar   92  PHE92      -0.0003
     79  CE2       73.6010   39.5960   93.1670 C.ar   92  PHE92      -0.0003
     80  CZ        74.7430   39.4340   92.4010 C.ar   92  PHE92      -0.0000
     81  N         80.4950   34.3900   93.4180 N.3   108  LEU108     -0.1231
     82  CA        79.0800   34.6210   93.1480 C.3   108  LEU108      0.1693
     83  C         78.3760   33.8110   94.2300 C.2   108  LEU108      0.2592
     84  O         78.7650   32.6920   94.5120 O.2   108  LEU108     -0.2718
     85  CB        78.6780   34.1400   91.7500 C.3   108  LEU108      0.0284
     86  CG        79.1170   35.0750   90.6070 C.3   108  LEU108      0.0019
     87  CD1       78.6560   34.5260   89.2690 C.3   108  LEU108      0.0001
     88  CD2       78.5520   36.4610   90.8240 C.3   108  LEU108      0.0001
     89  N         77.3720   34.3890   94.8700 N.am  109  VAL109     -0.1966
     90  CA        76.6440   33.6910   95.9200 C.3   109  VAL109      0.1727
     91  C         75.1740   33.5250   95.5300 C.2   109  VAL109      0.2617
     92  O         74.5410   34.4790   95.0830 O.2   109  VAL109     -0.2715
     93  CB        76.7160   34.4800   97.2330 C.3   109  VAL109      0.0290
     94  CG1       75.9740   33.7350   98.3500 C.3   109  VAL109      0.0023
     95  CG2       78.1700   34.7310   97.5830 C.3   109  VAL109      0.0023
     96  N         74.6310   32.3210   95.7020 N.am  110  SER110     -0.1936
     97  CA        73.2380   32.0640   95.3610 C.3   110  SER110      0.2055
     98  C         72.5480   31.2830   96.4750 C.2   110  SER110      0.2643
     99  O         73.1650   30.9730   97.4950 O.2   110  SER110     -0.2714
    100  CB        73.1580   31.2510   94.0710 C.3   110  SER110      0.2130
    101  OG        73.4550   29.8830   94.3110 O.3   110  SER110     -0.2179
    102  N         71.2680   30.9640   96.2800 N.am  111  ASP111     -0.1957
    103  CA        70.5340   30.1750   97.2600 C.3   111  ASP111      0.1840
    104  C         71.1070   28.7590   97.2780 C.2   111  ASP111      0.2622
    105  O         71.7470   28.3290   96.3220 O.2   111  ASP111     -0.2715
    106  CB        69.0590   30.0960   96.8930 C.3   111  ASP111      0.1450
    107  CG        68.4190   31.4530   96.7640 C.2   111  ASP111      0.3671
    108  OD1       68.7310   32.3430   97.5900 O.co2 111  ASP111     -0.2456
    109  OD2       67.5880   31.6200   95.8420 O.co2 111  ASP111     -0.2456
    110  N         70.8670   28.0340   98.3630 N.am  112  TYR112     -0.1960
    111  CA        71.3640   26.6660   98.4980 C.3   112  TYR112      0.1771
    112  C         70.2540   25.6420   98.2850 C.2   112  TYR112      0.2620
    113  O         69.1200   25.8500   98.7060 O.2   112  TYR112     -0.2715
    114  CB        71.9540   26.4560   99.8920 C.3   112  TYR112      0.0574
    115  CG        72.6820   25.1480  100.0480 C.ar  112  TYR112     -0.0198
    116  CD1       73.9100   24.9490   99.4390 C.ar  112  TYR112     -0.0009
    117  CD2       72.1540   24.1160  100.8140 C.ar  112  TYR112     -0.0009
    118  CE1       74.6020   23.7590   99.5900 C.ar  112  TYR112      0.0417
    119  CE2       72.8370   22.9220  100.9680 C.ar  112  TYR112      0.0417
    120  CZ        74.0650   22.7550  100.3540 C.ar  112  TYR112      0.1957
    121  OH        74.7860   21.5980  100.5170 O.3   112  TYR112     -0.2866
    122  N         70.5850   24.5260   97.6480 N.am  113  HIS113     -0.1959
    123  CA        69.6010   23.4820   97.4110 C.3   113  HIS113      0.1787
    124  C         70.1370   22.1040   97.7550 C.2   113  HIS113      0.2620
    125  O         70.9220   21.5280   97.0090 O.2   113  HIS113     -0.2715
    126  CB        69.1380   23.5230   95.9600 C.3   113  HIS113      0.0785
    127  CG        68.3730   24.7610   95.6150 C.ar  113  HIS113      0.0821
    128  ND1       67.1690   25.0780   96.2050 N.ar  113  HIS113     -0.2267
    129  CD2       68.6540   25.7760   94.7650 C.ar  113  HIS113      0.1154
    130  CE1       66.7420   26.2360   95.7340 C.ar  113  HIS113      0.1986
    131  NE2       67.6250   26.6820   94.8590 N.ar  113  HIS113     -0.2212
    132  N         69.7040   21.5820   98.8970 N.am  114  GLU114     -0.1977
    133  CA        70.1320   20.2650   99.3530 C.3   114  GLU114      0.1602
    134  C         70.0740   19.2150   98.2420 C.2   114  GLU114      0.2287
    135  O         70.9990   18.4190   98.0870 O.2   114  GLU114     -0.2864
    136  CB        69.2690   19.8160  100.5450 C.3   114  GLU114      0.0415
    137  CG        69.5450   18.3850  101.0390 C.3   114  GLU114      0.1163
    138  CD        68.5350   17.3490  100.5210 C.2   114  GLU114      0.3649
    139  OE1       68.8660   16.1360  100.5090 O.co2 114  GLU114     -0.2457
    140  OE2       67.4080   17.7450  100.1380 O.co2 114  GLU114     -0.2457
    141  N         70.5730   19.5040   95.2200 N.3   116  GLY116     -0.1210
    142  CA        71.5800   19.7160   94.1970 C.3   116  GLY116      0.1956
    143  C         71.0600   19.8560   92.7800 C.2   116  GLY116      0.2612
    144  O         69.9470   20.3390   92.5440 O.2   116  GLY116     -0.2717
    145  N         71.8800   19.4190   91.8310 N.am  117  SER117     -0.1952
    146  CA        71.5540   19.4950   90.4110 C.3   117  SER117      0.1924
    147  C         70.5470   18.4520   89.9440 C.2   117  SER117      0.2314
    148  O         70.4820   17.3550   90.4890 O.2   117  SER117     -0.2863
    149  CB        72.8250   19.3360   89.5830 C.3   117  SER117      0.2116
    150  OG        73.3650   18.0380   89.7480 O.3   117  SER117     -0.2180
    151  N         72.9740   19.5270   84.3990 N.3   167  LYS167     -0.1231
    152  CA        73.9000   19.9680   85.4300 C.3   167  LYS167      0.1693
    153  C         73.6920   21.4370   85.7980 C.2   167  LYS167      0.2592
    154  O         74.1620   21.8960   86.8410 O.2   167  LYS167     -0.2718
    155  CB        75.3430   19.7260   84.9800 C.3   167  LYS167      0.0285
    156  CG        75.7030   18.2530   84.9430 C.3   167  LYS167      0.0035
    157  CD        77.1400   18.0140   84.5120 C.3   167  LYS167      0.0206
    158  CE        77.4550   16.5200   84.4590 C.3   167  LYS167      0.1093
    159  NZ        78.7770   16.2790   83.8190 N.3   167  LYS167     -0.1314
    160  N         72.9810   22.1710   84.9460 N.am  168  ASN168     -0.1974
    161  CA        72.7250   23.5730   85.2120 C.3   168  ASN168      0.1688
    162  C         71.2920   23.8040   85.6460 C.2   168  ASN168      0.2292
    163  O         70.7270   24.8630   85.4090 O.2   168  ASN168     -0.2864
    164  CB        73.0340   24.4260   83.9840 C.3   168  ASN168      0.1181
    165  CG        74.4910   24.3750   83.5980 C.2   168  ASN168      0.2629
    166  OD1       75.3640   24.3190   84.4580 O.2   168  ASN168     -0.2716
    167  ND2       74.7650   24.4080   82.2970 N.am  168  ASN168     -0.0877
    168  N         68.6050   23.0190   89.1010 N.3   170  LEU170     -0.1245
    169  CA        68.5660   22.5640   90.4840 C.3   170  LEU170      0.1561
    170  C         67.1490   22.2690   90.8980 C.2   170  LEU170      0.2260
    171  O         66.2120   22.8710   90.3720 O.2   170  LEU170     -0.2867
    172  CB        69.1360   23.6420   91.3900 C.3   170  LEU170      0.0270
    173  CG        70.5620   24.0220   91.0070 C.3   170  LEU170      0.0019
    174  CD1       70.7260   25.4990   91.1770 C.3   170  LEU170      0.0001
    175  CD2       71.5650   23.2300   91.8340 C.3   170  LEU170      0.0001
    176  N         70.0800   27.6250   86.0740 N.3   180  ALA180     -0.1231
    177  CA        71.2420   28.1940   86.7280 C.3   180  ALA180      0.1694
    178  C         72.4080   28.3420   85.7630 C.2   180  ALA180      0.2592
    179  O         72.3990   27.7730   84.6710 O.2   180  ALA180     -0.2718
    180  CB        71.6430   27.3170   87.9050 C.3   180  ALA180      0.0304
    181  N         73.4020   29.1240   86.1750 N.am  181  ASP181     -0.1974
    182  CA        74.6030   29.3470   85.3820 C.3   181  ASP181      0.1709
    183  C         74.3600   30.1450   84.0990 C.2   181  ASP181      0.2293
    184  O         74.2910   29.5870   83.0050 O.2   181  ASP181     -0.2864
    185  CB        75.2550   27.9910   85.0700 C.3   181  ASP181      0.1436
    186  CG        76.4550   28.1110   84.1550 C.2   181  ASP181      0.3671
    187  OD1       77.0840   29.1910   84.1110 O.co2 181  ASP181     -0.2456
    188  OD2       76.7800   27.1120   83.4810 O.co2 181  ASP181     -0.2456
@<TRIPOS>BOND
     1    19    17    1
     2    18    17    1
     3    17    16    2
     4    16    15    1
     5    15    14    1
     6   167   165   am
     7    14    13    1
     8    13    10    1
     9   184   183    2
    10    10    11    1
    11    10     9    1
    12   188   186   ar
    13    12    11    2
    14   165   164    1
    15   165   166    2
    16   159   158    1
    17   164   161    1
    18   183   182    1
    19   187   186   ar
    20   186   185    1
    21    41    42    1
    22   151   152    1
    23   158   157    1
    24   157   156    1
    25   179   178    2
    26   156   155    1
    27   160   161    1
    28   160   153   am
    29   155   152    1
    30   185   182    1
    31   161   162    1
    32    42    43    1
    33    42    45    1
    34   182   181    1
    35   163   162    2
    36   152   153    1
    37    46    45    1
    38    46    47    1
    39   178   181   am
    40   178   177    1
    41   153   154    2
    42    50    51    1
    43   176   177    1
    44    43    44    2
    45    49    47   ar
    46    47    48   ar
    47   177   180    1
    48    51    52    1
    49    51    54    1
    50    52    53    2
    51    40    39    1
    52    58    56   ar
    53    58    60   ar
    54    56    55   ar
    55    60    61    1
    56    60    59   ar
    57    55    54    1
    58    55    57   ar
    59    59    57   ar
    60    39    38    1
    61   168   169    1
    62    87    86    1
    63    62    63    1
    64    38    37    1
    65   149   150    1
    66   149   146    1
    67   147   146    1
    68   147   148    2
    69    66    63    1
    70    66    67    1
    71   171   170    2
    72   146   145    1
    73    65    64    2
    74   169   170    1
    75   169   172    1
    76    86    88    1
    77    86    85    1
    78    63    64    1
    79    37    36    1
    80   173   174    1
    81   173   172    1
    82   173   175    1
    83    69    67    1
    84    76    78   ar
    85    76    75   ar
    86    78    80   ar
    87    67    68    1
    88    85    82    1
    89   145   143   am
    90    36    33    1
    91    26    24    1
    92    74    75    1
    93    74    71    1
    94    75    77   ar
    95    80    79   ar
    96    35    34    2
    97   144   143    2
    98   143   142    1
    99    70    71    1
   100    20    21    1
   101    34    33    1
   102    71    72    1
   103    77    79   ar
   104    24    21    1
   105    24    25    1
   106    33    32    1
   107    82    81    1
   108    82    83    1
   109    21    22    1
   110   100   101    1
   111   100    97    1
   112   142   141    1
   113    83    84    2
   114    83    89   am
   115     4     3    2
   116    72    73    2
   117   129   131   ar
   118   129   127   ar
   119     3     2    1
   120   131   130   ar
   121    89    90    1
   122    92    91    2
   123    22    23    2
   124    97    96    1
   125    97    98    1
   126    91    96   am
   127    91    90    1
   128   127   126    1
   129   127   128   ar
   130   130   128   ar
   131   109   107   ar
   132    90    93    1
   133   126   123    1
   134   102    98   am
   135   102   103    1
   136   105   104    2
   137     2     1    1
   138     2     5    1
   139     6     8    1
   140     6     5    1
   141    31    28    1
   142    98    99    2
   143    30    29    2
   144   107   106    1
   145   107   108   ar
   146   106   103    1
   147     5     7    1
   148   125   124    2
   149    29    28    1
   150    93    95    1
   151    93    94    1
   152   103   104    1
   153   104   110   am
   154   123   122    1
   155   123   124    1
   156    28    27    1
   157   122   112   am
   158   124   132   am
   159   135   134    2
   160   134   133    1
   161   112   111    1
   162   112   113    2
   163   110   111    1
   164   111   114    1
   165   132   133    1
   166   133   136    1
   167   116   118   ar
   168   116   115   ar
   169   118   120   ar
   170   114   115    1
   171   115   117   ar
   172   140   138   ar
   173   120   121    1
   174   120   119   ar
   175   139   138   ar
   176   138   137    1
   177   136   137    1
   178   117   119   ar
