@<TRIPOS>MOLECULE
tmp/3kckA00.pdb
 154 143 0 0 0
SMALL
GASTEIGER

@<TRIPOS>ATOM
      1  N         13.8150   10.3520   10.7980 N.3    14  LEU14      -0.1231
      2  CA        14.6930   10.3940    9.6360 C.3    14  LEU14       0.1693
      3  C         15.5090   11.6650    9.5140 C.2    14  LEU14       0.2592
      4  O         16.6200   11.6170    8.9920 O.2    14  LEU14      -0.2718
      5  CB        13.9250   10.1410    8.3240 C.3    14  LEU14       0.0284
      6  CG        13.3600    8.7400    8.0420 C.3    14  LEU14       0.0019
      7  CD1       12.3150    8.8040    6.9400 C.3    14  LEU14       0.0001
      8  CD2       14.4350    7.6890    7.6850 C.3    14  LEU14       0.0001
      9  N         14.9440   12.7750    9.9680 N.am   15  GLY15      -0.1957
     10  CA        15.4790   14.1150    9.7590 C.3    15  GLY15       0.1869
     11  C         14.6070   15.1590   10.4390 C.2    15  GLY15       0.2309
     12  O         13.3930   14.9760   10.5530 O.2    15  GLY15      -0.2863
     13  N         10.7870   14.6260    9.6460 N.3    20  VAL20      -0.1245
     14  CA        10.4700   13.5240    8.7800 C.3    20  VAL20       0.1561
     15  C         10.6800   12.1970    9.5240 C.2    20  VAL20       0.2260
     16  O         11.7150   11.9890   10.1720 O.2    20  VAL20      -0.2867
     17  CB        11.3250   13.5250    7.4980 C.3    20  VAL20       0.0252
     18  CG1       10.6660   12.6550    6.5180 C.3    20  VAL20       0.0019
     19  CG2       11.4470   14.9090    6.9000 C.3    20  VAL20       0.0019
     20  N          7.4110    7.6170    4.0940 N.3    37  ALA37      -0.1245
     21  CA         8.0300    8.6990    4.8140 C.3    37  ALA37       0.1562
     22  C          6.9510    9.7970    5.1310 C.2    37  ALA37       0.2260
     23  O          6.0650   10.0660    4.3230 O.2    37  ALA37      -0.2867
     24  CB         9.1580    9.2300    4.0280 C.3    37  ALA37       0.0290
     25  N          6.0280   13.7130    6.8250 N.3    39  LYS39      -0.1245
     26  CA         6.5080   14.9870    7.3550 C.3    39  LYS39       0.1561
     27  C          5.3950   15.7240    8.0750 C.2    39  LYS39       0.2260
     28  O          4.2420   15.7970    7.5950 O.2    39  LYS39      -0.2867
     29  CB         7.0730   15.8760    6.2340 C.3    39  LYS39       0.0271
     30  CG         7.4610   17.2610    6.6900 C.3    39  LYS39       0.0035
     31  CD         7.8870   18.1900    5.5060 C.3    39  LYS39       0.0206
     32  CE         8.4300   19.5360    6.0260 C.3    39  LYS39       0.1093
     33  NZ         9.2870   20.2690    5.0390 N.3    39  LYS39      -0.1314
     34  N          4.3020   23.7060   -0.0510 N.3    55  GLU55      -0.1245
     35  CA         5.1790   22.5880   -0.3730 C.3    55  GLU55       0.1567
     36  C          4.3060   21.3880   -0.7980 C.2    55  GLU55       0.2260
     37  O          4.5940   20.7200   -1.7860 O.2    55  GLU55      -0.2867
     38  CB         5.9930   22.1870    0.8520 C.3    55  GLU55       0.0388
     39  CG         6.8820   20.9640    0.5180 C.3    55  GLU55       0.1160
     40  CD         7.7580   20.5450    1.6730 C.2    55  GLU55       0.3649
     41  OE1        7.7370   21.2120    2.7430 O.co2  55  GLU55      -0.2457
     42  OE2        8.4480   19.5180    1.5210 O.co2  55  GLU55      -0.2457
     43  N          4.6440   19.6030   -4.6150 N.3    59  LEU59      -0.1245
     44  CA         5.0670   18.1950   -4.7070 C.3    59  LEU59       0.1561
     45  C          3.9860   17.3820   -5.3630 C.2    59  LEU59       0.2260
     46  O          4.2860   16.5260   -6.2120 O.2    59  LEU59      -0.2867
     47  CB         5.4110   17.6280   -3.3250 C.3    59  LEU59       0.0270
     48  CG         6.2290   16.3370   -3.3540 C.3    59  LEU59       0.0019
     49  CD1        7.5560   16.4590   -4.0680 C.3    59  LEU59       0.0001
     50  CD2        6.4690   15.7500   -1.9620 C.3    59  LEU59       0.0001
     51  N         10.8980   13.0920   -5.9810 N.3    68  VAL68      -0.1245
     52  CA        10.3480   12.2260   -4.9570 C.3    68  VAL68       0.1561
     53  C          8.7900   12.2430   -5.0860 C.2    68  VAL68       0.2260
     54  O          8.1870   13.3140   -5.3330 O.2    68  VAL68      -0.2867
     55  CB        10.8790   12.5870   -3.5060 C.3    68  VAL68       0.0252
     56  CG1       10.1350   13.7530   -2.9380 C.3    68  VAL68       0.0019
     57  CG2       10.5970   11.4330   -2.5380 C.3    68  VAL68       0.0019
     58  N          2.2900   15.2500    5.6550 N.3    84  LEU84      -0.1245
     59  CA         2.6150   14.9120    4.2870 C.3    84  LEU84       0.1561
     60  C          3.1170   13.4560    4.1340 C.2    84  LEU84       0.2260
     61  O          4.1310   13.0900    4.6880 O.2    84  LEU84      -0.2867
     62  CB         3.5850   15.9610    3.6650 C.3    84  LEU84       0.0270
     63  CG         4.3130   15.5940    2.3720 C.3    84  LEU84       0.0019
     64  CD1        3.3360   15.3610    1.1360 C.3    84  LEU84       0.0001
     65  CD2        5.3300   16.6460    2.1020 C.3    84  LEU84       0.0001
     66  N          4.7910   10.4500    1.7650 N.3    86  MET86      -0.1230
     67  CA         5.5790   10.2540    0.5160 C.3    86  MET86       0.1702
     68  C          6.1000    8.8720    0.4770 C.2    86  MET86       0.2592
     69  O          6.0420    8.1830    1.4700 O.2    86  MET86      -0.2718
     70  CB         6.8060   11.1860    0.5000 C.3    86  MET86       0.0401
     71  CG         6.4040   12.6500    0.4520 C.3    86  MET86       0.0596
     72  SD         7.5830   13.7710    1.2330 S.3    86  MET86      -0.1393
     73  CE         7.6700   13.1610    2.9400 C.3    86  MET86       0.0692
     74  N          6.6270    8.4820   -0.6610 N.am   87  GLU87      -0.1966
     75  CA         7.3950    7.2930   -0.8280 C.3    87  GLU87       0.1733
     76  C          8.6440    7.3540    0.0340 C.2    87  GLU87       0.2616
     77  O          9.2930    8.4270    0.2270 O.2    87  GLU87      -0.2715
     78  CB         7.7320    7.0440   -2.3080 C.3    87  GLU87       0.0429
     79  CG         8.7130    8.0600   -2.9350 C.3    87  GLU87       0.1163
     80  CD         9.1700    7.6880   -4.3450 C.2    87  GLU87       0.3649
     81  OE1        8.9970    6.5050   -4.7870 O.co2  87  GLU87      -0.2457
     82  OE2        9.6720    8.5870   -5.0410 O.co2  87  GLU87      -0.2457
     83  N          8.9370    6.2050    0.6030 N.am   88  TYR88      -0.1960
     84  CA        10.1750    6.0460    1.3400 C.3    88  TYR88       0.1771
     85  C         11.2700    5.5540    0.3620 C.2    88  TYR88       0.2616
     86  O         11.1400    4.4870   -0.1550 O.2    88  TYR88      -0.2715
     87  CB         9.9840    5.0590    2.5120 C.3    88  TYR88       0.0574
     88  CG        11.2810    4.7300    3.2520 C.ar   88  TYR88      -0.0198
     89  CD1       11.9600    5.7070    3.9810 C.ar   88  TYR88      -0.0009
     90  CD2       11.8080    3.4400    3.2270 C.ar   88  TYR88      -0.0009
     91  CE1       13.1500    5.4310    4.6000 C.ar   88  TYR88       0.0417
     92  CE2       12.9820    3.1470    3.8780 C.ar   88  TYR88       0.0417
     93  CZ        13.6520    4.1710    4.5380 C.ar   88  TYR88       0.1957
     94  OH        14.8230    3.8990    5.1790 O.3    88  TYR88      -0.2866
     95  N         12.3540    6.3120    0.2160 N.am   89  LEU89      -0.2030
     96  CA        13.5010    5.9860   -0.6820 C.3    89  LEU89       0.1282
     97  C         14.6220    5.3770    0.1950 C.3    89  LEU89       0.2036
     98  O         15.1460    6.0350    1.1720 O.3    89  LEU89      -0.2185
     99  CB        13.9520    7.2460   -1.4760 C.3    89  LEU89       0.0244
    100  CG        12.8080    7.8310   -2.3310 C.3    89  LEU89       0.0018
    101  CD1       13.1890    8.9660   -3.1660 C.3    89  LEU89       0.0001
    102  CD2       12.2280    6.7410   -3.2250 C.3    89  LEU89       0.0001
    103  N         18.4670    6.3660    1.2620 N.3    92  GLY92      -0.1210
    104  CA        18.6090    7.6290    1.9330 C.3    92  GLY92       0.1956
    105  C         19.1790    8.7270    1.0460 C.2    92  GLY92       0.2612
    106  O         18.9720    8.7510   -0.1950 O.2    92  GLY92      -0.2717
    107  N         19.8760    9.6490    1.7030 N.am   93  SER93      -0.1952
    108  CA        20.4030   10.8450    1.0620 C.3    93  SER93       0.1924
    109  C         21.6290   10.5400    0.2270 C.2    93  SER93       0.2314
    110  O         22.4810    9.7340    0.6070 O.2    93  SER93      -0.2863
    111  CB        20.7310   11.8870    2.1260 C.3    93  SER93       0.2116
    112  OG        21.6460   12.9390    2.3620 O.3    93  SER93      -0.2180
    113  N         22.7330   16.6950    0.1670 N.3   137  ARG137     -0.1245
    114  CA        21.9620   16.1500    1.2950 C.3   137  ARG137      0.1563
    115  C         20.4490   16.2040    0.9950 C.2   137  ARG137      0.2260
    116  O         19.6930   15.5370    1.6490 O.2   137  ARG137     -0.2867
    117  CB        22.2980   16.8450    2.6020 C.3   137  ARG137      0.0307
    118  CG        22.0860   18.3020    2.5510 C.3   137  ARG137      0.0489
    119  CD        22.1410   18.9540    3.9540 C.3   137  ARG137      0.2205
    120  NE        21.6840   20.3140    3.7080 N.pl3 137  ARG137     -0.0865
    121  CZ        21.5720   21.3270    4.5710 C.cat 137  ARG137      0.5346
    122  NH1       21.9050   21.2000    5.8680 N.pl3 137  ARG137      0.1354
    123  NH2       21.1150   22.5020    4.0920 N.pl3 137  ARG137      0.1354
    124  N         17.8460   12.1720   -2.8700 N.3   140  LEU140     -0.1245
    125  CA        17.6050   10.8940   -2.2370 C.3   140  LEU140      0.1561
    126  C         17.8840    9.8210   -3.2230 C.2   140  LEU140      0.2260
    127  O         17.6610   10.0020   -4.4100 O.2   140  LEU140     -0.2867
    128  CB        16.1640   10.7600   -1.7600 C.3   140  LEU140      0.0270
    129  CG        15.8480   11.8240   -0.7030 C.3   140  LEU140      0.0019
    130  CD1       14.3830   12.2820   -0.7720 C.3   140  LEU140      0.0001
    131  CD2       16.2030   11.2600    0.6930 C.3   140  LEU140      0.0001
    132  N         14.6050   15.9650   -3.7580 N.3   150  GLY150     -0.1210
    133  CA        13.7280   16.1110   -2.6100 C.3   150  GLY150      0.1956
    134  C         13.6870   17.5400   -2.1080 C.2   150  GLY150      0.2612
    135  O         13.8730   18.4800   -2.8730 O.2   150  GLY150     -0.2717
    136  N         13.4570   17.6700   -0.8050 N.am  151  ASP151     -0.1959
    137  CA        13.2780   18.9080   -0.0260 C.3   151  ASP151      0.1840
    138  C         12.6980   20.1470   -0.6940 C.2   151  ASP151      0.2622
    139  O         13.4460   21.0690   -1.0310 O.2   151  ASP151     -0.2715
    140  CB        14.6160   19.2590    0.6430 C.3   151  ASP151      0.1450
    141  CG        14.4700   20.3290    1.7280 C.2   151  ASP151      0.3671
    142  OD1       13.4400   20.2770    2.4650 O.co2 151  ASP151     -0.2456
    143  OD2       15.3630   21.2260    1.8010 O.co2 151  ASP151     -0.2456
    144  N         11.3780   20.1760   -0.8730 N.am  152  PHE152     -0.1974
    145  CA        10.7160   21.2620   -1.6000 C.3   152  PHE152      0.1639
    146  C         10.1780   22.3590   -0.6810 C.2   152  PHE152      0.2290
    147  O          9.5360   23.3290   -1.1550 O.2   152  PHE152     -0.2864
    148  CB         9.5870   20.7080   -2.5250 C.3   152  PHE152      0.0560
    149  CG        10.1140   19.8840   -3.7020 C.ar  152  PHE152     -0.0200
    150  CD1       10.4230   20.4800   -4.9040 C.ar  152  PHE152     -0.0042
    151  CD2       10.3620   18.5290   -3.5650 C.ar  152  PHE152     -0.0042
    152  CE1       10.9870   19.7110   -5.9830 C.ar  152  PHE152     -0.0003
    153  CE2       10.9060   17.7610   -4.6290 C.ar  152  PHE152     -0.0003
    154  CZ        11.2080   18.3620   -5.8300 C.ar  152  PHE152     -0.0000
@<TRIPOS>BOND
     1    46    45    2
     2   152   154   ar
     3   152   150   ar
     4    51    52    1
     5   154   153   ar
     6    45    44    1
     7    54    53    2
     8    53    52    1
     9    82    80   ar
    10    52    55    1
    11   150   149   ar
    12    81    80   ar
    13    44    43    1
    14    44    47    1
    15   153   151   ar
    16   127   126    2
    17    80    79    1
    18    49    48    1
    19   132   133    1
    20   149   151   ar
    21   149   148    1
    22    55    56    1
    23    55    57    1
    24    48    47    1
    25    48    50    1
    26   102   100    1
    27   126   125    1
    28   101   100    1
    29    79    78    1
    30   135   134    2
    31   124   125    1
    32   133   134    1
    33   148   145    1
    34   100    99    1
    35    78    75    1
    36   125   128    1
    37   134   136   am
    38    37    36    2
    39   128   129    1
    40   145   144    1
    41   145   146    1
    42    99    96    1
    43   147   146    2
    44   139   138    2
    45   144   138   am
    46    75    74    1
    47    75    76    1
    48   136   137    1
    49    36    35    1
    50   130   129    1
    51   129   131    1
    52   138   137    1
    53    96    97    1
    54    96    95    1
    55    74    68   am
    56    35    34    1
    57    35    38    1
    58   106   105    2
    59    86    85    2
    60   137   140    1
    61    76    77    2
    62    76    83   am
    63   113   114    1
    64    97    98    1
    65    95    85   am
    66   109   110    2
    67   109   108    1
    68    85    84    1
    69    71    70    1
    70    71    72    1
    71    68    67    1
    72    68    69    2
    73    70    67    1
    74    67    66    1
    75    39    38    1
    76    39    40    1
    77    83    84    1
    78   140   141    1
    79   115   114    1
    80   115   116    2
    81   105   107   am
    82   105   104    1
    83   108   107    1
    84   108   111    1
    85    64    63    1
    86    72    73    1
    87   103   104    1
    88   114   117    1
    89    84    87    1
    90    42    40   ar
    91    40    41   ar
    92   141   143   ar
    93   141   142   ar
    94    65    63    1
    95   111   112    1
    96    63    62    1
    97    87    88    1
    98   118   117    1
    99   118   119    1
   100    90    88   ar
   101    90    92   ar
   102    88    89   ar
   103    62    59    1
   104   120   119    1
   105   120   121    2
   106    92    93   ar
   107    89    91   ar
   108    24    21    1
   109   123   121    1
   110    20    21    1
   111    60    59    1
   112    60    61    2
   113    59    58    1
   114    23    22    2
   115    93    91   ar
   116    93    94    1
   117   121   122    1
   118    21    22    1
   119    33    32    1
   120    31    32    1
   121    31    30    1
   122    29    30    1
   123    29    26    1
   124    18    17    1
   125    25    26    1
   126    19    17    1
   127     7     6    1
   128    26    27    1
   129    17    14    1
   130    28    27    2
   131     8     6    1
   132     6     5    1
   133     5     2    1
   134    14    15    1
   135    14    13    1
   136     4     3    2
   137     3     2    1
   138     3     9   am
   139    15    16    2
   140     2     1    1
   141    10     9    1
   142    10    11    1
   143    11    12    2
