@<TRIPOS>MOLECULE
tmp/3kcuA00.pdb
 94 92 0 0 0
SMALL
GASTEIGER

@<TRIPOS>ATOM
      1  N         49.2370   22.6130  143.0450 N.3    62  PHE62      -0.1241
      2  CA        49.3120   24.0750  143.0360 C.3    62  PHE62       0.1605
      3  C         49.4710   24.7390  144.4130 C.2    62  PHE62       0.2264
      4  O         48.5180   24.7870  145.2090 O.2    62  PHE62      -0.2867
      5  CB        48.0710   24.6300  142.3130 C.3    62  PHE62       0.0534
      6  CG        48.0220   26.1300  142.2220 C.ar   62  PHE62      -0.0203
      7  CD1       48.9840   26.8300  141.4960 C.ar   62  PHE62      -0.0042
      8  CD2       46.9960   26.8410  142.8400 C.ar   62  PHE62      -0.0042
      9  CE1       48.9330   28.2170  141.3990 C.ar   62  PHE62      -0.0003
     10  CE2       46.9310   28.2370  142.7470 C.ar   62  PHE62      -0.0003
     11  CZ        47.9010   28.9240  142.0260 C.ar   62  PHE62      -0.0000
     12  N         59.0630   35.8760  142.9860 N.3    80  GLY80      -0.1225
     13  CA        59.2340   35.4320  141.6090 C.3    80  GLY80       0.1811
     14  C         59.7010   33.9850  141.5640 C.2    80  GLY80       0.2280
     15  O         59.1800   33.1820  140.8020 O.2    80  GLY80      -0.2866
     16  N         56.8730   31.6090  142.7720 N.3    83  ALA83      -0.1231
     17  CA        55.7450   31.4950  141.8340 C.3    83  ALA83       0.1694
     18  C         56.1750   31.0300  140.4280 C.2    83  ALA83       0.2592
     19  O         55.3640   30.9200  139.5130 O.2    83  ALA83      -0.2718
     20  CB        54.9980   32.8090  141.7630 C.3    83  ALA83       0.0304
     21  N         57.4570   30.7170  140.3000 N.am   84  LYS84      -0.1966
     22  CA        58.0870   30.3670  139.0330 C.3    84  LYS84       0.1728
     23  C         57.3580   29.2870  138.2400 C.2    84  LYS84       0.2616
     24  O         57.2700   29.3480  137.0170 O.2    84  LYS84      -0.2715
     25  CB        59.5530   29.9590  139.2860 C.3    84  LYS84       0.0311
     26  CG        60.2070   29.1630  138.1600 C.3    84  LYS84       0.0038
     27  CD        61.6760   29.5250  138.0140 C.3    84  LYS84       0.0206
     28  CE        62.4130   29.5470  139.3630 C.3    84  LYS84       0.1093
     29  NZ        63.7940   30.0920  139.2130 N.3    84  LYS84      -0.1314
     30  N         56.8500   28.2840  138.9300 N.am   85  ASN85      -0.1958
     31  CA        56.2190   27.1680  138.2430 C.3    85  ASN85       0.1819
     32  C         54.6900   27.1360  138.3920 C.2    85  ASN85       0.2621
     33  O         54.0390   26.1890  137.9610 O.2    85  ASN85      -0.2715
     34  CB        56.8420   25.8520  138.7120 C.3    85  ASN85       0.1195
     35  CG        58.2080   25.6000  138.0850 C.2    85  ASN85       0.2630
     36  OD1       59.0900   25.0260  138.7110 O.2    85  ASN85      -0.2716
     37  ND2       58.3790   26.0280  136.8440 N.am   85  ASN85      -0.0877
     38  N         54.1270   28.1820  138.9860 N.am   86  TRP86      -0.1960
     39  CA        52.7050   28.1830  139.3290 C.3    86  TRP86       0.1771
     40  C         51.7990   28.0290  138.1080 C.2    86  TRP86       0.2620
     41  O         50.8770   27.2100  138.1210 O.2    86  TRP86      -0.2715
     42  CB        52.3450   29.4330  140.1230 C.3    86  TRP86       0.0590
     43  CG        52.7690   29.3570  141.5630 C.ar   86  TRP86       0.0006
     44  CD1       53.4770   28.3560  142.1630 C.ar   86  TRP86       0.0946
     45  CD2       52.4990   30.3220  142.5800 C.ar   86  TRP86       0.0152
     46  NE1       53.6750   28.6450  143.4950 N.ar   86  TRP86      -0.2442
     47  CE2       53.0810   29.8480  143.7730 C.ar   86  TRP86       0.0810
     48  CE3       51.8300   31.5500  142.5960 C.ar   86  TRP86       0.0012
     49  CZ2       53.0060   30.5550  144.9720 C.ar   86  TRP86       0.0191
     50  CZ3       51.7600   32.2510  143.7870 C.ar   86  TRP86       0.0001
     51  CH2       52.3350   31.7480  144.9580 C.ar   86  TRP86       0.0015
     52  N         52.0730   28.7920  137.0520 N.am   87  LEU87      -0.1963
     53  CA        51.2390   28.7390  135.8510 C.3    87  LEU87       0.1728
     54  C         51.2000   27.3290  135.2620 C.2    87  LEU87       0.2616
     55  O         50.1310   26.7800  134.9790 O.2    87  LEU87      -0.2715
     56  CB        51.7240   29.7340  134.7890 C.3    87  LEU87       0.0311
     57  CG        50.9380   29.6630  133.4660 C.3    87  LEU87       0.0022
     58  CD1       49.4470   29.8870  133.7130 C.3    87  LEU87       0.0001
     59  CD2       51.4730   30.6440  132.4190 C.3    87  LEU87       0.0001
     60  N         52.3890   26.7760  135.0730 N.am   88  ASN88      -0.1972
     61  CA        52.6130   25.4230  134.5890 C.3    88  ASN88       0.1688
     62  C         51.9250   24.3450  135.4290 C.2    88  ASN88       0.2292
     63  O         51.2730   23.4560  134.8820 O.2    88  ASN88      -0.2864
     64  CB        54.1340   25.1630  134.5480 C.3    88  ASN88       0.1181
     65  CG        54.4940   23.8200  133.9250 C.2    88  ASN88       0.2629
     66  OD1       53.6370   23.1160  133.3960 O.2    88  ASN88      -0.2716
     67  ND2       55.7780   23.4730  133.9660 N.am   88  ASN88      -0.0877
     68  N         49.4340   24.8220  137.6750 N.3    90  TYR90      -0.1241
     69  CA        48.0080   25.1030  137.6960 C.3    90  TYR90       0.1605
     70  C         47.3500   24.4810  136.4600 C.2    90  TYR90       0.2264
     71  O         46.2960   23.8530  136.5580 O.2    90  TYR90      -0.2867
     72  CB        47.8180   26.6120  137.6930 C.3    90  TYR90       0.0534
     73  CG        46.4150   27.1210  137.9210 C.ar   90  TYR90      -0.0201
     74  CD1       45.9210   27.3050  139.2210 C.ar   90  TYR90      -0.0009
     75  CD2       45.6050   27.4990  136.8410 C.ar   90  TYR90      -0.0009
     76  CE1       44.6490   27.8190  139.4460 C.ar   90  TYR90       0.0417
     77  CE2       44.3310   28.0080  137.0480 C.ar   90  TYR90       0.0417
     78  CZ        43.8560   28.1660  138.3540 C.ar   90  TYR90       0.1957
     79  OH        42.5890   28.6740  138.5670 O.3    90  TYR90      -0.2866
     80  N         40.7930   30.9590  143.3190 N.3   231  THR231     -0.1218
     81  CA        42.2120   30.8670  142.9940 C.3   231  THR231      0.1862
     82  C         42.9280   32.0360  143.6730 C.2   231  THR231      0.2287
     83  O         43.9650   31.8620  144.3100 O.2   231  THR231     -0.2866
     84  CB        42.4480   30.8200  141.4730 C.3   231  THR231      0.1770
     85  OG1       41.7470   29.6860  140.9230 O.3   231  THR231     -0.2211
     86  CG2       43.9650   30.7150  141.1440 C.3   231  THR231      0.0375
     87  N         45.8250   31.6870  146.6930 N.3   235  ILE235     -0.1245
     88  CA        47.1290   32.3410  146.6130 C.3   235  ILE235      0.1561
     89  C         47.3660   33.2490  147.8240 C.2   235  ILE235      0.2260
     90  O         48.4660   33.2910  148.3790 O.2   235  ILE235     -0.2867
     91  CB        47.2550   33.1800  145.3410 C.3   235  ILE235      0.0252
     92  CG1       47.2250   32.2840  144.0930 C.3   235  ILE235      0.0019
     93  CG2       48.5350   34.0410  145.3850 C.3   235  ILE235      0.0019
     94  CD1       47.1400   33.0890  142.7680 C.3   235  ILE235      0.0001
@<TRIPOS>BOND
     1    59    57    1
     2    66    65    2
     3    57    58    1
     4    57    56    1
     5    65    67   am
     6    65    64    1
     7    64    61    1
     8    61    60    1
     9    61    62    1
    10    56    53    1
    11    63    62    2
    12    55    54    2
    13    60    54   am
    14    54    53    1
    15    53    52    1
    16    70    71    2
    17    70    69    1
    18    75    77   ar
    19    75    73   ar
    20    37    35   am
    21    24    23    2
    22    77    78   ar
    23    52    40   am
    24    68    69    1
    25    72    69    1
    26    72    73    1
    27    73    74   ar
    28    33    32    2
    29    27    26    1
    30    27    28    1
    31    35    36    2
    32    35    34    1
    33    40    41    2
    34    40    39    1
    35    26    25    1
    36    23    30   am
    37    23    22    1
    38    31    32    1
    39    31    34    1
    40    31    30    1
    41    78    79    1
    42    78    76   ar
    43    32    38   am
    44    38    39    1
    45    22    25    1
    46    22    21    1
    47    29    28    1
    48    74    76   ar
    49    39    42    1
    50    19    18    2
    51    42    43    1
    52    21    18   am
    53    18    17    1
    54    15    14    2
    55    85    84    1
    56    86    84    1
    57     9     7   ar
    58     9    11   ar
    59    84    81    1
    60     7     6   ar
    61    43    44   ar
    62    43    45   ar
    63    14    13    1
    64    13    12    1
    65    20    17    1
    66    17    16    1
    67    11    10   ar
    68    44    46   ar
    69     6     5    1
    70     6     8   ar
    71     5     2    1
    72    45    48   ar
    73    45    47   ar
    74    48    50   ar
    75    10     8   ar
    76    94    92    1
    77    81    80    1
    78    81    82    1
    79     2     1    1
    80     2     3    1
    81    46    47   ar
    82    82    83    2
    83    47    49   ar
    84    50    51   ar
    85    92    91    1
    86     3     4    2
    87    51    49   ar
    88    91    93    1
    89    91    88    1
    90    88    87    1
    91    88    89    1
    92    89    90    2
