@<TRIPOS>MOLECULE
tmp/3kcxA00.pdb
 150 141 0 0 0
SMALL
GASTEIGER

@<TRIPOS>ATOM
      1  N        -19.4980   30.0020   -0.8280 N.3    88  TYR88      -0.1241
      2  CA       -20.5300   29.1080   -1.3710 C.3    88  TYR88       0.1605
      3  C        -21.5210   29.9000   -2.2160 C.2    88  TYR88       0.2264
      4  O        -22.0820   30.9060   -1.7550 O.2    88  TYR88      -0.2867
      5  CB       -21.2700   28.3680   -0.2430 C.3    88  TYR88       0.0534
      6  CG       -22.6210   27.7700   -0.6290 C.ar   88  TYR88      -0.0201
      7  CD1      -22.7130   26.4680   -1.1350 C.ar   88  TYR88      -0.0009
      8  CD2      -23.8110   28.5010   -0.4630 C.ar   88  TYR88      -0.0009
      9  CE1      -23.9470   25.9120   -1.4800 C.ar   88  TYR88       0.0417
     10  CE2      -25.0530   27.9560   -0.8030 C.ar   88  TYR88       0.0417
     11  CZ       -25.1150   26.6630   -1.3140 C.ar   88  TYR88       0.1957
     12  OH       -26.3390   26.1130   -1.6640 O.3    88  TYR88      -0.2866
     13  N        -12.2110   21.8680    0.1300 N.3   131  TYR131     -0.1241
     14  CA       -13.1840   21.4880    1.1440 C.3   131  TYR131      0.1605
     15  C        -13.9780   20.2900    0.6670 C.2   131  TYR131      0.2264
     16  O        -14.4500   20.2770   -0.4610 O.2   131  TYR131     -0.2867
     17  CB       -14.1460   22.6460    1.4460 C.3   131  TYR131      0.0534
     18  CG       -14.2480   23.0110    2.9180 C.ar  131  TYR131     -0.0201
     19  CD1      -14.5000   22.0390    3.8920 C.ar  131  TYR131     -0.0009
     20  CD2      -14.0870   24.3280    3.3370 C.ar  131  TYR131     -0.0009
     21  CE1      -14.5830   22.3750    5.2480 C.ar  131  TYR131      0.0417
     22  CE2      -14.1720   24.6770    4.6880 C.ar  131  TYR131      0.0417
     23  CZ       -14.4170   23.6970    5.6330 C.ar  131  TYR131      0.1957
     24  OH       -14.5010   24.0420    6.9640 O.3   131  TYR131     -0.2866
     25  N        -17.4070   18.7110    1.3350 N.3   133  GLN133     -0.1245
     26  CA       -18.7270   18.8930    1.9130 C.3   133  GLN133      0.1566
     27  C        -19.6610   17.8500    1.3250 C.2   133  GLN133      0.2260
     28  O        -20.1220   18.0040    0.1960 O.2   133  GLN133     -0.2867
     29  CB       -19.2400   20.3040    1.6030 C.3   133  GLN133      0.0367
     30  CG       -18.4200   21.4150    2.2620 C.3   133  GLN133      0.0905
     31  CD       -18.2900   22.6690    1.4040 C.2   133  GLN133      0.2608
     32  OE1      -17.2340   23.3000    1.3780 O.2   133  GLN133     -0.2717
     33  NE2      -19.3620   23.0330    0.6970 N.am  133  GLN133     -0.0878
     34  N        -24.2430   17.0280    7.0080 N.3   172  LEU172     -0.1245
     35  CA       -23.0390   17.2190    6.2300 C.3   172  LEU172      0.1561
     36  C        -21.8090   16.7220    6.9990 C.2   172  LEU172      0.2260
     37  O        -21.8150   16.6430    8.2320 O.2   172  LEU172     -0.2867
     38  CB       -22.8870   18.6630    5.7590 C.3   172  LEU172      0.0270
     39  CG       -23.3920   18.8250    4.3250 C.3   172  LEU172      0.0019
     40  CD1      -24.8470   19.2820    4.3050 C.3   172  LEU172      0.0001
     41  CD2      -22.5040   19.7750    3.5130 C.3   172  LEU172      0.0001
     42  N        -17.6570   17.5050    6.9550 N.3   174  LEU174     -0.1245
     43  CA       -16.7720   18.4900    6.4220 C.3   174  LEU174      0.1561
     44  C        -15.3520   18.1300    6.7640 C.2   174  LEU174      0.2260
     45  O        -15.0200   17.8020    7.9080 O.2   174  LEU174     -0.2867
     46  CB       -17.1250   19.8700    6.9510 C.3   174  LEU174      0.0270
     47  CG       -18.4070   20.5810    6.5220 C.3   174  LEU174      0.0019
     48  CD1      -19.6520   19.9940    7.1660 C.3   174  LEU174      0.0001
     49  CD2      -18.2510   22.0240    6.9470 C.3   174  LEU174      0.0001
     50  N        -14.7610   29.8800    5.9290 N.3   182  THR182     -0.1218
     51  CA       -16.1250   29.9180    5.4410 C.3   182  THR182      0.1862
     52  C        -16.7050   31.2600    5.8830 C.2   182  THR182      0.2287
     53  O        -16.9610   31.4750    7.0800 O.2   182  THR182     -0.2866
     54  CB       -16.9580   28.7760    6.0330 C.3   182  THR182      0.1770
     55  OG1      -16.4160   27.5310    5.5890 O.3   182  THR182     -0.2211
     56  CG2      -18.4100   28.8760    5.6030 C.3   182  THR182      0.0375
     57  N        -22.3620   33.9010    6.8800 N.3   185  HIS185     -0.1241
     58  CA       -23.6220   33.6930    6.2470 C.3   185  HIS185      0.1621
     59  C        -24.5360   33.2010    7.3320 C.2   185  HIS185      0.2264
     60  O        -24.0480   32.8120    8.3700 O.2   185  HIS185     -0.2867
     61  CB       -23.4430   32.6250    5.1910 C.3   185  HIS185      0.0745
     62  CG       -23.1500   31.2820    5.7660 C.ar  185  HIS185      0.0817
     63  ND1      -21.8740   30.8720    6.0790 N.ar  185  HIS185     -0.2268
     64  CD2      -23.9760   30.2770    6.1310 C.ar  185  HIS185      0.1154
     65  CE1      -21.9260   29.6520    6.5750 C.ar  185  HIS185      0.1986
     66  NE2      -23.1910   29.2790    6.6360 N.ar  185  HIS185     -0.2212
     67  N        -28.2100   30.6430    8.2260 N.3   187  ASP187     -0.1239
     68  CA       -29.0140   29.5320    7.7390 C.3   187  ASP187      0.1674
     69  C        -30.3870   29.6630    8.3480 C.2   187  ASP187      0.2266
     70  O        -30.5460   30.3250    9.3870 O.2   187  ASP187     -0.2867
     71  CB       -28.3810   28.1820    8.1260 C.3   187  ASP187      0.1410
     72  CG       -27.0210   27.9760    7.4840 C.2   187  ASP187      0.3668
     73  OD1      -26.8810   28.3150    6.2960 O.co2 187  ASP187     -0.2456
     74  OD2      -26.0720   27.5060    8.1510 O.co2 187  ASP187     -0.2456
     75  N        -28.9480   24.5380   14.0950 N.3   191  ASN191     -0.1240
     76  CA       -27.7650   23.7290   13.7950 C.3   191  ASN191      0.1653
     77  C        -26.9320   23.2720   15.0140 C.2   191  ASN191      0.2266
     78  O        -26.5900   24.0780   15.9020 O.2   191  ASN191     -0.2867
     79  CB       -26.8850   24.4610   12.7950 C.3   191  ASN191      0.1155
     80  CG       -25.5730   23.7450   12.4970 C.2   191  ASN191      0.2627
     81  OD1      -25.2950   22.6690   13.0130 O.2   191  ASN191     -0.2716
     82  ND2      -24.7580   24.3490   11.6490 N.am  191  ASN191     -0.0877
     83  N        -23.2590   21.7880   15.6000 N.3   193  PHE193     -0.1241
     84  CA       -22.0240   21.7530   14.8770 C.3   193  PHE193      0.1605
     85  C        -21.0190   20.9370   15.6930 C.2   193  PHE193      0.2264
     86  O        -20.4860   21.4250   16.6690 O.2   193  PHE193     -0.2867
     87  CB       -21.5730   23.2080   14.7060 C.3   193  PHE193      0.0534
     88  CG       -20.2640   23.4050   13.9700 C.ar  193  PHE193     -0.0203
     89  CD1      -19.0530   23.2620   14.6240 C.ar  193  PHE193     -0.0042
     90  CD2      -20.2610   23.8490   12.6560 C.ar  193  PHE193     -0.0042
     91  CE1      -17.8440   23.5380   13.9710 C.ar  193  PHE193     -0.0003
     92  CE2      -19.0720   24.0910   11.9610 C.ar  193  PHE193     -0.0003
     93  CZ       -17.8510   23.9470   12.6230 C.ar  193  PHE193     -0.0000
     94  N        -11.5170   24.8050   15.1140 N.3   200  LYS200     -0.1245
     95  CA       -12.1770   25.8250   14.3000 C.3   200  LYS200      0.1561
     96  C        -12.6000   27.0210   15.1390 C.2   200  LYS200      0.2260
     97  O        -13.1680   26.8580   16.2260 O.2   200  LYS200     -0.2867
     98  CB       -13.3910   25.2470   13.5810 C.3   200  LYS200      0.0271
     99  CG       -13.0490   24.4180   12.3790 C.3   200  LYS200      0.0035
    100  CD       -14.3040   24.0780   11.6300 C.3   200  LYS200      0.0206
    101  CE       -14.0000   23.5580   10.2440 C.3   200  LYS200      0.1093
    102  NZ       -15.2590   22.9330    9.7020 N.3   200  LYS200     -0.1314
    103  N        -25.4880   26.5490   16.8860 N.3   259  ILE259     -0.1245
    104  CA       -25.6740   27.7380   16.0520 C.3   259  ILE259      0.1561
    105  C        -27.1650   27.8990   15.8150 C.2   259  ILE259      0.2260
    106  O        -27.7360   27.1950   14.9580 O.2   259  ILE259     -0.2867
    107  CB       -24.9610   27.6200   14.6960 C.3   259  ILE259      0.0252
    108  CG1      -23.4930   27.2230   14.8920 C.3   259  ILE259      0.0019
    109  CG2      -25.0300   28.9460   13.9580 C.3   259  ILE259      0.0019
    110  CD1      -22.6650   27.2130   13.6100 C.3   259  ILE259      0.0001
    111  N        -22.7430   33.0530   10.9730 N.3   265  HIS265     -0.1241
    112  CA       -21.5610   32.3620   11.4240 C.3   265  HIS265      0.1621
    113  C        -20.5100   32.5020   10.3860 C.2   265  HIS265      0.2264
    114  O        -20.7950   32.5470    9.2030 O.2   265  HIS265     -0.2867
    115  CB       -21.8300   30.8920   11.7630 C.3   265  HIS265      0.0745
    116  CG       -22.8400   30.2410   10.8750 C.ar  265  HIS265      0.0817
    117  ND1      -24.1910   30.5340   10.9340 N.ar  265  HIS265     -0.2268
    118  CD2      -22.6950   29.3220    9.8970 C.ar  265  HIS265      0.1154
    119  CE1      -24.8330   29.8110   10.0330 C.ar  265  HIS265      0.1986
    120  NE2      -23.9480   29.0660    9.3920 N.ar  265  HIS265     -0.2212
    121  N        -16.6200   31.0020    9.8580 N.3   267  ILE267     -0.1245
    122  CA       -15.9110   29.8470   10.3730 C.3   267  ILE267      0.1561
    123  C        -14.5880   29.6820    9.6970 C.2   267  ILE267      0.2260
    124  O        -14.4920   29.7860    8.4920 O.2   267  ILE267     -0.2867
    125  CB       -16.7730   28.5960   10.2890 C.3   267  ILE267      0.0252
    126  CG1      -17.8300   28.7290   11.3720 C.3   267  ILE267      0.0019
    127  CG2      -15.9450   27.3700   10.5570 C.3   267  ILE267      0.0019
    128  CD1      -18.9170   27.7770   11.3040 C.3   267  ILE267      0.0001
    129  N        -22.0620   18.3490   10.7590 N.3   280  ASN280     -0.1240
    130  CA       -23.2070   19.0370   11.3380 C.3   280  ASN280      0.1653
    131  C        -24.5410   18.4930   11.0180 C.2   280  ASN280      0.2266
    132  O        -24.7100   17.8520    9.9970 O.2   280  ASN280     -0.2867
    133  CB       -23.1970   20.5840   11.2520 C.3   280  ASN280      0.1155
    134  CG       -22.4080   21.1150   10.1130 C.2   280  ASN280      0.2627
    135  OD1      -22.9350   21.2900    9.0230 O.2   280  ASN280     -0.2716
    136  ND2      -21.1390   21.4370   10.3600 N.am  280  ASN280     -0.0877
    137  N        -28.6500   19.4750   10.9680 N.3   282  TRP282     -0.1241
    138  CA       -29.5880   20.6010   10.8130 C.3   282  TRP282      0.1605
    139  C        -31.0350   20.1840   11.0350 C.2   282  TRP282      0.2264
    140  O        -31.4760   19.1750   10.5090 O.2   282  TRP282     -0.2867
    141  CB       -29.4790   21.2280    9.4190 C.3   282  TRP282      0.0550
    142  CG       -28.3470   22.1860    9.2080 C.ar  282  TRP282      0.0003
    143  CD1      -28.2720   23.4930    9.6270 C.ar  282  TRP282      0.0946
    144  CD2      -27.1480   21.9320    8.4800 C.ar  282  TRP282      0.0152
    145  NE1      -27.0890   24.0540    9.2230 N.ar  282  TRP282     -0.2442
    146  CE2      -26.3800   23.1230    8.5120 C.ar  282  TRP282      0.0810
    147  CE3      -26.6360   20.8100    7.8150 C.ar  282  TRP282      0.0012
    148  CZ2      -25.1290   23.2200    7.9120 C.ar  282  TRP282      0.0191
    149  CZ3      -25.3880   20.9070    7.2140 C.ar  282  TRP282      0.0001
    150  CH2      -24.6530   22.1040    7.2630 C.ar  282  TRP282      0.0015
@<TRIPOS>BOND
     1     3     4    2
     2     3     2    1
     3    12    11    1
     4     9    11   ar
     5     9     7   ar
     6     2     1    1
     7     2     5    1
     8    11    10   ar
     9     7     6   ar
    10    10     8   ar
    11     6     8   ar
    12     6     5    1
    13    16    15    2
    14    13    14    1
    15    28    27    2
    16    15    14    1
    17    33    31   am
    18    14    17    1
    19    27    26    1
    20    25    26    1
    21    32    31    2
    22    31    30    1
    23    17    18    1
    24    29    26    1
    25    29    30    1
    26    18    20   ar
    27    18    19   ar
    28    20    22   ar
    29    41    39    1
    30    19    21   ar
    31    40    39    1
    32    39    38    1
    33    22    23   ar
    34    61    62    1
    35    61    58    1
    36    21    23   ar
    37    51    52    1
    38    51    50    1
    39    51    54    1
    40    55    54    1
    41    56    54    1
    42    23    24    1
    43    38    35    1
    44    62    63   ar
    45    62    64   ar
    46    52    53    2
    47    63    65   ar
    48    64    66   ar
    49    35    36    1
    50    35    34    1
    51    58    57    1
    52    58    59    1
    53    73    72   ar
    54    43    44    1
    55    43    46    1
    56    43    42    1
    57    47    49    1
    58    47    46    1
    59    47    48    1
    60    65    66   ar
    61    44    45    2
    62    36    37    2
    63   149   150   ar
    64   149   147   ar
    65   150   148   ar
    66    59    60    2
    67    72    71    1
    68    72    74   ar
    69    68    71    1
    70    68    67    1
    71    68    69    1
    72   147   144   ar
    73   148   146   ar
    74    69    70    2
    75   144   146   ar
    76   144   142   ar
    77   124   123    2
    78   146   145   ar
    79   135   134    2
    80   114   113    2
    81   142   141    1
    82   142   143   ar
    83   145   143   ar
    84   120   118   ar
    85   120   119   ar
    86   141   138    1
    87   123   122    1
    88   102   101    1
    89   121   122    1
    90   118   116   ar
    91   132   131    2
    92   119   117   ar
    93   134   136   am
    94   134   133    1
    95   101   100    1
    96   125   122    1
    97   125   127    1
    98   125   126    1
    99   113   112    1
   100   140   139    2
   101   129   130    1
   102   138   137    1
   103   138   139    1
   104   116   117   ar
   105   116   115    1
   106   111   112    1
   107   131   130    1
   108   133   130    1
   109   128   126    1
   110   112   115    1
   111   100    99    1
   112    82    80   am
   113    92    93   ar
   114    92    90   ar
   115    99    98    1
   116    80    79    1
   117    80    81    2
   118    93    91   ar
   119    90    88   ar
   120    79    76    1
   121    98    95    1
   122   110   108    1
   123    76    75    1
   124    76    77    1
   125   109   107    1
   126    88    89   ar
   127    88    87    1
   128    91    89   ar
   129    95    94    1
   130    95    96    1
   131   107   108    1
   132   107   104    1
   133    87    84    1
   134    84    83    1
   135    84    85    1
   136   106   105    2
   137    77    78    2
   138    96    97    2
   139    85    86    2
   140   105   104    1
   141   104   103    1
