@<TRIPOS>MOLECULE
tmp/3kcyA00.pdb
 150 141 0 0 0
SMALL
GASTEIGER

@<TRIPOS>ATOM
      1  N        -19.6020   29.4300   -1.8600 N.3    88  TYR88      -0.1241
      2  CA       -20.5810   28.4970   -2.4320 C.3    88  TYR88       0.1605
      3  C        -21.5970   29.2860   -3.2590 C.2    88  TYR88       0.2264
      4  O        -21.6120   30.5040   -3.2080 O.2    88  TYR88      -0.2867
      5  CB       -21.2190   27.7120   -1.2630 C.3    88  TYR88       0.0534
      6  CG       -22.7200   27.3970   -1.3090 C.ar   88  TYR88      -0.0201
      7  CD1      -23.1770   26.1000   -1.6260 C.ar   88  TYR88      -0.0009
      8  CD2      -23.6840   28.3740   -0.9720 C.ar   88  TYR88      -0.0009
      9  CE1      -24.5520   25.7960   -1.6500 C.ar   88  TYR88       0.0417
     10  CE2      -25.0600   28.0750   -0.9890 C.ar   88  TYR88       0.0417
     11  CZ       -25.4820   26.7850   -1.3280 C.ar   88  TYR88       0.1957
     12  OH       -26.8270   26.4830   -1.3490 O.3    88  TYR88      -0.2866
     13  N        -12.4370   21.5740   -0.3520 N.3   131  TYR131     -0.1241
     14  CA       -13.3660   21.1980    0.7120 C.3   131  TYR131      0.1605
     15  C        -14.1300   19.9510    0.2660 C.2   131  TYR131      0.2264
     16  O        -14.1540   19.6390   -0.9100 O.2   131  TYR131     -0.2867
     17  CB       -14.3500   22.3370    1.0120 C.3   131  TYR131      0.0534
     18  CG       -14.4480   22.6950    2.4780 C.ar  131  TYR131     -0.0201
     19  CD1      -14.8390   21.7490    3.4250 C.ar  131  TYR131     -0.0009
     20  CD2      -14.1410   23.9770    2.9200 C.ar  131  TYR131     -0.0009
     21  CE1      -14.9220   22.0760    4.7830 C.ar  131  TYR131      0.0417
     22  CE2      -14.2220   24.3170    4.2660 C.ar  131  TYR131      0.0417
     23  CZ       -14.6130   23.3650    5.1990 C.ar  131  TYR131      0.1957
     24  OH       -14.6960   23.6960    6.5440 O.3   131  TYR131     -0.2866
     25  N        -17.8190   18.9600    1.0280 N.3   133  GLN133     -0.1245
     26  CA       -19.1950   18.9320    1.4790 C.3   133  GLN133      0.1566
     27  C        -19.8530   17.7490    0.7930 C.2   133  GLN133      0.2260
     28  O        -20.2490   17.8510   -0.3670 O.2   133  GLN133     -0.2867
     29  CB       -19.9330   20.2370    1.1230 C.3   133  GLN133      0.0367
     30  CG       -19.7130   21.4230    2.0880 C.3   133  GLN133      0.0905
     31  CD       -18.8300   22.5340    1.5230 C.2   133  GLN133      0.2608
     32  OE1      -17.6550   22.6550    1.8820 O.2   133  GLN133     -0.2717
     33  NE2      -19.3980   23.3510    0.6370 N.am  133  GLN133     -0.0878
     34  N        -24.1750   16.4900    6.7320 N.3   172  LEU172     -0.1245
     35  CA       -22.9920   16.7930    5.9890 C.3   172  LEU172      0.1561
     36  C        -21.7700   16.2780    6.7470 C.2   172  LEU172      0.2260
     37  O        -21.6510   16.4710    7.9660 O.2   172  LEU172     -0.2867
     38  CB       -22.9060   18.2950    5.7020 C.3   172  LEU172      0.0270
     39  CG       -22.5840   18.6520    4.2410 C.3   172  LEU172      0.0019
     40  CD1      -23.5250   17.9130    3.2790 C.3   172  LEU172      0.0001
     41  CD2      -22.6160   20.1780    3.9770 C.3   172  LEU172      0.0001
     42  N        -17.7220   16.9080    6.4240 N.3   174  LEU174     -0.1245
     43  CA       -16.8240   17.8720    5.8100 C.3   174  LEU174      0.1561
     44  C        -15.3490   17.6850    6.1670 C.2   174  LEU174      0.2260
     45  O        -14.9830   17.4900    7.3200 O.2   174  LEU174     -0.2867
     46  CB       -17.2250   19.2970    6.1770 C.3   174  LEU174      0.0270
     47  CG       -18.6070   19.8570    5.8650 C.3   174  LEU174      0.0019
     48  CD1      -19.5600   19.5670    7.0200 C.3   174  LEU174      0.0001
     49  CD2      -18.4620   21.3690    5.6620 C.3   174  LEU174      0.0001
     50  N        -14.9840   29.4350    5.3050 N.3   182  THR182     -0.1218
     51  CA       -16.3600   29.5840    4.8100 C.3   182  THR182      0.1862
     52  C        -16.9520   30.9400    5.3020 C.2   182  THR182      0.2287
     53  O        -17.1100   31.1670    6.5290 O.2   182  THR182     -0.2866
     54  CB       -17.2290   28.4190    5.2750 C.3   182  THR182      0.1770
     55  OG1      -16.4210   27.2400    5.3410 O.3   182  THR182     -0.2211
     56  CG2      -18.3710   28.1880    4.3290 C.3   182  THR182      0.0375
     57  N        -22.5810   33.3520    6.3720 N.3   185  HIS185     -0.1241
     58  CA       -23.8640   33.1150    5.7640 C.3   185  HIS185      0.1621
     59  C        -24.7500   32.6530    6.8810 C.2   185  HIS185      0.2264
     60  O        -24.2540   32.4230    7.9710 O.2   185  HIS185     -0.2867
     61  CB       -23.7740   32.0270    4.6760 C.3   185  HIS185      0.0745
     62  CG       -23.5000   30.6550    5.2130 C.ar  185  HIS185      0.0817
     63  ND1      -22.2300   30.2210    5.5420 N.ar  185  HIS185     -0.2268
     64  CD2      -24.3310   29.6270    5.4880 C.ar  185  HIS185      0.1154
     65  CE1      -22.2920   28.9760    5.9850 C.ar  185  HIS185      0.1986
     66  NE2      -23.5570   28.5970    5.9750 N.ar  185  HIS185     -0.2212
     67  N        -28.2880   29.9420    7.7720 N.3   187  ASP187     -0.1239
     68  CA       -29.1950   28.9020    7.3260 C.3   187  ASP187      0.1674
     69  C        -30.5330   29.0970    7.9990 C.2   187  ASP187      0.2266
     70  O        -30.6510   29.8350    8.9700 O.2   187  ASP187     -0.2867
     71  CB       -28.6300   27.5470    7.6850 C.3   187  ASP187      0.1410
     72  CG       -27.2300   27.3570    7.1530 C.2   187  ASP187      0.3668
     73  OD1      -27.0190   27.6310    5.9570 O.co2 187  ASP187     -0.2456
     74  OD2      -26.3280   26.9430    7.9110 O.co2 187  ASP187     -0.2456
     75  N        -29.0320   23.8850   13.8000 N.3   191  ASN191     -0.1240
     76  CA       -27.8730   23.0890   13.4650 C.3   191  ASN191      0.1653
     77  C        -26.9390   22.6840   14.6270 C.2   191  ASN191      0.2266
     78  O        -26.6490   23.5040   15.4970 O.2   191  ASN191     -0.2867
     79  CB       -27.1300   23.7500   12.3220 C.3   191  ASN191      0.1155
     80  CG       -25.6990   23.3060   12.2150 C.2   191  ASN191      0.2627
     81  OD1      -25.2240   22.4700   12.9960 O.2   191  ASN191     -0.2716
     82  ND2      -24.9890   23.8440   11.2300 N.am  191  ASN191     -0.0877
     83  N        -23.1590   21.4320   15.1390 N.3   193  PHE193     -0.1241
     84  CA       -21.8840   21.3490   14.4450 C.3   193  PHE193      0.1605
     85  C        -20.9510   20.5080   15.3120 C.2   193  PHE193      0.2264
     86  O        -20.5250   20.9450   16.3670 O.2   193  PHE193     -0.2867
     87  CB       -21.3500   22.7810   14.2880 C.3   193  PHE193      0.0534
     88  CG       -20.1330   22.9380   13.3900 C.ar  193  PHE193     -0.0203
     89  CD1      -18.8640   23.0000   13.9260 C.ar  193  PHE193     -0.0042
     90  CD2      -20.2730   23.1580   12.0490 C.ar  193  PHE193     -0.0042
     91  CE1      -17.7600   23.2160   13.1410 C.ar  193  PHE193     -0.0003
     92  CE2      -19.1520   23.3680   11.2380 C.ar  193  PHE193     -0.0003
     93  CZ       -17.8930   23.3860   11.8070 C.ar  193  PHE193     -0.0000
     94  N        -11.5730   24.1230   14.4320 N.3   200  LYS200     -0.1245
     95  CA       -12.2060   25.2750   13.7350 C.3   200  LYS200      0.1561
     96  C        -12.6060   26.4550   14.6490 C.2   200  LYS200      0.2260
     97  O        -13.0220   26.2790   15.7990 O.2   200  LYS200     -0.2867
     98  CB       -13.4340   24.8500   12.9370 C.3   200  LYS200      0.0271
     99  CG       -13.1190   24.0420   11.7220 C.3   200  LYS200      0.0035
    100  CD       -14.3810   23.6310   11.0450 C.3   200  LYS200      0.0206
    101  CE       -14.0750   22.9790    9.7360 C.3   200  LYS200      0.1093
    102  NZ       -15.3730   22.5320    9.1690 N.3   200  LYS200     -0.1314
    103  N        -25.4320   26.0630   16.3860 N.3   259  ILE259     -0.1245
    104  CA       -25.6630   27.2430   15.5980 C.3   259  ILE259      0.1561
    105  C        -27.1660   27.3110   15.4270 C.2   259  ILE259      0.2260
    106  O        -27.7200   26.5100   14.6910 O.2   259  ILE259     -0.2867
    107  CB       -24.9870   27.0730   14.2490 C.3   259  ILE259      0.0252
    108  CG1      -23.4600   26.9800   14.4370 C.3   259  ILE259      0.0019
    109  CG2      -25.3280   28.2270   13.3440 C.3   259  ILE259      0.0019
    110  CD1      -22.7090   26.5280   13.2270 C.3   259  ILE259      0.0001
    111  N        -22.9630   32.6030   10.4320 N.3   265  HIS265     -0.1241
    112  CA       -21.6780   32.0790   10.8930 C.3   265  HIS265      0.1621
    113  C        -20.5600   32.2160    9.9050 C.2   265  HIS265      0.2264
    114  O        -20.7680   32.2210    8.7170 O.2   265  HIS265     -0.2867
    115  CB       -21.8130   30.6250   11.2770 C.3   265  HIS265      0.0745
    116  CG       -22.6820   29.8460   10.3540 C.ar  265  HIS265      0.0817
    117  ND1      -24.0570   29.9930   10.3340 N.ar  265  HIS265     -0.2268
    118  CD2      -22.3810   28.8990    9.4320 C.ar  265  HIS265      0.1154
    119  CE1      -24.5670   29.1710    9.4300 C.ar  265  HIS265      0.1986
    120  NE2      -23.5750   28.4850    8.8810 N.ar  265  HIS265     -0.2212
    121  N        -16.5410   30.6470    9.3060 N.3   267  ILE267     -0.1245
    122  CA       -15.8560   29.4340    9.7960 C.3   267  ILE267      0.1561
    123  C        -14.4760   29.2050    9.2010 C.2   267  ILE267      0.2260
    124  O        -14.3330   29.1320    7.9970 O.2   267  ILE267     -0.2867
    125  CB       -16.7580   28.2220    9.5840 C.3   267  ILE267      0.0252
    126  CG1      -18.1070   28.5310   10.2520 C.3   267  ILE267      0.0019
    127  CG2      -16.1220   26.9630   10.1750 C.3   267  ILE267      0.0019
    128  CD1      -18.9180   27.3510   10.6410 C.3   267  ILE267      0.0001
    129  N        -22.0710   17.9420   10.4700 N.3   280  ASN280     -0.1240
    130  CA       -23.2310   18.5910   11.1020 C.3   280  ASN280      0.1653
    131  C        -24.5130   17.9550   10.8000 C.2   280  ASN280      0.2266
    132  O        -24.6640   17.3500    9.7570 O.2   280  ASN280     -0.2867
    133  CB       -23.3710   20.1260   10.9580 C.3   280  ASN280      0.1155
    134  CG       -22.7560   20.6790    9.7180 C.2   280  ASN280      0.2627
    135  OD1      -23.4550   20.9450    8.7540 O.2   280  ASN280     -0.2716
    136  ND2      -21.4460   20.9150    9.7460 N.am  280  ASN280     -0.0877
    137  N        -28.6070   18.8180   10.5710 N.3   282  TRP282     -0.1241
    138  CA       -29.5420   19.9340   10.3600 C.3   282  TRP282      0.1605
    139  C        -30.9540   19.5060   10.6280 C.2   282  TRP282      0.2264
    140  O        -31.4020   18.5090   10.0960 O.2   282  TRP282     -0.2867
    141  CB       -29.4780   20.4590    8.9230 C.3   282  TRP282      0.0550
    142  CG       -28.5480   21.6110    8.7120 C.ar  282  TRP282      0.0003
    143  CD1      -28.7140   22.9040    9.1440 C.ar  282  TRP282      0.0946
    144  CD2      -27.3110   21.5810    8.0170 C.ar  282  TRP282      0.0152
    145  NE1      -27.6480   23.6790    8.7570 N.ar  282  TRP282     -0.2442
    146  CE2      -26.7710   22.8870    8.0640 C.ar  282  TRP282      0.0810
    147  CE3      -26.6010   20.5790    7.3510 C.ar  282  TRP282      0.0012
    148  CZ2      -25.5520   23.2060    7.4790 C.ar  282  TRP282      0.0191
    149  CZ3      -25.3960   20.8950    6.7630 C.ar  282  TRP282      0.0001
    150  CH2      -24.8780   22.1990    6.8330 C.ar  282  TRP282      0.0015
@<TRIPOS>BOND
     1     3     4    2
     2     3     2    1
     3     2     1    1
     4     2     5    1
     5     9     7   ar
     6     9    11   ar
     7     7     6   ar
     8    12    11    1
     9    11    10   ar
    10     6     5    1
    11     6     8   ar
    12    10     8   ar
    13    16    15    2
    14    28    27    2
    15    13    14    1
    16    15    14    1
    17    33    31   am
    18    14    17    1
    19    27    26    1
    20    17    18    1
    21    25    26    1
    22    29    26    1
    23    29    30    1
    24    31    32    2
    25    31    30    1
    26    18    20   ar
    27    18    19   ar
    28    20    22   ar
    29    40    39    1
    30    19    21   ar
    31    41    39    1
    32    39    38    1
    33    22    23   ar
    34    56    54    1
    35    61    62    1
    36    61    58    1
    37    21    23   ar
    38    51    54    1
    39    51    52    1
    40    51    50    1
    41    23    24    1
    42    62    64   ar
    43    62    63   ar
    44    54    55    1
    45    52    53    2
    46    64    66   ar
    47    63    65   ar
    48    49    47    1
    49    38    35    1
    50    58    57    1
    51    58    59    1
    52    43    44    1
    53    43    46    1
    54    43    42    1
    55    47    46    1
    56    47    48    1
    57    73    72   ar
    58    66    65   ar
    59    35    34    1
    60    35    36    1
    61    44    45    2
    62    36    37    2
    63   149   150   ar
    64   149   147   ar
    65   150   148   ar
    66    59    60    2
    67    72    71    1
    68    72    74   ar
    69    68    71    1
    70    68    67    1
    71    68    69    1
    72   147   144   ar
    73   148   146   ar
    74   124   123    2
    75    69    70    2
    76   144   146   ar
    77   144   142   ar
    78   146   145   ar
    79   142   141    1
    80   142   143   ar
    81   114   113    2
    82   135   134    2
    83   145   143   ar
    84   120   119   ar
    85   120   118   ar
    86   141   138    1
    87   102   101    1
    88   123   122    1
    89   121   122    1
    90   119   117   ar
    91   118   116   ar
    92   125   122    1
    93   125   127    1
    94   125   126    1
    95   134   136   am
    96   134   133    1
    97   101   100    1
    98   132   131    2
    99   113   112    1
   100   140   139    2
   101   126   128    1
   102   117   116   ar
   103   116   115    1
   104   138   137    1
   105   138   139    1
   106   111   112    1
   107   129   130    1
   108   131   130    1
   109   112   115    1
   110   133   130    1
   111   100    99    1
   112    82    80   am
   113    92    93   ar
   114    92    90   ar
   115    99    98    1
   116    93    91   ar
   117    90    88   ar
   118    80    79    1
   119    80    81    2
   120    79    76    1
   121    98    95    1
   122    91    89   ar
   123   110   108    1
   124   109   107    1
   125    88    89   ar
   126    88    87    1
   127    76    75    1
   128    76    77    1
   129    95    94    1
   130    95    96    1
   131   107   108    1
   132   107   104    1
   133    87    84    1
   134    84    83    1
   135    84    85    1
   136    77    78    2
   137    96    97    2
   138   106   105    2
   139    85    86    2
   140   105   104    1
   141   104   103    1
