@<TRIPOS>MOLECULE
tmp/3kd5C00.pdb
 98 91 0 0 0
SMALL
GASTEIGER

@<TRIPOS>ATOM
      1  N         -0.8870   45.4210    8.1940 N.3   411  ASP411     -0.1225
      2  CA        -0.5230   46.3250    9.2890 C.3   411  ASP411      0.1805
      3  C          0.9080   46.8440    9.1690 C.2   411  ASP411      0.2598
      4  O          1.8250   46.0930    8.8490 O.2   411  ASP411     -0.2718
      5  CB        -0.7360   45.6290   10.6420 C.3   411  ASP411      0.1424
      6  CG        -0.7720   46.5990   11.8050 C.2   411  ASP411      0.3668
      7  OD1       -1.8600   46.8070   12.3680 O.co2 411  ASP411     -0.2456
      8  OD2        0.2780   47.1630   12.1670 O.co2 411  ASP411     -0.2456
      9  N          1.0820   48.1330    9.4430 N.am  412  LEU412     -0.1966
     10  CA         2.3770   48.8020    9.3310 C.3   412  LEU412      0.1728
     11  C          3.3530   48.3670   10.4200 C.2   412  LEU412      0.2617
     12  O          3.0110   48.3590   11.6020 O.2   412  LEU412     -0.2715
     13  CB         2.1860   50.3250    9.3480 C.3   412  LEU412      0.0311
     14  CG         2.2150   51.1690    8.0540 C.3   412  LEU412      0.0022
     15  CD1        2.4330   50.3710    6.7630 C.3   412  LEU412      0.0001
     16  CD2        0.9800   52.0760    7.9370 C.3   412  LEU412      0.0001
     17  N          4.5620   47.9940   10.0060 N.am  413  THR413     -0.1937
     18  CA         5.6250   47.6010   10.9270 C.3   413  THR413      0.2028
     19  C          6.1910   48.8300   11.6310 C.2   413  THR413      0.2643
     20  O          6.5870   49.8010   10.9790 O.2   413  THR413     -0.2714
     21  CB         6.7770   46.8790   10.1950 C.3   413  THR413      0.1808
     22  OG1        6.2590   46.1190    9.0980 O.3   413  THR413     -0.2208
     23  CG2        7.5270   45.9470   11.1450 C.3   413  THR413      0.0379
     24  N          6.2220   48.7740   12.9640 N.am  414  SER414     -0.1935
     25  CA         6.7580   49.8460   13.8030 C.3   414  SER414      0.2055
     26  C          6.3630   51.2100   13.2620 C.2   414  SER414      0.2642
     27  O          7.2180   51.9960   12.8510 O.2   414  SER414     -0.2714
     28  CB         8.2800   49.7310   13.9100 C.3   414  SER414      0.2130
     29  OG         8.6520   48.8910   14.9870 O.3   414  SER414     -0.2179
     30  N          5.0630   51.4830   13.2510 N.am  415  LEU415     -0.1977
     31  CA         4.5520   52.6740   12.5890 C.3   415  LEU415      0.1596
     32  C          5.2710   53.9380   13.0330 C.2   415  LEU415      0.2287
     33  O          5.9180   54.5920   12.2140 O.2   415  LEU415     -0.2864
     34  CB         3.0420   52.8230   12.7810 C.3   415  LEU415      0.0297
     35  CG         2.4600   54.1110   12.1960 C.3   415  LEU415      0.0022
     36  CD1        2.3990   54.0520   10.6660 C.3   415  LEU415      0.0001
     37  CD2        1.0950   54.3980   12.7950 C.3   415  LEU415      0.0001
     38  N          7.9840   54.6360   15.1410 N.3   417  PRO417     -0.2116
     39  CA         9.4180   54.6880   14.8700 C.3   417  PRO417      0.1372
     40  C          9.7300   54.8210   13.3810 C.2   417  PRO417      0.2244
     41  O         10.6040   55.6030   13.0110 O.2   417  PRO417     -0.2868
     42  CB         9.9430   53.3540   15.4160 C.3   417  PRO417      0.0268
     43  CG         8.7560   52.6040   15.9130 C.3   417  PRO417      0.0207
     44  CD         7.6540   53.5680   16.1010 C.3   417  PRO417      0.0892
     45  N         13.9460   44.5100   17.7170 N.3   482  ARG482     -0.1245
     46  CA        12.5730   44.0260   17.7440 C.3   482  ARG482      0.1563
     47  C         12.2690   43.0460   16.6090 C.2   482  ARG482      0.2260
     48  O         11.6200   42.0220   16.8380 O.2   482  ARG482     -0.2867
     49  CB        11.5800   45.1860   17.7220 C.3   482  ARG482      0.0307
     50  CG        10.2230   44.8040   18.2680 C.3   482  ARG482      0.0489
     51  CD         9.1380   45.7400   17.8170 C.3   482  ARG482      0.2205
     52  NE         7.8420   45.0730   17.8590 N.pl3 482  ARG482     -0.0865
     53  CZ         6.7490   45.5010   17.2320 C.cat 482  ARG482      0.5346
     54  NH1        6.7760   46.6170   16.4980 N.pl3 482  ARG482      0.1354
     55  NH2        5.6200   44.8080   17.3390 N.pl3 482  ARG482      0.1354
     56  N         11.0480   39.3060   17.2260 N.3   486  LYS486     -0.1245
     57  CA         9.7300   38.9720   16.6800 C.3   486  LYS486      0.1561
     58  C          9.8570   37.8070   15.7060 C.2   486  LYS486      0.2260
     59  O          8.9730   36.9510   15.6320 O.2   486  LYS486     -0.2867
     60  CB         9.0660   40.1750   16.0010 C.3   486  LYS486      0.0271
     61  CG         7.5840   39.9700   15.7180 C.3   486  LYS486      0.0035
     62  CD         6.9470   41.1720   15.0410 C.3   486  LYS486      0.0206
     63  CE         5.4750   40.8990   14.7640 C.3   486  LYS486      0.1093
     64  NZ         4.7370   42.0820   14.2370 N.3   486  LYS486     -0.1314
     65  N          8.8520   47.1520   21.5620 N.3   560  LYS560     -0.1245
     66  CA         7.8030   47.9490   20.9300 C.3   560  LYS560      0.1561
     67  C          7.3600   49.1010   21.8240 C.2   560  LYS560      0.2260
     68  O          7.3050   50.2410   21.3770 O.2   560  LYS560     -0.2867
     69  CB         6.5920   47.0970   20.5460 C.3   560  LYS560      0.0271
     70  CG         5.4820   47.9060   19.8990 C.3   560  LYS560      0.0035
     71  CD         4.2120   47.1230   19.7660 C.3   560  LYS560      0.0206
     72  CE         3.1320   47.9680   19.1370 C.3   560  LYS560      0.1093
     73  NZ         1.9590   47.1270   18.8260 N.3   560  LYS560     -0.1314
     74  N          7.6740   53.1950   21.0930 N.3   564  ASN564     -0.1240
     75  CA         6.4920   54.0590   21.0640 C.3   564  ASN564      0.1653
     76  C          6.4550   55.0370   22.2330 C.2   564  ASN564      0.2266
     77  O          5.7940   56.0730   22.1590 O.2   564  ASN564     -0.2867
     78  CB         5.2120   53.2210   21.0550 C.3   564  ASN564      0.1155
     79  CG         4.9930   52.5030   19.7430 C.2   564  ASN564      0.2627
     80  OD1        5.2590   53.0380   18.6710 O.2   564  ASN564     -0.2716
     81  ND2        4.4910   51.2870   19.8200 N.am  564  ASN564     -0.0877
     82  N         -2.9430   52.0230   11.9240 N.3   623  ASP623     -0.1239
     83  CA        -2.0510   51.6210   10.8400 C.3   623  ASP623      0.1674
     84  C         -2.4330   50.2800   10.2250 C.2   623  ASP623      0.2266
     85  O         -1.5750   49.5590    9.7110 O.2   623  ASP623     -0.2867
     86  CB        -0.5990   51.5820   11.3310 C.3   623  ASP623      0.1410
     87  CG        -0.3570   50.5170   12.3920 C.2   623  ASP623      0.3668
     88  OD1       -1.3120   50.0780   13.0660 O.co2 623  ASP623     -0.2456
     89  OD2        0.8040   50.1090   12.5670 O.co2 623  ASP623     -0.2456
     90  N         -1.3690   40.2490    7.9420 N.3   686  GLU686     -0.1245
     91  CA        -1.6700   39.6940    9.2550 C.3   686  GLU686      0.1567
     92  C         -2.5840   38.4810    9.1430 C.2   686  GLU686      0.2260
     93  O         -2.1170   37.3550    8.9860 O.2   686  GLU686     -0.2867
     94  CB        -2.3340   40.7450   10.1440 C.3   686  GLU686      0.0388
     95  CG        -1.5620   42.0340   10.3000 C.3   686  GLU686      0.1160
     96  CD        -0.7400   42.0700   11.5650 C.2   686  GLU686      0.3649
     97  OE1       -1.1330   42.8110   12.4990 O.co2 686  GLU686     -0.2457
     98  OE2        0.2860   41.3520   11.6300 O.co2 686  GLU686     -0.2457
@<TRIPOS>BOND
     1    15    14    1
     2    16    14    1
     3    90    91    1
     4    14    13    1
     5     1     2    1
     6     4     3    2
     7    93    92    2
     8    22    21    1
     9    92    91    1
    10     3     2    1
    11     3     9   am
    12    91    94    1
    13     2     5    1
    14    10    13    1
    15    10     9    1
    16    10    11    1
    17    85    84    2
    18    17    11   am
    19    17    18    1
    20    94    95    1
    21    21    18    1
    22    21    23    1
    23    84    83    1
    24    95    96    1
    25    11    12    2
    26     5     6    1
    27    36    35    1
    28    83    86    1
    29    83    82    1
    30    18    19    1
    31    20    19    2
    32    86    87    1
    33    96    98   ar
    34    96    97   ar
    35    19    24   am
    36     6     8   ar
    37     6     7   ar
    38    35    34    1
    39    35    37    1
    40    33    32    2
    41    87    89   ar
    42    87    88   ar
    43    31    34    1
    44    31    32    1
    45    31    30    1
    46    27    26    2
    47    24    25    1
    48    41    40    2
    49    30    26   am
    50    26    25    1
    51    40    39    1
    52    25    28    1
    53    28    29    1
    54    64    63    1
    55    63    62    1
    56    39    38    1
    57    39    42    1
    58    62    61    1
    59    38    44    1
    60    42    43    1
    61    59    58    2
    62    58    57    1
    63    61    60    1
    64    43    44    1
    65    60    57    1
    66    54    53    1
    67    47    48    2
    68    47    46    1
    69    57    56    1
    70    53    55    1
    71    53    52    2
    72    45    46    1
    73    49    46    1
    74    49    50    1
    75    51    52    1
    76    51    50    1
    77    80    79    2
    78    73    72    1
    79    72    71    1
    80    79    81   am
    81    79    78    1
    82    71    70    1
    83    70    69    1
    84    69    66    1
    85    66    65    1
    86    66    67    1
    87    78    75    1
    88    75    74    1
    89    75    76    1
    90    68    67    2
    91    77    76    2
