@<TRIPOS>MOLECULE
tmp/3kd6A00.pdb
 184 177 0 0 0
SMALL
GASTEIGER

@<TRIPOS>ATOM
      1  N         22.0940    2.6830   -0.0130 N.3     8  SER8       -0.1217
      2  CA        20.9000    3.4290   -0.3550 C.3     8  SER8        0.1889
      3  C         20.7260    4.6630    0.5080 C.2     8  SER8        0.2288
      4  O         21.1970    4.7310    1.6430 O.2     8  SER8       -0.2866
      5  CB        19.6540    2.5400   -0.2390 C.3     8  SER8        0.2089
      6  OG        19.4800    2.0380    1.0790 O.3     8  SER8       -0.2183
      7  N         17.4170    6.9990    1.3190 N.3    10  ALA10      -0.1245
      8  CA        15.9930    6.9230    1.0380 C.3    10  ALA10       0.1562
      9  C         15.0590    7.4760    2.0880 C.2    10  ALA10       0.2260
     10  O         15.4740    8.0770    3.0730 O.2    10  ALA10      -0.2867
     11  CB        15.6280    5.4750    0.7760 C.3    10  ALA10       0.0290
     12  N         11.7290    6.1420    4.3570 N.3    12  ASP12      -0.1239
     13  CA        11.0180    4.9390    4.7660 C.3    12  ASP12       0.1674
     14  C          9.7030    5.1980    5.4810 C.2    12  ASP12       0.2266
     15  O          9.5760    6.1480    6.2490 O.2    12  ASP12      -0.2867
     16  CB        11.8570    4.0800    5.7240 C.3    12  ASP12       0.1410
     17  CG        13.2820    3.8810    5.2670 C.2    12  ASP12       0.3668
     18  OD1       13.5150    3.6640    4.0560 O.co2  12  ASP12      -0.2456
     19  OD2       14.1720    3.9240    6.1470 O.co2  12  ASP12      -0.2456
     20  N         17.8930    4.6440    4.4780 N.3    27  GLY27      -0.1210
     21  CA        18.8220    4.1520    3.4790 C.3    27  GLY27       0.1956
     22  C         20.0280    3.5860    4.1960 C.2    27  GLY27       0.2612
     23  O         20.4560    4.1540    5.2010 O.2    27  GLY27      -0.2717
     24  N         20.5840    2.4880    3.6850 N.am   28  SER28      -0.1952
     25  CA        21.7280    1.8590    4.3350 C.3    28  SER28       0.1924
     26  C         22.9650    2.7440    4.4690 C.2    28  SER28       0.2314
     27  O         23.6660    2.6600    5.4690 O.2    28  SER28      -0.2863
     28  CB        22.1030    0.5350    3.6310 C.3    28  SER28       0.2116
     29  OG        22.5450    0.7260    2.2970 O.3    28  SER28      -0.2180
     30  N         22.5600    5.3220    7.5070 N.3    31  TYR31      -0.1241
     31  CA        22.8150    4.7220    8.8090 C.3    31  TYR31       0.1605
     32  C         24.2970    4.4020    8.9880 C.2    31  TYR31       0.2264
     33  O         24.8760    4.6670   10.0440 O.2    31  TYR31      -0.2867
     34  CB        21.9580    3.4610    8.9720 C.3    31  TYR31       0.0534
     35  CG        20.5190    3.7660    9.3380 C.ar   31  TYR31      -0.0201
     36  CD1       20.1890    4.1700   10.6240 C.ar   31  TYR31      -0.0009
     37  CD2       19.4950    3.6710    8.3960 C.ar   31  TYR31      -0.0009
     38  CE1       18.8900    4.4710   10.9780 C.ar   31  TYR31       0.0417
     39  CE2       18.1750    3.9750    8.7370 C.ar   31  TYR31       0.0417
     40  CZ        17.8820    4.3740   10.0350 C.ar   31  TYR31       0.1957
     41  OH        16.5920    4.6810   10.4070 O.3    31  TYR31      -0.2866
     42  N         14.8080    6.9640   -3.4760 N.3    80  PHE80      -0.1241
     43  CA        14.5400    5.5590   -3.1580 C.3    80  PHE80       0.1605
     44  C         13.5140    5.5210   -2.0160 C.2    80  PHE80       0.2264
     45  O         13.6100    6.3050   -1.0720 O.2    80  PHE80      -0.2867
     46  CB        15.8610    4.8960   -2.7300 C.3    80  PHE80       0.0534
     47  CG        15.7650    3.4130   -2.4560 C.ar   80  PHE80      -0.0203
     48  CD1       16.5450    2.5120   -3.1800 C.ar   80  PHE80      -0.0042
     49  CD2       14.9410    2.9210   -1.4480 C.ar   80  PHE80      -0.0042
     50  CE1       16.5070    1.1430   -2.9040 C.ar   80  PHE80      -0.0003
     51  CE2       14.8950    1.5570   -1.1630 C.ar   80  PHE80      -0.0003
     52  CZ        15.6790    0.6660   -1.8920 C.ar   80  PHE80      -0.0000
     53  N         11.0480    2.9220    0.7010 N.3    82  TRP82      -0.1241
     54  CA        10.8850    1.6070    1.3070 C.3    82  TRP82       0.1605
     55  C          9.8430    1.6450    2.4180 C.2    82  TRP82       0.2264
     56  O          9.7470    2.6220    3.1520 O.2    82  TRP82      -0.2867
     57  CB        12.2180    1.1230    1.8810 C.3    82  TRP82       0.0550
     58  CG        12.1110   -0.1590    2.6430 C.ar   82  TRP82       0.0003
     59  CD1       11.9360   -1.4100    2.1260 C.ar   82  TRP82       0.0946
     60  CD2       12.1780   -0.3160    4.0650 C.ar   82  TRP82       0.0152
     61  NE1       11.8950   -2.3400    3.1400 N.ar   82  TRP82      -0.2442
     62  CE2       12.0400   -1.6940    4.3400 C.ar   82  TRP82       0.0810
     63  CE3       12.3420    0.5750    5.1350 C.ar   82  TRP82       0.0012
     64  CZ2       12.0590   -2.2030    5.6450 C.ar   82  TRP82       0.0191
     65  CZ3       12.3600    0.0700    6.4300 C.ar   82  TRP82       0.0001
     66  CH2       12.2200   -1.3070    6.6730 C.ar   82  TRP82       0.0015
     67  N         10.8060   -8.3580   10.2530 N.3    92  ARG92      -0.1245
     68  CA         9.9330   -7.3950    9.5900 C.3    92  ARG92       0.1563
     69  C          9.5310   -7.8190    8.1870 C.2    92  ARG92       0.2260
     70  O         10.1750   -8.6610    7.5660 O.2    92  ARG92      -0.2867
     71  CB        10.6300   -6.0380    9.5030 C.3    92  ARG92       0.0307
     72  CG        11.8010   -6.0480    8.5430 C.3    92  ARG92       0.0489
     73  CD        12.6560   -4.8000    8.6240 C.3    92  ARG92       0.2205
     74  NE        13.8590   -4.9630    7.8160 N.pl3  92  ARG92      -0.0865
     75  CZ        14.9210   -4.1680    7.8750 C.cat  92  ARG92       0.5346
     76  NH1       14.9330   -3.1390    8.7050 N.pl3  92  ARG92       0.1354
     77  NH2       15.9870   -4.4260    7.1300 N.pl3  92  ARG92       0.1354
     78  N          8.7610   -6.4910    4.2900 N.3    94  THR94      -0.1218
     79  CA         9.0080   -5.3900    3.3740 C.3    94  THR94       0.1862
     80  C          7.6840   -5.2560    2.6350 C.2    94  THR94       0.2287
     81  O          7.2760   -6.1690    1.9180 O.2    94  THR94      -0.2866
     82  CB        10.1200   -5.7180    2.3640 C.3    94  THR94       0.1770
     83  OG1       11.3880   -5.6970    3.0310 O.3    94  THR94      -0.2211
     84  CG2       10.1260   -4.6990    1.2260 C.3    94  THR94       0.0375
     85  N          9.0890   -1.5930   -2.1010 N.3    97  THR97      -0.1218
     86  CA        10.4560   -1.2260   -2.4360 C.3    97  THR97       0.1862
     87  C         10.4540   -0.5880   -3.8180 C.2    97  THR97       0.2287
     88  O         10.1490   -1.2500   -4.8110 O.2    97  THR97      -0.2866
     89  CB        11.3880   -2.4500   -2.4670 C.3    97  THR97       0.1770
     90  OG1       11.2890   -3.1610   -1.2320 O.3    97  THR97      -0.2211
     91  CG2       12.8370   -2.0090   -2.6690 C.3    97  THR97       0.0375
     92  N         24.2290   -2.1600    1.8080 N.3   123  ASN123     -0.1225
     93  CA        23.1080   -2.7810    1.1340 C.3   123  ASN123      0.1785
     94  C         22.6240   -1.9490   -0.0480 C.2   123  ASN123      0.2597
     95  O         22.2060   -0.7980    0.1160 O.2   123  ASN123     -0.2718
     96  CB        21.9830   -2.9960    2.1490 C.3   123  ASN123      0.1169
     97  CG        20.7190   -3.5300    1.5230 C.2   123  ASN123      0.2627
     98  OD1       20.7590   -4.2540    0.5250 O.2   123  ASN123     -0.2716
     99  ND2       19.5830   -3.1920    2.1170 N.am  123  ASN123     -0.0877
    100  N         22.7160   -2.5530   -1.2330 N.am  124  ILE124     -0.1980
    101  CA        22.2980   -1.9670   -2.5010 C.3   124  ILE124      0.1595
    102  C         22.5510   -3.0520   -3.5530 C.2   124  ILE124      0.2287
    103  O         23.2270   -4.0370   -3.2710 O.2   124  ILE124     -0.2864
    104  CB        23.1120   -0.6820   -2.8540 C.3   124  ILE124      0.0276
    105  CG1       22.4870    0.0170   -4.0610 C.3   124  ILE124      0.0022
    106  CG2       24.5420   -1.0180   -3.1730 C.3   124  ILE124      0.0022
    107  CD1       21.0880    0.5120   -3.8180 C.3   124  ILE124      0.0001
    108  N         16.2970   -9.1480   -0.4230 N.3   148  PHE148     -0.1227
    109  CA        15.8950   -8.6510   -1.7390 C.3   148  PHE148      0.1736
    110  C         16.9110   -9.0500   -2.8070 C.2   148  PHE148      0.2595
    111  O         16.5440   -9.5170   -3.8890 O.2   148  PHE148     -0.2718
    112  CB        15.7930   -7.1240   -1.6930 C.3   148  PHE148      0.0547
    113  CG        15.1200   -6.5100   -2.8910 C.ar  148  PHE148     -0.0202
    114  CD1       13.7310   -6.4460   -2.9670 C.ar  148  PHE148     -0.0042
    115  CD2       15.8730   -5.9600   -3.9260 C.ar  148  PHE148     -0.0042
    116  CE1       13.1020   -5.8380   -4.0530 C.ar  148  PHE148     -0.0003
    117  CE2       15.2530   -5.3530   -5.0160 C.ar  148  PHE148     -0.0003
    118  CZ        13.8650   -5.2910   -5.0780 C.ar  148  PHE148     -0.0000
    119  N         18.1900   -8.8560   -2.5000 N.am  149  TRP149     -0.1976
    120  CA        19.2610   -9.1760   -3.4360 C.3   149  TRP149      0.1640
    121  C         19.6790  -10.6420   -3.3660 C.2   149  TRP149      0.2290
    122  O         20.0880  -11.2220   -4.3720 O.2   149  TRP149     -0.2864
    123  CB        20.4700   -8.2710   -3.1780 C.3   149  TRP149      0.0576
    124  CG        20.1080   -6.8120   -3.1490 C.ar  149  TRP149      0.0006
    125  CD1       20.1850   -5.9670   -2.0760 C.ar  149  TRP149      0.0946
    126  CD2       19.5550   -6.0440   -4.2230 C.ar  149  TRP149      0.0152
    127  NE1       19.7100   -4.7230   -2.4140 N.ar  149  TRP149     -0.2442
    128  CE2       19.3140   -4.7420   -3.7260 C.ar  149  TRP149      0.0810
    129  CE3       19.2330   -6.3280   -5.5570 C.ar  149  TRP149      0.0012
    130  CZ2       18.7680   -3.7250   -4.5190 C.ar  149  TRP149      0.0191
    131  CZ3       18.6890   -5.3170   -6.3440 C.ar  149  TRP149      0.0001
    132  CH2       18.4610   -4.0330   -5.8210 C.ar  149  TRP149      0.0015
    133  N         22.4670  -10.6550    8.9570 N.3   170  ASN170     -0.1240
    134  CA        21.7360  -10.9760   10.1760 C.3   170  ASN170      0.1653
    135  C         21.4830  -12.4870   10.0920 C.2   170  ASN170      0.2266
    136  O         21.7120  -13.0910    9.0410 O.2   170  ASN170     -0.2867
    137  CB        20.4210  -10.1840   10.3110 C.3   170  ASN170      0.1155
    138  CG        19.4880  -10.3720    9.1430 C.2   170  ASN170      0.2627
    139  OD1       19.2760  -11.4890    8.6740 O.2   170  ASN170     -0.2716
    140  ND2       18.8980   -9.2740    8.6800 N.am  170  ASN170     -0.0877
    141  N         19.1570  -13.7010    7.0350 N.3   173  GLU173     -0.1245
    142  CA        19.8190  -13.6340    5.7370 C.3   173  GLU173      0.1567
    143  C         20.8240  -14.7700    5.6330 C.2   173  GLU173      0.2260
    144  O         20.9140  -15.4370    4.6000 O.2   173  GLU173     -0.2867
    145  CB        20.5400  -12.2830    5.5700 C.3   173  GLU173      0.0388
    146  CG        19.6200  -11.0710    5.6870 C.3   173  GLU173      0.1160
    147  CD        20.3710   -9.7350    5.7150 C.2   173  GLU173      0.3649
    148  OE1       21.5130   -9.6880    6.2260 O.co2 173  GLU173     -0.2457
    149  OE2       19.8060   -8.7230    5.2450 O.co2 173  GLU173     -0.2457
    150  N         13.7860   -1.0660   15.1010 N.3   228  PRO228     -0.2102
    151  CA        14.9650   -1.7990   14.6220 C.3   228  PRO228      0.1504
    152  C         15.5900   -1.2450   13.3380 C.2   228  PRO228      0.2576
    153  O         16.7320   -1.5510   13.0260 O.2   228  PRO228     -0.2718
    154  CB        14.4370   -3.2170   14.4080 C.3   228  PRO228      0.0282
    155  CG        13.2460   -3.3110   15.3490 C.3   228  PRO228      0.0208
    156  CD        12.6100   -1.9510   15.1870 C.3   228  PRO228      0.0893
    157  N         14.8400   -0.4340   12.6000 N.am  229  THR229     -0.1939
    158  CA        15.3330    0.0960   11.3310 C.3   229  THR229      0.2028
    159  C         16.7180    0.7300   11.4280 C.2   229  THR229      0.2643
    160  O         16.9490    1.6070   12.2580 O.2   229  THR229     -0.2714
    161  CB        14.3490    1.1340   10.7460 C.3   229  THR229      0.1808
    162  OG1       13.0270    0.5830   10.7420 O.3   229  THR229     -0.2208
    163  CG2       14.7370    1.4920    9.3230 C.3   229  THR229      0.0379
    164  N         17.6270    0.2630   10.5750 N.am  230  GLY230     -0.1939
    165  CA        18.9780    0.7850   10.5340 C.3   230  GLY230      0.2014
    166  C         19.9810    0.1570   11.4890 C.2   230  GLY230      0.2639
    167  O         21.1770    0.4190   11.3760 O.2   230  GLY230     -0.2714
    168  N         19.5090   -0.6790   12.4100 N.am  231  ALA231     -0.1963
    169  CA        20.3780   -1.3050   13.3950 C.3   231  ALA231      0.1728
    170  C         21.5800   -2.0370   12.7910 C.2   231  ALA231      0.2617
    171  O         22.7180   -1.8440   13.2250 O.2   231  ALA231     -0.2715
    172  CB        19.5660   -2.2640   14.2550 C.3   231  ALA231      0.0334
    173  N         21.3210   -2.8750   11.7890 N.am  232  GLY232     -0.1940
    174  CA        22.3890   -3.6310   11.1650 C.3   232  GLY232      0.2014
    175  C         23.3820   -2.7760   10.4080 C.2   232  GLY232      0.2638
    176  O         24.5670   -3.0990   10.3250 O.2   232  GLY232     -0.2714
    177  N         22.8980   -1.6780    9.8450 N.am  233  ASP233     -0.1971
    178  CA        23.7730   -0.7840    9.1200 C.3   233  ASP233      0.1709
    179  C         24.5430    0.1330   10.0630 C.2   233  ASP233      0.2293
    180  O         25.6890    0.4840    9.7720 O.2   233  ASP233     -0.2864
    181  CB        22.9770   -0.0120    8.0770 C.3   233  ASP233      0.1436
    182  CG        22.6080   -0.8880    6.8940 C.2   233  ASP233      0.3671
    183  OD1       23.5350   -1.4490    6.2680 O.co2 233  ASP233     -0.2456
    184  OD2       21.4050   -1.0350    6.5990 O.co2 233  ASP233     -0.2456
@<TRIPOS>BOND
     1   131   132   ar
     2   131   129   ar
     3   132   130   ar
     4   129   126   ar
     5   118   117   ar
     6   118   116   ar
     7   117   115   ar
     8    88    87    2
     9   130   128   ar
    10   122   121    2
    11   126   128   ar
    12   126   124   ar
    13   105   107    1
    14   105   104    1
    15   116   114   ar
    16   115   113   ar
    17   111   110    2
    18    87    86    1
    19   128   127   ar
    20   102   103    2
    21   102   101    1
    22    42    43    1
    23   120   121    1
    24   120   123    1
    25   120   119    1
    26    48    50   ar
    27    48    47   ar
    28   123   124    1
    29   106   104    1
    30    43    46    1
    31    43    44    1
    32   124   125   ar
    33   114   113   ar
    34    50    52   ar
    35   113   112    1
    36   104   101    1
    37   110   119   am
    38   110   109    1
    39    46    47    1
    40    91    89    1
    41   101   100    1
    42    89    86    1
    43    89    90    1
    44    47    49   ar
    45    86    85    1
    46   127   125   ar
    47    44    45    2
    48    52    51   ar
    49   109   112    1
    50   109   108    1
    51    49    51   ar
    52   100    94   am
    53     2     5    1
    54     2     1    1
    55     2     3    1
    56     5     6    1
    57    94    95    2
    58    94    93    1
    59     3     4    2
    60    98    97    2
    61    53    54    1
    62    11     8    1
    63     8     7    1
    64     8     9    1
    65    93    92    1
    66    93    96    1
    67    84    82    1
    68    54    57    1
    69    54    55    1
    70    97    99   am
    71    97    96    1
    72    57    58    1
    73    81    80    2
    74     9    10    2
    75    59    58   ar
    76    59    61   ar
    77    29    28    1
    78    82    83    1
    79    82    79    1
    80    55    56    2
    81    80    79    1
    82    58    60   ar
    83    61    62   ar
    84    79    78    1
    85    21    22    1
    86    21    20    1
    87    28    25    1
    88    24    22   am
    89    24    25    1
    90    18    17   ar
    91    60    62   ar
    92    60    63   ar
    93    22    23    2
    94    25    26    1
    95    62    64   ar
    96    12    13    1
    97    26    27    2
    98   144   143    2
    99    13    14    1
   100    13    16    1
   101    63    65   ar
   102   149   147   ar
   103    17    16    1
   104    17    19   ar
   105    14    15    2
   106   145   146    1
   107   145   142    1
   108   143   142    1
   109    64    66   ar
   110   146   147    1
   111   147   148   ar
   112   142   141    1
   113   183   182   ar
   114    65    66   ar
   115   184   182   ar
   116   182   181    1
   117    77    75    1
   118    30    31    1
   119    70    69    2
   120    74    75    2
   121    74    73    1
   122    75    76    1
   123   181   178    1
   124    69    68    1
   125    37    39   ar
   126    37    35   ar
   127    72    73    1
   128    72    71    1
   129   139   138    2
   130   140   138   am
   131    39    40   ar
   132    31    34    1
   133    31    32    1
   134   133   134    1
   135    34    35    1
   136    32    33    2
   137   136   135    2
   138   178   177    1
   139   178   179    1
   140   138   137    1
   141   163   161    1
   142    35    36   ar
   143    71    68    1
   144    68    67    1
   145   180   179    2
   146   177   175   am
   147    40    41    1
   148    40    38   ar
   149   135   134    1
   150   134   137    1
   151   176   175    2
   152   175   174    1
   153   165   164    1
   154   165   166    1
   155   164   159   am
   156    36    38   ar
   157   162   161    1
   158   161   158    1
   159   174   173    1
   160   158   159    1
   161   158   157    1
   162   167   166    2
   163   159   160    2
   164   166   168   am
   165   173   170   am
   166   168   169    1
   167   157   152   am
   168   170   171    2
   169   170   169    1
   170   153   152    2
   171   152   151    1
   172   169   172    1
   173   154   151    1
   174   154   155    1
   175   151   150    1
   176   150   156    1
   177   156   155    1
