@<TRIPOS>MOLECULE
tmp/3kd7B00.pdb
 161 154 0 0 0
SMALL
GASTEIGER

@<TRIPOS>ATOM
      1  N        -13.2430  -17.2970    0.7720 N.3     6  LYS6       -0.1245
      2  CA       -13.6190  -16.7780   -0.5440 C.3     6  LYS6        0.1561
      3  C        -14.3830  -17.8210   -1.3580 C.2     6  LYS6        0.2260
      4  O        -15.4600  -17.5350   -1.8800 O.2     6  LYS6       -0.2867
      5  CB       -12.3810  -16.3050   -1.3220 C.3     6  LYS6        0.0271
      6  CG       -12.7110  -15.6140   -2.6460 C.3     6  LYS6        0.0035
      7  CD       -11.6560  -15.8710   -3.7170 C.3     6  LYS6        0.0206
      8  CE       -10.5790  -14.7950   -3.7340 C.3     6  LYS6        0.1093
      9  NZ        -9.6910  -14.9210   -4.9280 N.3     6  LYS6       -0.1314
     10  N        -17.9190  -18.0660   -2.7780 N.3    10  ASN10      -0.1240
     11  CA       -18.1680  -18.3240   -4.1960 C.3    10  ASN10       0.1653
     12  C        -19.2130  -19.4110   -4.3970 C.2    10  ASN10       0.2266
     13  O        -20.0020  -19.3520   -5.3400 O.2    10  ASN10      -0.2867
     14  CB       -16.8770  -18.7290   -4.9170 C.3    10  ASN10       0.1155
     15  CG       -15.8650  -17.5930   -5.0140 C.2    10  ASN10       0.2627
     16  OD1      -16.3480  -16.3550   -5.0720 O.2    10  ASN10      -0.2716
     17  ND2      -14.6580  -17.8360   -5.0390 N.am   10  ASN10      -0.0877
     18  N        -22.6710  -17.9490   -3.5730 N.3    13  TYR13      -0.1227
     19  CA       -22.9300  -17.0110   -4.6690 C.3    13  TYR13       0.1736
     20  C        -23.4910  -17.7350   -5.8930 C.2    13  TYR13       0.2595
     21  O        -24.5370  -17.3590   -6.4210 O.2    13  TYR13      -0.2718
     22  CB       -21.6430  -16.2490   -5.0270 C.3    13  TYR13       0.0548
     23  CG       -21.7620  -15.3100   -6.2100 C.ar   13  TYR13      -0.0200
     24  CD1      -22.1380  -13.9790   -6.0340 C.ar   13  TYR13      -0.0009
     25  CD2      -21.4890  -15.7510   -7.5040 C.ar   13  TYR13      -0.0009
     26  CE1      -22.2460  -13.1140   -7.1210 C.ar   13  TYR13       0.0417
     27  CE2      -21.5960  -14.8970   -8.5940 C.ar   13  TYR13       0.0417
     28  CZ       -21.9720  -13.5800   -8.3970 C.ar   13  TYR13       0.1957
     29  OH       -22.0760  -12.7330   -9.4770 O.3    13  TYR13      -0.2866
     30  N        -22.7940  -18.7820   -6.3220 N.am   14  LYS14      -0.1980
     31  CA       -23.1990  -19.5780   -7.4770 C.3    14  LYS14       0.1596
     32  C        -24.4950  -20.3600   -7.2300 C.2    14  LYS14       0.2287
     33  O        -25.1980  -20.7190   -8.1780 O.2    14  LYS14      -0.2864
     34  CB       -22.0740  -20.5370   -7.8660 C.3    14  LYS14       0.0298
     35  CG       -20.8620  -19.8800   -8.5170 C.3    14  LYS14       0.0038
     36  CD       -20.9150  -19.9900  -10.0300 C.3    14  LYS14       0.0206
     37  CE       -19.5630  -19.6870  -10.6440 C.3    14  LYS14       0.1093
     38  NZ       -19.4900  -20.1480  -12.0570 N.3    14  LYS14      -0.1314
     39  N        -27.1040  -19.2560   -6.1190 N.3    16  GLY16      -0.1225
     40  CA       -28.1800  -18.2830   -6.1020 C.3    16  GLY16       0.1811
     41  C        -28.1870  -17.4490   -4.8360 C.2    16  GLY16       0.2280
     42  O        -28.5750  -16.2810   -4.8540 O.2    16  GLY16      -0.2866
     43  N        -26.9180  -15.0970   -2.0960 N.3    18  TYR18      -0.1241
     44  CA       -25.9300  -14.0280   -2.0250 C.3    18  TYR18       0.1605
     45  C        -25.8160  -13.4180   -0.6310 C.2    18  TYR18       0.2264
     46  O        -24.8830  -12.6660   -0.3470 O.2    18  TYR18      -0.2867
     47  CB       -26.2670  -12.9420   -3.0480 C.3    18  TYR18       0.0534
     48  CG       -26.6450  -13.4790   -4.4100 C.ar   18  TYR18      -0.0201
     49  CD1      -27.9630  -13.4610   -4.8440 C.ar   18  TYR18      -0.0009
     50  CD2      -25.6820  -14.0050   -5.2610 C.ar   18  TYR18      -0.0009
     51  CE1      -28.3130  -13.9510   -6.0880 C.ar   18  TYR18       0.0417
     52  CE2      -26.0220  -14.4980   -6.5070 C.ar   18  TYR18       0.0417
     53  CZ       -27.3390  -14.4680   -6.9150 C.ar   18  TYR18       0.1957
     54  OH       -27.6820  -14.9570   -8.1540 O.3    18  TYR18      -0.2866
     55  N        -17.5640  -13.3850    2.3580 N.3    25  TYR25      -0.1241
     56  CA       -16.7110  -12.4150    1.6800 C.3    25  TYR25       0.1605
     57  C        -16.2180  -11.3660    2.6720 C.2    25  TYR25       0.2264
     58  O        -15.0660  -10.9390    2.6080 O.2    25  TYR25      -0.2867
     59  CB       -17.4470  -11.7280    0.5260 C.3    25  TYR25       0.0534
     60  CG       -17.6670  -12.5710   -0.7160 C.ar   25  TYR25      -0.0201
     61  CD1      -18.8680  -12.4930   -1.4220 C.ar   25  TYR25      -0.0009
     62  CD2      -16.6770  -13.4290   -1.1930 C.ar   25  TYR25      -0.0009
     63  CE1      -19.0840  -13.2520   -2.5640 C.ar   25  TYR25       0.0417
     64  CE2      -16.8830  -14.1970   -2.3360 C.ar   25  TYR25       0.0417
     65  CZ       -18.0890  -14.1010   -3.0160 C.ar   25  TYR25       0.1957
     66  OH       -18.3020  -14.8520   -4.1490 O.3    25  TYR25      -0.2866
     67  N         -9.3200   -8.6880   -4.9560 N.3    37  SER37      -0.1217
     68  CA       -10.2630   -9.6960   -5.4400 C.3    37  SER37       0.1889
     69  C        -11.4280   -9.9150   -4.4720 C.2    37  SER37       0.2288
     70  O        -12.5160  -10.3110   -4.8900 O.2    37  SER37      -0.2866
     71  CB        -9.5380  -11.0180   -5.7080 C.3    37  SER37       0.2089
     72  OG       -10.4250  -12.0000   -6.2160 O.3    37  SER37      -0.2183
     73  N        -13.9110   -6.9920   -5.0510 N.3    40  TYR40      -0.1227
     74  CA       -14.5750   -7.2640   -6.3230 C.3    40  TYR40       0.1736
     75  C        -15.6860   -8.3000   -6.1610 C.2    40  TYR40       0.2595
     76  O        -16.8210   -8.0680   -6.5810 O.2    40  TYR40      -0.2718
     77  CB       -13.5430   -7.7270   -7.3620 C.3    40  TYR40       0.0548
     78  CG       -14.1290   -8.3510   -8.6100 C.ar   40  TYR40      -0.0200
     79  CD1      -14.6430   -7.5570   -9.6340 C.ar   40  TYR40      -0.0009
     80  CD2      -14.1600   -9.7370   -8.7720 C.ar   40  TYR40      -0.0009
     81  CE1      -15.1790   -8.1240  -10.7830 C.ar   40  TYR40       0.0417
     82  CE2      -14.6950  -10.3130   -9.9180 C.ar   40  TYR40       0.0417
     83  CZ       -15.2030   -9.5000  -10.9190 C.ar   40  TYR40       0.1957
     84  OH       -15.7370  -10.0540  -12.0590 O.3    40  TYR40      -0.2866
     85  N        -15.3490   -9.4350   -5.5500 N.am   41  ASN41      -0.1974
     86  CA       -16.2960  -10.5300   -5.3400 C.3    41  ASN41       0.1688
     87  C        -17.4720  -10.1320   -4.4570 C.2    41  ASN41       0.2292
     88  O        -18.6060  -10.5650   -4.6810 O.2    41  ASN41      -0.2864
     89  CB       -15.5860  -11.7510   -4.7520 C.3    41  ASN41       0.1181
     90  CG       -14.7090  -12.4600   -5.7620 C.2    41  ASN41       0.2629
     91  OD1      -15.1050  -12.6770   -6.9070 O.2    41  ASN41      -0.2716
     92  ND2      -13.5090  -12.8320   -5.3390 N.am   41  ASN41      -0.0877
     93  N        -19.9290   -8.1360   -6.5660 N.3    44  ASN44      -0.1240
     94  CA       -20.7650   -9.0240   -7.3820 C.3    44  ASN44       0.1653
     95  C        -22.0330   -9.4590   -6.6590 C.2    44  ASN44       0.2266
     96  O        -23.1200   -9.4490   -7.2380 O.2    44  ASN44      -0.2867
     97  CB       -19.9740  -10.2660   -7.8150 C.3    44  ASN44       0.1155
     98  CG       -18.8460   -9.9410   -8.7730 C.2    44  ASN44       0.2627
     99  OD1      -19.0300   -9.2060   -9.7420 O.2    44  ASN44      -0.2716
    100  ND2      -17.6730  -10.5000   -8.5130 N.am   44  ASN44      -0.0877
    101  N        -24.3850   -6.5270   -6.3290 N.3    47  TYR47      -0.1227
    102  CA       -24.9040   -6.3380   -7.6860 C.3    47  TYR47       0.1736
    103  C        -26.0140   -7.3390   -7.9740 C.2    47  TYR47       0.2595
    104  O        -27.0840   -6.9640   -8.4580 O.2    47  TYR47      -0.2718
    105  CB       -23.7920   -6.4800   -8.7330 C.3    47  TYR47       0.0548
    106  CG       -24.2660   -6.2960  -10.1630 C.ar   47  TYR47      -0.0200
    107  CD1      -24.1660   -5.0600  -10.7960 C.ar   47  TYR47      -0.0009
    108  CD2      -24.8200   -7.3570  -10.8790 C.ar   47  TYR47      -0.0009
    109  CE1      -24.6060   -4.8840  -12.1010 C.ar   47  TYR47       0.0417
    110  CE2      -25.2630   -7.1890  -12.1840 C.ar   47  TYR47       0.0417
    111  CZ       -25.1510   -5.9500  -12.7900 C.ar   47  TYR47       0.1957
    112  OH       -25.5860   -5.7770  -14.0870 O.3    47  TYR47      -0.2866
    113  N        -25.7520   -8.6100   -7.6690 N.am   48  LYS48      -0.1980
    114  CA       -26.7170   -9.6750   -7.9200 C.3    48  LYS48       0.1596
    115  C        -27.9270   -9.5650   -6.9890 C.2    48  LYS48       0.2287
    116  O        -29.0390   -9.9440   -7.3650 O.2    48  LYS48      -0.2864
    117  CB       -26.0550  -11.0470   -7.8050 C.3    48  LYS48       0.0298
    118  CG       -26.4000  -11.9940   -8.9510 C.3    48  LYS48       0.0038
    119  CD       -25.4720  -11.8100  -10.1500 C.3    48  LYS48       0.0206
    120  CE       -25.8510  -12.7320  -11.3080 C.3    48  LYS48       0.1093
    121  NZ       -25.4950  -14.1610  -11.0590 N.3    48  LYS48      -0.1314
    122  N        -11.9940   -6.9330  -15.4490 N.3    71  LYS71      -0.1245
    123  CA       -13.2780   -7.5020  -15.0410 C.3    71  LYS71       0.1561
    124  C        -14.0070   -6.5620  -14.0840 C.2    71  LYS71       0.2260
    125  O        -15.2290   -6.4200  -14.1510 O.2    71  LYS71      -0.2867
    126  CB       -13.0810   -8.8670  -14.3760 C.3    71  LYS71       0.0271
    127  CG       -12.0890   -9.7790  -15.0780 C.3    71  LYS71       0.0035
    128  CD       -11.6960  -10.9540  -14.1910 C.3    71  LYS71       0.0206
    129  CE       -10.3100  -11.4930  -14.5430 C.3    71  LYS71       0.1093
    130  NZ       -10.2400  -12.0750  -15.9120 N.3    71  LYS71      -0.1314
    131  N        -15.2550   -3.5290  -16.0610 N.3    74  TYR74      -0.1227
    132  CA       -16.4170   -3.9390  -16.8450 C.3    74  TYR74       0.1736
    133  C        -17.6890   -4.0550  -16.0020 C.2    74  TYR74       0.2595
    134  O        -18.7650   -3.6350  -16.4340 O.2    74  TYR74      -0.2718
    135  CB       -16.1250   -5.2600  -17.5690 C.3    74  TYR74       0.0548
    136  CG       -17.3510   -6.0140  -18.0510 C.ar   74  TYR74      -0.0200
    137  CD1      -18.1100   -5.5480  -19.1260 C.ar   74  TYR74      -0.0009
    138  CD2      -17.7440   -7.2050  -17.4350 C.ar   74  TYR74      -0.0009
    139  CE1      -19.2320   -6.2430  -19.5690 C.ar   74  TYR74       0.0417
    140  CE2      -18.8660   -7.9070  -17.8710 C.ar   74  TYR74       0.0417
    141  CZ       -19.6030   -7.4220  -18.9380 C.ar   74  TYR74       0.1957
    142  OH       -20.7120   -8.1130  -19.3710 O.3    74  TYR74      -0.2866
    143  N        -17.5630   -4.6210  -14.8050 N.am   75  ARG75      -0.1980
    144  CA       -18.7300   -4.8900  -13.9670 C.3    75  ARG75       0.1597
    145  C        -19.2550   -3.6670  -13.2190 C.2    75  ARG75       0.2287
    146  O        -20.4400   -3.6090  -12.8870 O.2    75  ARG75      -0.2864
    147  CB       -18.4820   -6.0740  -13.0280 C.3    75  ARG75       0.0334
    148  CG       -18.4240   -7.4040  -13.7730 C.3    75  ARG75       0.0492
    149  CD       -18.8660   -8.5730  -12.9140 C.3    75  ARG75       0.2205
    150  NE       -18.8280   -9.8260  -13.6680 N.pl3  75  ARG75      -0.0865
    151  CZ       -19.1750  -11.0160  -13.1860 C.cat  75  ARG75       0.5346
    152  NH1      -19.5960  -11.1410  -11.9350 N.pl3  75  ARG75       0.1354
    153  NH2      -19.1000  -12.0890  -13.9620 N.pl3  75  ARG75       0.1354
    154  N        -21.3030   -2.3060  -15.8650 N.3    78  ASN78      -0.1240
    155  CA       -22.6010   -2.9830  -15.7770 C.3    78  ASN78       0.1653
    156  C        -23.5370   -2.3990  -14.7220 C.2    78  ASN78       0.2266
    157  O        -24.7350   -2.2520  -14.9710 O.2    78  ASN78      -0.2867
    158  CB       -22.4120   -4.4820  -15.5260 C.3    78  ASN78       0.1155
    159  CG       -21.8360   -5.2090  -16.7280 C.2    78  ASN78       0.2627
    160  OD1      -21.6270   -4.6180  -17.7900 O.2    78  ASN78      -0.2716
    161  ND2      -21.5790   -6.5010  -16.5650 N.am   78  ASN78      -0.0877
@<TRIPOS>BOND
     1   139   137   ar
     2   139   141   ar
     3   142   141    1
     4   137   136   ar
     5   141   140   ar
     6   136   135    1
     7   136   138   ar
     8   140   138   ar
     9   160   159    2
    10   135   132    1
    11   132   131    1
    12   132   133    1
    13   159   161   am
    14   159   158    1
    15   134   133    2
    16   133   143   am
    17   130   129    1
    18   154   155    1
    19   155   158    1
    20   155   156    1
    21   122   123    1
    22   127   126    1
    23   127   128    1
    24   123   126    1
    25   123   124    1
    26   157   156    2
    27   143   144    1
    28   129   128    1
    29   125   124    2
    30   112   111    1
    31   144   145    1
    32   144   147    1
    33   153   151    1
    34   148   147    1
    35   148   149    1
    36   150   151    2
    37   150   149    1
    38   145   146    2
    39   151   152    1
    40   111   110   ar
    41   111   109   ar
    42   110   108   ar
    43   109   107   ar
    44    84    83    1
    45    38    37    1
    46   120   121    1
    47   120   119    1
    48    83    81   ar
    49    83    82   ar
    50   108   106   ar
    51   107   106   ar
    52    81    79   ar
    53    37    36    1
    54   106   105    1
    55   119   118    1
    56    36    35    1
    57    82    80   ar
    58    99    98    2
    59    79    78   ar
    60    29    28    1
    61   118   117    1
    62    98   100   am
    63    98    97    1
    64    80    78   ar
    65   105   102    1
    66    78    77    1
    67    27    28   ar
    68    27    25   ar
    69    35    34    1
    70   104   103    2
    71    28    26   ar
    72    33    32    2
    73    54    53    1
    74   103   102    1
    75   103   113   am
    76   114   117    1
    77   114   113    1
    78   114   115    1
    79    34    31    1
    80    97    94    1
    81   102   101    1
    82    25    23   ar
    83    31    32    1
    84    31    30    1
    85    94    95    1
    86    94    93    1
    87   116   115    2
    88    77    74    1
    89    96    95    2
    90    26    24   ar
    91    53    52   ar
    92    53    51   ar
    93    91    90    2
    94    76    75    2
    95    52    50   ar
    96    21    20    2
    97    74    75    1
    98    74    73    1
    99    30    20   am
   100    72    71    1
   101    23    24   ar
   102    23    22    1
   103    75    85   am
   104    39    40    1
   105    40    41    1
   106    51    49   ar
   107    20    19    1
   108    90    92   am
   109    90    89    1
   110    71    68    1
   111    85    86    1
   112    68    67    1
   113    68    69    1
   114    86    89    1
   115    86    87    1
   116    13    12    2
   117    50    48   ar
   118    16    15    2
   119    17    15   am
   120    22    19    1
   121    15    14    1
   122     9     8    1
   123    14    11    1
   124    70    69    2
   125    42    41    2
   126    49    48   ar
   127    88    87    2
   128    19    18    1
   129    48    47    1
   130    12    11    1
   131    11    10    1
   132    66    65    1
   133     8     7    1
   134     7     6    1
   135    47    44    1
   136    65    63   ar
   137    65    64   ar
   138     6     5    1
   139    63    61   ar
   140    64    62   ar
   141    43    44    1
   142    44    45    1
   143     4     3    2
   144    61    60   ar
   145     3     2    1
   146     5     2    1
   147    62    60   ar
   148    60    59    1
   149    45    46    2
   150     2     1    1
   151    59    56    1
   152    56    55    1
   153    56    57    1
   154    58    57    2
