@<TRIPOS>MOLECULE
tmp/3kdbB00.pdb
 122 115 0 0 0
SMALL
GASTEIGER

@<TRIPOS>ATOM
      1  N         20.5080   34.1700   24.4740 N.3     8  ARG8       -0.1245
      2  CA        19.7900   32.8940   24.6780 C.3     8  ARG8        0.1563
      3  C         18.8720   32.9600   25.9090 C.2     8  ARG8        0.2260
      4  O         19.2880   33.4400   26.9620 O.2     8  ARG8       -0.2867
      5  CB        20.7870   31.7480   24.8340 C.3     8  ARG8        0.0307
      6  CG        21.6010   31.4960   23.5900 C.3     8  ARG8        0.0489
      7  CD        22.6110   30.3750   23.7590 C.3     8  ARG8        0.2205
      8  NE        23.2140   30.1080   22.4530 N.pl3   8  ARG8       -0.0865
      9  CZ        24.4050   29.5390   22.2670 C.cat   8  ARG8        0.5346
     10  NH1       25.1480   29.1670   23.3070 N.pl3   8  ARG8        0.1354
     11  NH2       24.8570   29.3470   21.0310 N.pl3   8  ARG8        0.1354
     12  N         17.4800   25.9580   28.3880 N.3    23  LEU23      -0.1245
     13  CA        17.0590   26.9010   27.3630 C.3    23  LEU23       0.1561
     14  C         15.5440   26.7990   27.1230 C.2    23  LEU23       0.2260
     15  O         15.0260   25.7020   26.8730 O.2    23  LEU23      -0.2867
     16  CB        17.8030   26.5610   26.0860 C.3    23  LEU23       0.0270
     17  CG        17.6890   27.4860   24.8730 C.3    23  LEU23       0.0019
     18  CD1       18.4900   28.7430   25.0860 C.3    23  LEU23       0.0001
     19  CD2       18.2050   26.7560   23.6490 C.3    23  LEU23       0.0001
     20  N         12.8330   26.7320   24.8270 N.3    25  ASP25      -0.1239
     21  CA        12.9550   26.3990   23.4050 C.3    25  ASP25       0.1674
     22  C         11.6350   26.1040   22.6900 C.2    25  ASP25       0.2266
     23  O         11.1420   24.9710   22.7320 O.2    25  ASP25      -0.2867
     24  CB        13.9030   25.2080   23.2540 C.3    25  ASP25       0.1410
     25  CG        14.2000   24.8790   21.7970 C.2    25  ASP25       0.3668
     26  OD1       13.6020   25.5010   20.8760 O.co2  25  ASP25      -0.2456
     27  OD2       15.0480   23.9780   21.5800 O.co2  25  ASP25      -0.2456
     28  N         10.9670   25.7230   19.6760 N.3    27  GLY27      -0.1210
     29  CA        11.1220   24.8220   18.5310 C.3    27  GLY27       0.1956
     30  C         11.1810   23.3620   18.9690 C.2    27  GLY27       0.2612
     31  O         11.2820   22.4720   18.1230 O.2    27  GLY27      -0.2717
     32  N         11.1640   23.1140   20.2850 N.am   28  ALA28      -0.1965
     33  CA        11.2130   21.7510   20.8120 C.3    28  ALA28       0.1728
     34  C          9.8210   21.3000   21.2570 C.2    28  ALA28       0.2616
     35  O          9.1950   21.9540   22.0840 O.2    28  ALA28      -0.2715
     36  CB        12.1960   21.6670   21.9950 C.3    28  ALA28       0.0334
     37  N          9.3370   20.1720   20.7290 N.am   29  ASP29      -0.1957
     38  CA         8.0240   19.6610   21.1680 C.3    29  ASP29       0.1840
     39  C          8.0720   19.2330   22.6200 C.2    29  ASP29       0.2622
     40  O          7.0950   19.3900   23.3650 O.2    29  ASP29      -0.2715
     41  CB         7.5920   18.4340   20.3660 C.3    29  ASP29       0.1450
     42  CG         7.3230   18.7350   18.9060 C.2    29  ASP29       0.3671
     43  OD1        7.3800   19.9150   18.4830 O.co2  29  ASP29      -0.2456
     44  OD2        7.0380   17.7450   18.1960 O.co2  29  ASP29      -0.2456
     45  N          9.2210   18.6730   23.0060 N.am   30  ASP30      -0.1971
     46  CA         9.3950   18.0060   24.3000 C.3    30  ASP30       0.1709
     47  C         10.6130   18.5850   25.0070 C.2    30  ASP30       0.2293
     48  O         11.3810   19.3730   24.4370 O.2    30  ASP30      -0.2864
     49  CB         9.6380   16.4960   24.1140 C.3    30  ASP30       0.1436
     50  CG         8.6010   15.8160   23.2230 C.2    30  ASP30       0.3671
     51  OD1        7.3900   16.0580   23.3720 O.co2  30  ASP30      -0.2456
     52  OD2        9.0240   15.0070   22.3800 O.co2  30  ASP30      -0.2456
     53  N         14.1910   18.0860   26.9890 N.3    32  VAL32      -0.1245
     54  CA        15.3080   17.1330   26.9780 C.3    32  VAL32       0.1561
     55  C         16.4350   17.6460   27.8500 C.2    32  VAL32       0.2260
     56  O         16.8510   18.7960   27.7180 O.2    32  VAL32      -0.2867
     57  CB        15.8630   16.8480   25.5470 C.3    32  VAL32       0.0252
     58  CG1       16.8100   15.6150   25.5820 C.3    32  VAL32       0.0019
     59  CG2       14.7460   16.6050   24.5730 C.3    32  VAL32       0.0019
     60  N         12.3580    6.7410   23.1460 N.3    45  LYS45      -0.1231
     61  CA        11.8840    7.7570   22.2220 C.3    45  LYS45       0.1693
     62  C         13.0030    8.1940   21.3060 C.2    45  LYS45       0.2592
     63  O         14.1590    8.3180   21.7230 O.2    45  LYS45      -0.2718
     64  CB        11.3080    8.9730   22.9610 C.3    45  LYS45       0.0285
     65  CG        10.5740    9.9850   22.0410 C.3    45  LYS45       0.0035
     66  CD         9.1640    9.4970   21.6710 C.3    45  LYS45       0.0206
     67  CE         8.3910   10.4710   20.7730 C.3    45  LYS45       0.1093
     68  NZ         7.8480   11.6700   21.4680 N.3    45  LYS45      -0.1314
     69  N         12.6340    8.4170   20.0520 N.am   46  MET46      -0.1965
     70  CA        13.5130    9.0260   19.0760 C.3    46  MET46       0.1736
     71  C         13.1000   10.4790   18.9190 C.2    46  MET46       0.2616
     72  O         11.9080   10.7920   18.8940 O.2    46  MET46      -0.2715
     73  CB        13.4050    8.3060   17.7280 C.3    46  MET46       0.0427
     74  CG        13.9350    6.8680   17.7260 C.3    46  MET46       0.0599
     75  SD        15.6390    6.7240   18.2970 S.3    46  MET46      -0.1393
     76  CE        16.5130    7.7790   17.1260 C.3    46  MET46       0.0692
     77  N         14.0840   11.3690   18.8540 N.am   47  ILE47      -0.1963
     78  CA        13.8020   12.7920   18.5790 C.3    47  ILE47       0.1727
     79  C         14.7560   13.3470   17.5250 C.2    47  ILE47       0.2617
     80  O         15.9620   13.0420   17.5350 O.2    47  ILE47      -0.2715
     81  CB        13.8200   13.6800   19.8700 C.3    47  ILE47       0.0290
     82  CG1       15.2170   13.6920   20.5430 C.3    47  ILE47       0.0022
     83  CG2       12.6780   13.2790   20.8260 C.3    47  ILE47       0.0023
     84  CD1       15.3950   14.6590   21.7040 C.3    47  ILE47       0.0001
     85  N         14.2080   14.1530   16.6240 N.am   48  GLY48      -0.1940
     86  CA        14.9640   14.6450   15.4700 C.3    48  GLY48       0.2014
     87  C         15.1940   16.1330   15.5540 C.2    48  GLY48       0.2639
     88  O         14.2390   16.9060   15.7630 O.2    48  GLY48      -0.2714
     89  N         16.4600   16.5150   15.3720 N.am   49  GLY49      -0.1939
     90  CA        16.9210   17.9000   15.4740 C.3    49  GLY49       0.2014
     91  C         17.6300   18.3270   14.2040 C.2    49  GLY49       0.2638
     92  O         17.5150   17.6890   13.1360 O.2    49  GLY49      -0.2714
     93  N         18.3620   19.4300   14.3080 N.am   50  ILE50      -0.1977
     94  CA        18.9780   19.9840   13.1140 C.3    50  ILE50       0.1596
     95  C         19.9870   18.9890   12.5430 C.2    50  ILE50       0.2287
     96  O         20.1390   18.8740   11.3310 O.2    50  ILE50      -0.2864
     97  CB        19.6300   21.3580   13.3980 C.3    50  ILE50       0.0276
     98  CG1       19.8320   22.1320   12.1010 C.3    50  ILE50       0.0022
     99  CG2       20.9130   21.2380   14.2210 C.3    50  ILE50       0.0022
    100  CD1       18.6890   23.0970   11.8200 C.3    50  ILE50       0.0001
    101  N         22.7980   18.5230   23.2600 N.3    81  PRO81      -0.2102
    102  CA        23.8860   19.4990   23.4190 C.3    81  PRO81       0.1504
    103  C         23.6750   20.5030   24.5490 C.2    81  PRO81       0.2575
    104  O         24.6440   20.9810   25.1270 O.2    81  PRO81      -0.2718
    105  CB        23.9320   20.2140   22.0630 C.3    81  PRO81       0.0282
    106  CG        22.6570   19.9110   21.4280 C.3    81  PRO81       0.0208
    107  CD        22.1780   18.6010   21.9250 C.3    81  PRO81       0.0893
    108  N         22.4140   20.8410   24.8410 N.am   82  VAL82      -0.1980
    109  CA        22.0860   21.7070   25.9740 C.3    82  VAL82       0.1595
    110  C         20.7340   21.2750   26.5570 C.2    82  VAL82       0.2287
    111  O         19.9190   20.7050   25.8510 O.2    82  VAL82      -0.2864
    112  CB        22.0010   23.2040   25.5730 C.3    82  VAL82       0.0276
    113  CG1       23.3540   23.7530   25.0630 C.3    82  VAL82       0.0022
    114  CG2       20.9460   23.4010   24.5490 C.3    82  VAL82       0.0022
    115  N         17.0470   21.5360   27.4100 N.3    84  ILE84      -0.1245
    116  CA        16.0320   22.2440   26.6440 C.3    84  ILE84       0.1561
    117  C         14.6850   22.0850   27.3220 C.2    84  ILE84       0.2260
    118  O         14.2970   20.9580   27.6520 O.2    84  ILE84      -0.2867
    119  CB        15.9500   21.6450   25.2190 C.3    84  ILE84       0.0252
    120  CG1       17.2310   21.9600   24.4370 C.3    84  ILE84       0.0019
    121  CG2       14.7050   22.1230   24.4830 C.3    84  ILE84       0.0019
    122  CD1       17.5140   20.9610   23.3050 C.3    84  ILE84       0.0001
@<TRIPOS>BOND
     1    96    95    2
     2   100    98    1
     3    98    97    1
     4    95    94    1
     5    94    97    1
     6    94    93    1
     7    92    91    2
     8    97    99    1
     9    91    93   am
    10    91    90    1
    11    89    90    1
    12    89    87   am
    13    86    87    1
    14    86    85    1
    15    87    88    2
    16    85    79   am
    17    76    75    1
    18    79    80    2
    19    79    78    1
    20    74    73    1
    21    74    75    1
    22    73    70    1
    23    31    30    2
    24    44    42   ar
    25    43    42   ar
    26    29    30    1
    27    29    28    1
    28    78    77    1
    29    78    81    1
    30    77    71   am
    31    72    71    2
    32    42    41    1
    33    71    70    1
    34    30    32   am
    35    70    69    1
    36    81    82    1
    37    81    83    1
    38    69    62   am
    39    32    33    1
    40    41    38    1
    41    82    84    1
    42    37    38    1
    43    37    34   am
    44    67    68    1
    45    67    66    1
    46    33    34    1
    47    33    36    1
    48    26    25   ar
    49    11     9    1
    50    38    39    1
    51    34    35    2
    52    62    63    2
    53    62    61    1
    54   106   107    1
    55   106   105    1
    56    27    25   ar
    57    66    65    1
    58    25    24    1
    59   107   101    1
    60    65    64    1
    61   105   102    1
    62    61    64    1
    63    61    60    1
    64     9     8    2
    65     9    10    1
    66    52    50   ar
    67     8     7    1
    68    39    45   am
    69    39    40    2
    70    22    23    2
    71    22    21    1
    72    45    46    1
    73    50    51   ar
    74    50    49    1
    75    24    21    1
    76   101   102    1
    77   122   120    1
    78    21    20    1
    79   102   103    1
    80     6     7    1
    81     6     5    1
    82    19    17    1
    83    49    46    1
    84    46    47    1
    85   120   119    1
    86    48    47    2
    87     1     2    1
    88   121   119    1
    89   114   112    1
    90   103   108   am
    91   103   104    2
    92    59    57    1
    93     2     5    1
    94     2     3    1
    95   108   109    1
    96    17    18    1
    97    17    16    1
    98   113   112    1
    99   119   116    1
   100    57    58    1
   101    57    54    1
   102   112   109    1
   103   111   110    2
   104     3     4    2
   105   109   110    1
   106    16    13    1
   107   116   117    1
   108   116   115    1
   109    15    14    2
   110    54    53    1
   111    54    55    1
   112    14    13    1
   113   117   118    2
   114    13    12    1
   115    56    55    2
