@<TRIPOS>MOLECULE
tmp/3kdmD00.pdb
 108 106 0 0 0
SMALL
GASTEIGER

@<TRIPOS>ATOM
      1  N         62.8340  -24.8150    4.8930 N.3    32  ALA32      -0.1231
      2  CA        62.9810  -23.3770    4.6070 C.3    32  ALA32       0.1694
      3  C         61.6980  -22.8330    3.9760 C.2    32  ALA32       0.2592
      4  O         60.9780  -23.5760    3.3000 O.2    32  ALA32      -0.2718
      5  CB        64.1760  -23.1070    3.6800 C.3    32  ALA32       0.0304
      6  N         61.4360  -21.5450    4.1750 N.am   33  MET33      -0.1965
      7  CA        60.1980  -20.9330    3.6680 C.3    33  MET33       0.1736
      8  C         60.4480  -19.7520    2.7670 C.2    33  MET33       0.2617
      9  O         61.4030  -18.9760    2.9470 O.2    33  MET33      -0.2715
     10  CB        59.2630  -20.4950    4.8050 C.3    33  MET33       0.0427
     11  CG        58.7340  -21.6100    5.6000 C.3    33  MET33       0.0599
     12  SD        57.5910  -22.5670    4.6310 S.3    33  MET33      -0.1393
     13  CE        56.2830  -21.3810    4.3280 C.3    33  MET33       0.0692
     14  N         59.5430  -19.5840    1.8100 N.am   34  SER34      -0.1950
     15  CA        59.6800  -18.5070    0.8590 C.3    34  SER34       0.1924
     16  C         58.3910  -17.7160    0.6980 C.2    34  SER34       0.2314
     17  O         57.3090  -18.2370    0.9420 O.2    34  SER34      -0.2863
     18  CB        60.1030  -19.0900   -0.4880 C.3    34  SER34       0.2116
     19  OG        60.3460  -18.0520   -1.4250 O.3    34  SER34      -0.2180
     20  N         60.7710  -13.7380   -6.8850 N.3    46  TRP46      -0.1241
     21  CA        61.1010  -14.2140   -5.5390 C.3    46  TRP46       0.1605
     22  C         61.3110  -13.0330   -4.5450 C.2    46  TRP46       0.2264
     23  O         61.9030  -12.0110   -4.8850 O.2    46  TRP46      -0.2867
     24  CB        62.3270  -15.1300   -5.5510 C.3    46  TRP46       0.0550
     25  CG        62.7540  -15.4880   -4.1860 C.ar   46  TRP46       0.0003
     26  CD1       62.1670  -16.3980   -3.3520 C.ar   46  TRP46       0.0946
     27  CD2       63.8620  -14.9310   -3.4670 C.ar   46  TRP46       0.0152
     28  NE1       62.8590  -16.4540   -2.1590 N.ar   46  TRP46      -0.2442
     29  CE2       63.8940  -15.5610   -2.2080 C.ar   46  TRP46       0.0810
     30  CE3       64.8200  -13.9550   -3.7680 C.ar   46  TRP46       0.0012
     31  CZ2       64.8640  -15.2350   -1.2370 C.ar   46  TRP46       0.0191
     32  CZ3       65.7850  -13.6320   -2.7940 C.ar   46  TRP46       0.0001
     33  CH2       65.8030  -14.2820   -1.5590 C.ar   46  TRP46       0.0015
     34  N         63.1440  -15.5840    1.9560 N.3    49  ALA49      -0.1231
     35  CA        63.1520  -16.9430    2.5100 C.3    49  ALA49       0.1694
     36  C         63.6990  -17.0430    3.9460 C.2    49  ALA49       0.2592
     37  O         64.4300  -16.1620    4.4060 O.2    49  ALA49      -0.2718
     38  CB        63.9050  -17.9060    1.5630 C.3    49  ALA49       0.0304
     39  N         63.3410  -18.1220    4.6460 N.am   50  ILE50      -0.1966
     40  CA        63.7590  -18.3280    6.0440 C.3    50  ILE50       0.1727
     41  C         64.0540  -19.8100    6.3110 C.2    50  ILE50       0.2616
     42  O         63.3200  -20.6840    5.8230 O.2    50  ILE50      -0.2715
     43  CB        62.6740  -17.7810    7.0430 C.3    50  ILE50       0.0290
     44  CG1       63.0480  -18.0160    8.5030 C.3    50  ILE50       0.0022
     45  CG2       61.2940  -18.4300    6.7760 C.3    50  ILE50       0.0023
     46  CD1       62.0020  -17.4580    9.4580 C.3    50  ILE50       0.0001
     47  N         65.1430  -20.0760    7.0570 N.am   51  SER51      -0.1950
     48  CA        65.5610  -21.4270    7.4350 C.3    51  SER51       0.1924
     49  C         64.5320  -22.1220    8.3110 C.2    51  SER51       0.2314
     50  O         63.6910  -21.4740    8.9370 O.2    51  SER51      -0.2863
     51  CB        66.9120  -21.3890    8.1720 C.3    51  SER51       0.2116
     52  OG        66.7290  -21.1490    9.5610 O.3    51  SER51      -0.2180
     53  N         66.8410  -13.4550    3.5810 N.3    58  TYR58      -0.1241
     54  CA        67.3330  -12.9070    2.3050 C.3    58  TYR58       0.1605
     55  C         66.2730  -12.1590    1.5380 C.2    58  TYR58       0.2264
     56  O         65.0840  -12.4180    1.6970 O.2    58  TYR58      -0.2867
     57  CB        67.8210  -14.0420    1.4040 C.3    58  TYR58       0.0534
     58  CG        68.7530  -14.9690    2.1200 C.ar   58  TYR58      -0.0201
     59  CD1       70.1390  -14.8200    1.9970 C.ar   58  TYR58      -0.0009
     60  CD2       68.2540  -15.9860    2.9430 C.ar   58  TYR58      -0.0009
     61  CE1       71.0190  -15.6680    2.6820 C.ar   58  TYR58       0.0417
     62  CE2       69.1170  -16.8330    3.6280 C.ar   58  TYR58       0.0417
     63  CZ        70.4950  -16.6740    3.4930 C.ar   58  TYR58       0.1957
     64  OH        71.3590  -17.5070    4.1800 O.3    58  TYR58      -0.2866
     65  N         60.3370  -24.8270    0.6010 N.3    98  ASP98      -0.1239
     66  CA        61.2760  -25.7240   -0.0770 C.3    98  ASP98       0.1674
     67  C         61.3180  -27.0290    0.7150 C.2    98  ASP98       0.2266
     68  O         61.5680  -26.9960    1.9240 O.2    98  ASP98      -0.2867
     69  CB        62.6900  -25.1040   -0.1460 C.3    98  ASP98       0.1410
     70  CG        63.6510  -25.9140   -1.0050 C.2    98  ASP98       0.3668
     71  OD1       63.9250  -27.0860   -0.6810 O.co2  98  ASP98      -0.2456
     72  OD2       64.1460  -25.3810   -2.0220 O.co2  98  ASP98      -0.2456
     73  N         68.5490  -28.2670    0.3300 N.3   104  TYR104     -0.1241
     74  CA        67.4980  -27.5680   -0.3970 C.3   104  TYR104      0.1605
     75  C         67.3510  -28.1350   -1.8000 C.2   104  TYR104      0.2264
     76  O         68.3220  -28.5880   -2.3930 O.2   104  TYR104     -0.2867
     77  CB        67.8210  -26.0800   -0.4820 C.3   104  TYR104      0.0534
     78  CG        68.0120  -25.3740    0.8360 C.ar  104  TYR104     -0.0201
     79  CD1       69.2520  -24.8820    1.2210 C.ar  104  TYR104     -0.0009
     80  CD2       66.9490  -25.1750    1.6880 C.ar  104  TYR104     -0.0009
     81  CE1       69.4130  -24.2090    2.4580 C.ar  104  TYR104      0.0417
     82  CE2       67.0930  -24.5310    2.9010 C.ar  104  TYR104      0.0417
     83  CZ        68.3210  -24.0320    3.2910 C.ar  104  TYR104      0.1957
     84  OH        68.4300  -23.3700    4.5210 O.3   104  TYR104     -0.2866
     85  N         66.0410  -26.1580   -4.0940 N.3   106  TYR106     -0.1227
     86  CA        65.8540  -24.9560   -4.8920 C.3   106  TYR106      0.1736
     87  C         64.6230  -25.0850   -5.7810 C.2   106  TYR106      0.2596
     88  O         64.6470  -24.7090   -6.9400 O.2   106  TYR106     -0.2718
     89  CB        67.1180  -24.6250   -5.6960 C.3   106  TYR106      0.0548
     90  CG        68.2520  -24.3380   -4.7740 C.ar  106  TYR106     -0.0200
     91  CD1       69.0380  -25.3780   -4.2680 C.ar  106  TYR106     -0.0009
     92  CD2       68.4970  -23.0450   -4.3410 C.ar  106  TYR106     -0.0009
     93  CE1       70.0840  -25.1330   -3.3940 C.ar  106  TYR106      0.0417
     94  CE2       69.5630  -22.7790   -3.4390 C.ar  106  TYR106      0.0417
     95  CZ        70.3400  -23.8360   -2.9760 C.ar  106  TYR106      0.1957
     96  OH        71.3960  -23.6120   -2.1060 O.3   106  TYR106     -0.2866
     97  N         63.5650  -25.6420   -5.1970 N.am  107  GLY107     -0.1942
     98  CA        62.2510  -25.7280   -5.8010 C.3   107  GLY107      0.2014
     99  C         61.2650  -25.6820   -4.6390 C.2   107  GLY107      0.2638
    100  O         61.5300  -26.2250   -3.5580 O.2   107  GLY107     -0.2714
    101  N         60.1240  -25.0260   -4.8490 N.am  108  MET108     -0.1976
    102  CA        59.1110  -24.8860   -3.8070 C.3   108  MET108      0.1605
    103  C         57.9270  -25.7570   -4.1690 C.2   108  MET108      0.2287
    104  O         57.3450  -25.5740   -5.2390 O.2   108  MET108     -0.2864
    105  CB        58.6950  -23.4170   -3.6980 C.3   108  MET108      0.0413
    106  CG        59.7790  -22.5630   -3.0420 C.3   108  MET108      0.0598
    107  SD        59.6030  -20.8240   -3.3170 S.3   108  MET108     -0.1393
    108  CE        60.2730  -20.6880   -4.9670 C.3   108  MET108      0.0692
@<TRIPOS>BOND
     1    88    87    2
     2    20    21    1
     3    98    97    1
     4    98    99    1
     5    87    97   am
     6    87    86    1
     7    89    86    1
     8    89    90    1
     9    24    21    1
    10    24    25    1
    11    21    22    1
    12   104   103    2
    13   108   107    1
    14    86    85    1
    15    23    22    2
    16   101    99   am
    17   101   102    1
    18    90    92   ar
    19    90    91   ar
    20    99   100    2
    21    92    94   ar
    22    91    93   ar
    23    25    27   ar
    24    25    26   ar
    25   103   102    1
    26   102   105    1
    27    30    27   ar
    28    30    32   ar
    29   105   106    1
    30    27    29   ar
    31    94    95   ar
    32    93    95   ar
    33    26    28   ar
    34   107   106    1
    35    95    96    1
    36    32    33   ar
    37    76    75    2
    38    29    28   ar
    39    29    31   ar
    40    72    70   ar
    41    75    74    1
    42    33    31   ar
    43    19    18    1
    44    70    71   ar
    45    70    69    1
    46    18    15    1
    47    77    74    1
    48    77    78    1
    49    74    73    1
    50    69    66    1
    51    66    65    1
    52    66    67    1
    53    16    15    1
    54    16    17    2
    55    67    68    2
    56    78    79   ar
    57    78    80   ar
    58    15    14    1
    59    79    81   ar
    60    57    58    1
    61    57    54    1
    62    55    56    2
    63    55    54    1
    64    38    35    1
    65    80    82   ar
    66    14     8   am
    67    34    35    1
    68    59    58   ar
    69    59    61   ar
    70    58    60   ar
    71    54    53    1
    72    81    83   ar
    73    35    36    1
    74    61    63   ar
    75     8     9    2
    76     8     7    1
    77    82    83   ar
    78    60    62   ar
    79    83    84    1
    80     4     3    2
    81    63    62   ar
    82    63    64    1
    83     7     6    1
    84     7    10    1
    85     5     2    1
    86    36    37    2
    87    36    39   am
    88     3     6   am
    89     3     2    1
    90    13    12    1
    91     2     1    1
    92    12    11    1
    93    39    40    1
    94    10    11    1
    95    42    41    2
    96    40    41    1
    97    40    43    1
    98    41    47   am
    99    45    43    1
   100    43    44    1
   101    47    48    1
   102    48    51    1
   103    48    49    1
   104    51    52    1
   105    49    50    2
   106    44    46    1
