@<TRIPOS>MOLECULE
tmp/3kdpD00.pdb
 79 72 0 0 0
SMALL
GASTEIGER

@<TRIPOS>ATOM
      1  N        -12.9600 -107.4170   85.2120 N.3   759  ILE759     -0.1245
      2  CA       -13.6830 -108.3860   86.0290 C.3   759  ILE759      0.1561
      3  C        -13.4760 -108.2180   87.5450 C.2   759  ILE759      0.2260
      4  O        -14.4570 -108.1800   88.2960 O.2   759  ILE759     -0.2867
      5  CB       -13.4080 -109.8250   85.5870 C.3   759  ILE759      0.0252
      6  CG1      -14.3010 -110.1480   84.3990 C.3   759  ILE759      0.0019
      7  CG2      -13.6430 -110.7920   86.7500 C.3   759  ILE759      0.0019
      8  CD1      -15.5830 -109.3950   84.4580 C.3   759  ILE759      0.0001
      9  N        -17.0100 -107.6380   90.2090 N.3   763  THR763     -0.1218
     10  CA       -17.3530 -108.5630   91.2860 C.3   763  THR763      0.1862
     11  C        -17.3740 -107.9680   92.7140 C.2   763  THR763      0.2287
     12  O        -18.2170 -108.3530   93.5290 O.2   763  THR763     -0.2866
     13  CB       -16.5130 -109.8400   91.2280 C.3   763  THR763      0.1770
     14  OG1      -15.2090 -109.5220   90.7500 O.3   763  THR763     -0.2211
     15  CG2      -17.1420 -110.8210   90.2750 C.3   763  THR763      0.0375
     16  N        -20.3970 -106.4850   93.1470 N.3   766  LEU766     -0.1245
     17  CA       -21.3790 -107.5390   92.9130 C.3   766  LEU766      0.1561
     18  C        -21.6560 -108.3110   94.1910 C.2   766  LEU766      0.2260
     19  O        -22.7900 -108.6910   94.4610 O.2   766  LEU766     -0.2867
     20  CB       -20.9260 -108.4830   91.7890 C.3   766  LEU766      0.0270
     21  CG       -21.5540 -108.3670   90.3850 C.3   766  LEU766      0.0019
     22  CD1      -22.2450 -109.6800   90.0110 C.3   766  LEU766      0.0001
     23  CD2      -22.5140 -107.1620   90.1830 C.3   766  LEU766      0.0001
     24  N        -16.4420 -113.8910   70.6030 N.3   822  GLU822     -0.1245
     25  CA       -16.7870 -114.9260   71.5530 C.3   822  GLU822      0.1567
     26  C        -15.5110 -115.4420   72.1920 C.2   822  GLU822      0.2260
     27  O        -15.3140 -115.2880   73.3870 O.2   822  GLU822     -0.2867
     28  CB       -17.5860 -116.0440   70.8580 C.3   822  GLU822      0.0388
     29  CG       -16.8110 -116.8620   69.8260 C.3   822  GLU822      0.1160
     30  CD       -17.3170 -116.6750   68.4140 C.2   822  GLU822      0.3649
     31  OE1      -18.0650 -115.7060   68.1730 O.co2 822  GLU822     -0.2457
     32  OE2      -16.9630 -117.4990   67.5440 O.co2 822  GLU822     -0.2457
     33  N        -13.8740 -112.6470   74.5780 N.3   825  ILE825     -0.1231
     34  CA       -14.5690 -112.3270   75.8230 C.3   825  ILE825      0.1692
     35  C        -14.5150 -113.5190   76.7890 C.2   825  ILE825      0.2592
     36  O        -14.3680 -113.3560   77.9980 O.2   825  ILE825     -0.2718
     37  CB       -16.0190 -111.9210   75.5860 C.3   825  ILE825      0.0266
     38  CG1      -16.0940 -110.5950   74.8290 C.3   825  ILE825      0.0019
     39  CG2      -16.7020 -111.7930   76.9210 C.3   825  ILE825      0.0020
     40  CD1      -15.4900 -109.4160   75.5890 C.3   825  ILE825      0.0001
     41  N        -14.6200 -114.7150   76.2180 N.am  826  SER826     -0.1952
     42  CA       -14.4840 -115.9770   76.9370 C.3   826  SER826      0.1924
     43  C        -13.1900 -116.0450   77.7480 C.2   826  SER826      0.2314
     44  O        -12.9750 -116.9880   78.5200 O.2   826  SER826     -0.2863
     45  CB       -14.5350 -117.1400   75.9320 C.3   826  SER826      0.2116
     46  OG       -14.1710 -118.3730   76.5310 O.3   826  SER826     -0.2180
     47  N        -12.9540 -112.0370   80.3520 N.3   829  TYR829     -0.1227
     48  CA       -14.0650 -112.0420   81.2960 C.3   829  TYR829      0.1736
     49  C        -14.1930 -113.4300   81.9550 C.2   829  TYR829      0.2596
     50  O        -13.9990 -113.5770   83.1620 O.2   829  TYR829     -0.2718
     51  CB       -15.3580 -111.6340   80.5720 C.3   829  TYR829      0.0548
     52  CG       -15.6250 -110.1460   80.5660 C.ar  829  TYR829     -0.0200
     53  CD1      -14.6240 -109.2300   80.8640 C.ar  829  TYR829     -0.0009
     54  CD2      -16.8840 -109.6580   80.2690 C.ar  829  TYR829     -0.0009
     55  CE1      -14.8710 -107.8590   80.8670 C.ar  829  TYR829      0.0417
     56  CE2      -17.1510 -108.2960   80.2730 C.ar  829  TYR829      0.0417
     57  CZ       -16.1420 -107.3940   80.5730 C.ar  829  TYR829      0.1957
     58  OH       -16.4290 -106.0340   80.5720 O.3   829  TYR829     -0.2866
     59  N        -14.4890 -114.4470   81.1500 N.am  830  GLY830     -0.1957
     60  CA       -14.6770 -115.7970   81.6550 C.3   830  GLY830      0.1869
     61  C        -13.4900 -116.4540   82.3500 C.2   830  GLY830      0.2309
     62  O        -13.6770 -117.3250   83.1960 O.2   830  GLY830     -0.2863
     63  N        -11.6090 -113.7020   86.0650 N.3   834  MET834     -0.1245
     64  CA       -11.9300 -114.2810   87.3680 C.3   834  MET834      0.1570
     65  C        -10.6780 -114.4100   88.2080 C.2   834  MET834      0.2261
     66  O        -10.5880 -113.8200   89.2710 O.2   834  MET834     -0.2867
     67  CB       -12.5930 -115.6530   87.2270 C.3   834  MET834      0.0387
     68  CG       -14.0340 -115.5670   86.7680 C.3   834  MET834      0.0595
     69  SD       -14.8070 -114.0480   87.3790 S.3   834  MET834     -0.1393
     70  CE       -16.4990 -114.2510   86.8280 C.3   834  MET834      0.0692
     71  N        -11.3610 -122.2840   71.1810 N.3   995  GLU995     -0.1245
     72  CA       -11.9130 -121.6440   72.3600 C.3   995  GLU995      0.1567
     73  C        -11.1000 -120.4720   72.9220 C.2   995  GLU995      0.2260
     74  O        -11.6720 -119.5500   73.4870 O.2   995  GLU995     -0.2867
     75  CB       -12.2020 -122.6920   73.4400 C.3   995  GLU995      0.0388
     76  CG       -13.4980 -123.4640   73.2240 C.3   995  GLU995      0.1160
     77  CD       -14.7280 -122.5750   73.3160 C.2   995  GLU995      0.3649
     78  OE1      -14.5830 -121.4200   73.7870 O.co2 995  GLU995     -0.2457
     79  OE2      -15.8340 -123.0260   72.9160 O.co2 995  GLU995     -0.2457
@<TRIPOS>BOND
     1    32    30   ar
     2    31    30   ar
     3    30    29    1
     4    29    28    1
     5    24    25    1
     6    28    25    1
     7    71    72    1
     8    25    26    1
     9    26    27    2
    10    72    73    1
    11    72    75    1
    12    79    77   ar
    13    73    74    2
    14    76    77    1
    15    76    75    1
    16    77    78   ar
    17    33    34    1
    18    38    37    1
    19    38    40    1
    20    37    34    1
    21    37    39    1
    22    34    35    1
    23    45    46    1
    24    45    42    1
    25    41    35   am
    26    41    42    1
    27    35    36    2
    28    42    43    1
    29    43    44    2
    30    54    56   ar
    31    54    52   ar
    32    56    57   ar
    33    47    48    1
    34    52    51    1
    35    52    53   ar
    36    51    48    1
    37    58    57    1
    38    57    55   ar
    39    53    55   ar
    40    59    60    1
    41    59    49   am
    42    48    49    1
    43    60    61    1
    44    49    50    2
    45    61    62    2
    46     6     8    1
    47     6     5    1
    48     1     2    1
    49     5     2    1
    50     5     7    1
    51     2     3    1
    52    63    64    1
    53    68    67    1
    54    68    69    1
    55    70    69    1
    56    67    64    1
    57    64    65    1
    58     3     4    2
    59    65    66    2
    60    22    21    1
    61    23    21    1
    62     9    10    1
    63    15    13    1
    64    21    20    1
    65    14    13    1
    66    13    10    1
    67    10    11    1
    68    20    17    1
    69    11    12    2
    70    17    16    1
    71    17    18    1
    72    18    19    2
