@<TRIPOS>MOLECULE
tmp/3kdsA00.pdb
 145 140 0 0 0
SMALL
GASTEIGER

@<TRIPOS>ATOM
      1  N         42.8740   12.2570   33.0760 N.3   246  LEU246     -0.1245
      2  CA        42.7350   11.2280   32.0690 C.3   246  LEU246      0.1561
      3  C         43.6310   11.4850   30.8880 C.2   246  LEU246      0.2260
      4  O         43.9380   12.6320   30.5400 O.2   246  LEU246     -0.2867
      5  CB        41.2750   11.0630   31.6330 C.3   246  LEU246      0.0270
      6  CG        40.5390   12.3460   31.2350 C.3   246  LEU246      0.0019
      7  CD1       41.2040   12.9890   30.0510 C.3   246  LEU246      0.0001
      8  CD2       39.0600   12.0970   30.9260 C.3   246  LEU246      0.0001
      9  N         40.7250   14.8780   16.7880 N.3   255  ILE255     -0.1231
     10  CA        39.3070   14.7540   16.4450 C.3   255  ILE255      0.1692
     11  C         38.5070   15.6870   17.3500 C.2   255  ILE255      0.2591
     12  O         37.6530   16.4310   16.8710 O.2   255  ILE255     -0.2718
     13  CB        38.8040   13.2770   16.5260 C.3   255  ILE255      0.0266
     14  CG1       39.4030   12.4290   15.4090 C.3   255  ILE255      0.0019
     15  CG2       37.2800   13.2140   16.4500 C.3   255  ILE255      0.0020
     16  CD1       39.8900   11.0850   15.8760 C.3   255  ILE255      0.0001
     17  N         38.7790   15.6380   18.6560 N.am  256  ILE256     -0.1980
     18  CA        38.1560   16.5490   19.6200 C.3   256  ILE256      0.1595
     19  C         38.3590   18.0280   19.2430 C.2   256  ILE256      0.2287
     20  O         37.4020   18.8210   19.2390 O.2   256  ILE256     -0.2864
     21  CB        38.6140   16.2650   21.0830 C.3   256  ILE256      0.0276
     22  CG1       38.2590   14.8160   21.4530 C.3   256  ILE256      0.0022
     23  CG2       38.0130   17.2860   22.0480 C.3   256  ILE256      0.0022
     24  CD1       38.7350   14.3140   22.8330 C.3   256  ILE256      0.0001
     25  N         36.4170   18.7660   15.9790 N.3   259  HIS259     -0.1226
     26  CA        35.0220   18.7730   16.3640 C.3   259  HIS259      0.1752
     27  C         34.6210   20.1190   16.9750 C.2   259  HIS259      0.2595
     28  O         33.7230   20.8010   16.4780 O.2   259  HIS259     -0.2718
     29  CB        34.7210   17.6270   17.3350 C.3   259  HIS259      0.0759
     30  CG        33.3070   17.5630   17.7220 C.ar  259  HIS259      0.0818
     31  ND1       32.4230   16.6350   17.1060 N.ar  259  HIS259     -0.2268
     32  CD2       32.5310   18.2650   18.5640 C.ar  259  HIS259      0.1154
     33  CE1       31.1920   16.8200   17.6390 C.ar  259  HIS259      0.1986
     34  NE2       31.2730   17.7720   18.4960 N.ar  259  HIS259     -0.2212
     35  N         35.2920   20.4890   18.0590 N.am  260  GLU260     -0.1979
     36  CA        35.0530   21.7720   18.7150 C.3   260  GLU260      0.1602
     37  C         35.2800   22.9940   17.8230 C.2   260  GLU260      0.2287
     38  O         34.4270   23.8970   17.7620 O.2   260  GLU260     -0.2864
     39  CB        35.8860   21.8770   19.9970 C.3   260  GLU260      0.0415
     40  CG        35.4110   20.9070   21.0590 C.3   260  GLU260      0.1163
     41  CD        33.9320   21.0610   21.2850 C.2   260  GLU260      0.3649
     42  OE1       33.4690   22.2290   21.3750 O.co2 260  GLU260     -0.2457
     43  OE2       33.2300   20.0410   21.3970 O.co2 260  GLU260     -0.2457
     44  N         32.1920   23.4300   15.6580 N.3   263  HIS263     -0.1241
     45  CA        31.0960   24.1810   16.2740 C.3   263  HIS263      0.1621
     46  C         31.3410   25.6830   16.2150 C.2   263  HIS263      0.2264
     47  O         30.4560   26.4540   15.8690 O.2   263  HIS263     -0.2867
     48  CB        30.9380   23.8410   17.7510 C.3   263  HIS263      0.0745
     49  CG        30.2470   22.5290   17.9830 C.ar  263  HIS263      0.0817
     50  ND1       29.0100   22.2910   17.5650 N.ar  263  HIS263     -0.2268
     51  CD2       30.6780   21.4400   18.6230 C.ar  263  HIS263      0.1154
     52  CE1       28.6240   21.0800   17.8840 C.ar  263  HIS263      0.1986
     53  NE2       29.6650   20.4960   18.5620 N.ar  263  HIS263     -0.2212
     54  N         32.1710   12.6670   31.5850 N.3   287  LYS287     -0.1231
     55  CA        32.2530   12.4720   30.1340 C.3   287  LYS287      0.1693
     56  C         31.9190   13.7300   29.3360 C.2   287  LYS287      0.2592
     57  O         30.8440   13.8440   28.7400 O.2   287  LYS287     -0.2718
     58  CB        31.3580   11.3140   29.6890 C.3   287  LYS287      0.0285
     59  CG        32.0200   10.0390   30.1580 C.3   287  LYS287      0.0035
     60  CD        31.0930    8.8540   30.0890 C.3   287  LYS287      0.0206
     61  CE        31.8770    7.5750   30.3930 C.3   287  LYS287      0.1093
     62  NZ        32.5510    7.6150   31.6790 N.3   287  LYS287     -0.1314
     63  N         32.8430   14.6790   29.3400 N.am  288  ALA288     -0.1966
     64  CA        32.7300   15.8420   28.4820 C.3   288  ALA288      0.1728
     65  C         34.1240   16.2100   28.0250 C.2   288  ALA288      0.2616
     66  O         34.8700   16.9100   28.7250 O.2   288  ALA288     -0.2715
     67  CB        32.0710   16.9940   29.2140 C.3   288  ALA288      0.0334
     68  N         34.4760   15.7080   26.8500 N.am  289  LEU289     -0.1963
     69  CA        35.8190   15.8320   26.3140 C.3   289  LEU289      0.1728
     70  C         36.1490   17.2300   25.7650 C.2   289  LEU289      0.2617
     71  O         37.3240   17.5910   25.6690 O.2   289  LEU289     -0.2715
     72  CB        36.0280   14.7550   25.2390 C.3   289  LEU289      0.0311
     73  CG        35.6970   13.3210   25.6950 C.3   289  LEU289      0.0022
     74  CD1       36.0730   12.2650   24.6630 C.3   289  LEU289      0.0001
     75  CD2       36.3630   13.0160   27.0400 C.3   289  LEU289      0.0001
     76  N         35.1380   18.0250   25.4220 N.am  290  GLY290     -0.1940
     77  CA        35.3990   19.3410   24.8520 C.3   290  GLY290      0.2014
     78  C         34.0950   20.0730   24.7590 C.2   290  GLY290      0.2639
     79  O         33.0430   19.4540   24.9730 O.2   290  GLY290     -0.2714
     80  N         34.1270   21.3700   24.4790 N.am  291  TYR291     -0.1959
     81  CA        32.9110   22.1690   24.4570 C.3   291  TYR291      0.1771
     82  C         33.2380   23.5770   23.9930 C.2   291  TYR291      0.2620
     83  O         34.4170   23.9680   23.9590 O.2   291  TYR291     -0.2715
     84  CB        32.2900   22.1980   25.8560 C.3   291  TYR291      0.0574
     85  CG        33.3290   22.5440   26.8960 C.ar  291  TYR291     -0.0198
     86  CD1       34.0560   21.5490   27.5350 C.ar  291  TYR291     -0.0009
     87  CD2       33.6370   23.8730   27.1760 C.ar  291  TYR291     -0.0009
     88  CE1       35.0300   21.8570   28.4500 C.ar  291  TYR291      0.0417
     89  CE2       34.6020   24.1930   28.0850 C.ar  291  TYR291      0.0417
     90  CZ        35.3030   23.1850   28.7250 C.ar  291  TYR291      0.1957
     91  OH        36.2720   23.4940   29.6610 O.3   291  TYR291     -0.2866
     92  N         32.1960   24.3250   23.6260 N.am  292  THR292     -0.1951
     93  CA        32.2810   25.6980   23.1390 C.3   292  THR292      0.1897
     94  C         31.3070   26.5670   23.9410 C.2   292  THR292      0.2313
     95  O         30.0850   26.4670   23.7770 O.2   292  THR292     -0.2863
     96  CB        31.9060   25.7780   21.6350 C.3   292  THR292      0.1794
     97  OG1       32.7540   24.9130   20.8660 O.3   292  THR292     -0.2208
     98  CG2       32.0340   27.2130   21.1020 C.3   292  THR292      0.0378
     99  N         34.1520   16.6010   11.4880 N.3   322  GLU322     -0.1245
    100  CA        34.7400   15.2490   11.5070 C.3   322  GLU322      0.1567
    101  C         34.6250   14.6080   10.1410 C.2   322  GLU322      0.2260
    102  O         35.5760   14.0190    9.6220 O.2   322  GLU322     -0.2867
    103  CB        34.0750   14.3280   12.5380 C.3   322  GLU322      0.0388
    104  CG        34.3360   14.7630   13.9560 C.3   322  GLU322      0.1160
    105  CD        33.7150   13.8630   15.0020 C.2   322  GLU322      0.3649
    106  OE1       34.0460   12.6540   15.0420 O.co2 322  GLU322     -0.2457
    107  OE2       32.9060   14.3770   15.8120 O.co2 322  GLU322     -0.2457
    108  N         32.9080    9.7040   14.3070 N.3   330  THR330     -0.1203
    109  CA        32.9600    9.0010   15.5990 C.3   330  THR330      0.1994
    110  C         31.6470    9.1190   16.3650 C.2   330  THR330      0.2619
    111  O         30.7830    9.9170   16.0230 O.2   330  THR330     -0.2717
    112  CB        34.0630    9.5390   16.5620 C.3   330  THR330      0.1784
    113  OG1       33.7230   10.8560   17.0230 O.3   330  THR330     -0.2211
    114  CG2       35.4440    9.5410   15.9070 C.3   330  THR330      0.0376
    115  N         31.5340    8.3380   17.4310 N.am  331  SER331     -0.1937
    116  CA        30.4000    8.4230   18.3420 C.3   331  SER331      0.2055
    117  C         30.2770    9.7620   19.0970 C.2   331  SER331      0.2643
    118  O         29.2500   10.0370   19.7040 O.2   331  SER331     -0.2714
    119  CB        30.4890    7.2940   19.3690 C.3   331  SER331      0.2130
    120  OG        31.7130    7.3640   20.0570 O.3   331  SER331     -0.2179
    121  N         31.3180   10.5870   19.0790 N.am  332  GLY332     -0.1954
    122  CA        31.3030   11.8340   19.8320 C.3   332  GLY332      0.1869
    123  C         30.0890   12.7320   19.6530 C.2   332  GLY332      0.2309
    124  O         29.6470   13.3830   20.6050 O.2   332  GLY332     -0.2863
    125  N         26.9310   12.1570   19.1920 N.3   334  ALA334     -0.1231
    126  CA        25.6070   11.5930   19.5130 C.3   334  ALA334      0.1694
    127  C         24.6670   12.6000   20.1940 C.2   334  ALA334      0.2592
    128  O         23.5340   12.7670   19.7660 O.2   334  ALA334     -0.2718
    129  CB        25.7370   10.3310   20.3620 C.3   334  ALA334      0.0304
    130  N         25.1400   13.2620   21.2470 N.am  335  ASN335     -0.1960
    131  CA        24.3470   14.2870   21.9310 C.3   335  ASN335      0.1819
    132  C         24.0040   15.4850   21.0460 C.2   335  ASN335      0.2621
    133  O         22.9060   16.0210   21.1380 O.2   335  ASN335     -0.2715
    134  CB        25.0410   14.7270   23.2250 C.3   335  ASN335      0.1195
    135  CG        24.4100   15.9630   23.8400 C.2   335  ASN335      0.2630
    136  OD1       23.3510   15.8990   24.4900 O.2   335  ASN335     -0.2716
    137  ND2       25.0600   17.1140   23.6210 N.am  335  ASN335     -0.0877
    138  N         24.9480   15.9010   20.2040 N.am  336  ASP336     -0.1971
    139  CA        24.6550   16.9580   19.2280 C.3   336  ASP336      0.1709
    140  C         23.4960   16.5650   18.3170 C.2   336  ASP336      0.2293
    141  O         22.6120   17.3600   18.0050 O.2   336  ASP336     -0.2864
    142  CB        25.8620   17.2230   18.3080 C.3   336  ASP336      0.1436
    143  CG        27.0260   17.8520   19.0250 C.2   336  ASP336      0.3671
    144  OD1       26.8030   18.4630   20.0800 O.co2 336  ASP336     -0.2456
    145  OD2       28.1640   17.7640   18.5040 O.co2 336  ASP336     -0.2456
@<TRIPOS>BOND
     1   102   101    2
     2   101   100    1
     3    99   100    1
     4   100   103    1
     5   103   104    1
     6   104   105    1
     7   108   109    1
     8   105   106   ar
     9   105   107   ar
    10    14    16    1
    11    14    13    1
    12   109   110    1
    13   109   112    1
    14    44    45    1
    15    47    46    2
    16   114   112    1
    17    25    26    1
    18   111   110    2
    19    46    45    1
    20    45    48    1
    21    26    27    1
    22    26    29    1
    23   110   115   am
    24    10    13    1
    25    10     9    1
    26    10    11    1
    27    15    13    1
    28    28    27    2
    29   112   113    1
    30    12    11    2
    31    27    35   am
    32    31    33   ar
    33    31    30   ar
    34    29    30    1
    35    11    17   am
    36   115   116    1
    37    50    52   ar
    38    50    49   ar
    39    33    34   ar
    40    30    32   ar
    41    48    49    1
    42    38    37    2
    43    37    36    1
    44    52    53   ar
    45    49    51   ar
    46   141   140    2
    47    35    36    1
    48   142   143    1
    49   142   139    1
    50   140   139    1
    51   116   117    1
    52   116   119    1
    53    34    32   ar
    54   145   143   ar
    55    53    51   ar
    56    17    18    1
    57    36    39    1
    58   143   144   ar
    59   121   117   am
    60   121   122    1
    61   117   118    2
    62   125   126    1
    63   139   138    1
    64    20    19    2
    65    19    18    1
    66   119   120    1
    67   126   127    1
    68   126   129    1
    69    18    21    1
    70   123   122    1
    71   123   124    2
    72   128   127    2
    73    39    40    1
    74   127   130   am
    75   138   132   am
    76    97    96    1
    77   132   133    2
    78   132   131    1
    79    40    41    1
    80    21    22    1
    81    21    23    1
    82    98    96    1
    83   130   131    1
    84    41    42   ar
    85    41    43   ar
    86    22    24    1
    87    96    93    1
    88   131   134    1
    89    93    92    1
    90    93    94    1
    91   134   135    1
    92   137   135   am
    93    92    82   am
    94    95    94    2
    95   135   136    2
    96    83    82    2
    97    82    81    1
    98    81    80    1
    99    81    84    1
   100    80    78   am
   101    74    73    1
   102    78    77    1
   103    78    79    2
   104    77    76    1
   105    72    73    1
   106    72    69    1
   107    76    70   am
   108    71    70    2
   109    73    75    1
   110    70    69    1
   111    84    85    1
   112    69    68    1
   113    68    65   am
   114    85    87   ar
   115    85    86   ar
   116    87    89   ar
   117    86    88   ar
   118    65    64    1
   119    65    66    2
   120    89    90   ar
   121    88    90   ar
   122    64    67    1
   123    64    63    1
   124    90    91    1
   125    57    56    2
   126    56    63   am
   127    56    55    1
   128    58    55    1
   129    58    59    1
   130     7     6    1
   131    60    59    1
   132    60    61    1
   133    55    54    1
   134    61    62    1
   135     4     3    2
   136     3     2    1
   137     8     6    1
   138     6     5    1
   139     5     2    1
   140     2     1    1
