@<TRIPOS>MOLECULE
tmp/3kdwA01.pdb
 93 86 0 0 0
SMALL
GASTEIGER

@<TRIPOS>ATOM
      1  N          9.6540   48.0180   31.2190 N.3   127  THR127     -0.1218
      2  CA         8.4390   48.0480   32.0310 C.3   127  THR127      0.1862
      3  C          8.5280   49.1670   33.0690 C.2   127  THR127      0.2287
      4  O          7.5320   49.8860   33.3370 O.2   127  THR127     -0.2866
      5  CB         8.1420   46.6900   32.7030 C.3   127  THR127      0.1770
      6  OG1        8.1660   45.6240   31.7320 O.3   127  THR127     -0.2211
      7  CG2        6.8260   46.7380   33.4690 C.3   127  THR127      0.0375
      8  N          8.1780   52.6320   31.2910 N.3   130  ALA130     -0.1231
      9  CA         6.8120   52.8340   30.9140 C.3   130  ALA130      0.1694
     10  C          5.9370   53.1710   32.1030 C.2   130  ALA130      0.2592
     11  O          5.0760   54.0330   32.0140 O.2   130  ALA130     -0.2718
     12  CB         6.2600   51.6320   30.1620 C.3   130  ALA130      0.0304
     13  N          6.1460   52.4740   33.2230 N.am  131  THR131     -0.1953
     14  CA         5.3340   52.7090   34.4100 C.3   131  THR131      0.1897
     15  C          5.5310   54.1300   34.9730 C.2   131  THR131      0.2313
     16  O          4.5780   54.8090   35.3220 O.2   131  THR131     -0.2863
     17  CB         5.6280   51.6300   35.4860 C.3   131  THR131      0.1794
     18  OG1        5.3330   50.3180   34.9310 O.3   131  THR131     -0.2208
     19  CG2        4.7330   51.8480   36.7550 C.3   131  THR131      0.0378
     20  N          2.8340   57.2160   35.1730 N.3   134  ILE134     -0.1245
     21  CA         2.5040   57.8530   36.4600 C.3   134  ILE134      0.1561
     22  C          3.7410   58.6180   36.9520 C.2   134  ILE134      0.2260
     23  O          4.4930   58.1300   37.7910 O.2   134  ILE134     -0.2867
     24  CB         2.0130   56.8350   37.4880 C.3   134  ILE134      0.0252
     25  CG1        0.9350   55.9220   36.8780 C.3   134  ILE134      0.0019
     26  CG2        1.5420   57.5480   38.7580 C.3   134  ILE134      0.0019
     27  CD1        0.3970   54.8410   37.7870 C.3   134  ILE134      0.0001
     28  N          3.9820   42.0160   36.7440 N.3   171  LYS171     -0.1245
     29  CA         3.2030   43.1740   36.2240 C.3   171  LYS171      0.1561
     30  C          1.7800   43.1970   36.7980 C.2   171  LYS171      0.2260
     31  O          1.2720   44.2350   37.1460 O.2   171  LYS171     -0.2867
     32  CB         3.1480   43.1380   34.6890 C.3   171  LYS171      0.0271
     33  CG         4.4670   43.5530   34.0180 C.3   171  LYS171      0.0035
     34  CD         4.5770   43.0690   32.5730 C.3   171  LYS171      0.0206
     35  CE         3.6880   43.8290   31.6150 C.3   171  LYS171      0.1093
     36  NZ         4.0190   43.3890   30.1880 N.3   171  LYS171     -0.1314
     37  N          2.1330   44.5070   40.2650 N.3   174  ILE174     -0.1231
     38  CA         2.3300   45.9550   40.2000 C.3   174  ILE174      0.1692
     39  C          0.9820   46.6660   39.9650 C.2   174  ILE174      0.2592
     40  O          0.6680   47.6300   40.6190 O.2   174  ILE174     -0.2718
     41  CB         3.3410   46.3310   39.1220 C.3   174  ILE174      0.0266
     42  CG1        4.7500   45.9030   39.5070 C.3   174  ILE174      0.0019
     43  CG2        3.3650   47.8490   38.8860 C.3   174  ILE174      0.0020
     44  CD1        5.7570   45.7040   38.3080 C.3   174  ILE174      0.0001
     45  N          0.1750   46.1380   39.0550 N.am  175  ASN175     -0.1974
     46  CA        -1.1110   46.7850   38.7010 C.3   175  ASN175      0.1688
     47  C         -1.9900   46.8120   39.9300 C.2   175  ASN175      0.2292
     48  O         -2.5180   47.8790   40.3410 O.2   175  ASN175     -0.2864
     49  CB        -1.7230   46.0410   37.5160 C.3   175  ASN175      0.1181
     50  CG        -2.8240   46.8140   36.8440 C.2   175  ASN175      0.2629
     51  OD1       -3.9430   46.8210   37.3530 O.2   175  ASN175     -0.2716
     52  ND2       -2.5300   47.4780   35.6920 N.am  175  ASN175     -0.0877
     53  N         -0.7350   49.2850   42.6550 N.3   178  LEU178     -0.1245
     54  CA        -1.0190   50.6910   42.4050 C.3   178  LEU178      0.1561
     55  C         -2.4870   51.0240   42.6220 C.2   178  LEU178      0.2260
     56  O         -2.8000   52.1050   43.1300 O.2   178  LEU178     -0.2867
     57  CB        -0.5420   51.1090   40.9930 C.3   178  LEU178      0.0270
     58  CG         0.9720   51.0630   40.8100 C.3   178  LEU178      0.0019
     59  CD1        1.3380   51.3330   39.3670 C.3   178  LEU178      0.0001
     60  CD2        1.6930   52.0330   41.7680 C.3   178  LEU178      0.0001
     61  N         -6.0960   53.8320   37.6660 N.3   185  LEU185     -0.1245
     62  CA        -5.3190   53.3790   36.5170 C.3   185  LEU185      0.1561
     63  C         -5.9970   53.6570   35.1670 C.2   185  LEU185      0.2260
     64  O         -5.2950   53.9410   34.1910 O.2   185  LEU185     -0.2867
     65  CB        -4.9950   51.8910   36.6430 C.3   185  LEU185      0.0270
     66  CG        -4.1110   51.5370   37.8520 C.3   185  LEU185      0.0019
     67  CD1       -3.8900   50.0250   37.8980 C.3   185  LEU185      0.0001
     68  CD2       -2.7940   52.2940   37.8720 C.3   185  LEU185      0.0001
     69  N         -3.9000   55.9780   32.6540 N.3   189  ARG189     -0.1245
     70  CA        -3.5210   55.4050   31.3770 C.3   189  ARG189      0.1563
     71  C         -4.0280   56.2810   30.2430 C.2   189  ARG189      0.2260
     72  O         -3.3090   56.5330   29.2810 O.2   189  ARG189     -0.2867
     73  CB        -4.0220   53.9600   31.2590 C.3   189  ARG189      0.0307
     74  CG        -3.6160   53.2550   29.9620 C.3   189  ARG189      0.0489
     75  CD        -4.1230   51.8050   29.9360 C.3   189  ARG189      0.2205
     76  NE        -3.5450   51.0700   31.0380 N.pl3 189  ARG189     -0.0865
     77  CZ        -2.3110   50.5640   31.0720 C.cat 189  ARG189      0.5346
     78  NH1       -1.4820   50.6640   30.0290 N.pl3 189  ARG189      0.1354
     79  NH2       -1.9190   49.9150   32.1500 N.pl3 189  ARG189      0.1354
     80  N         -1.9200   59.3630   30.0230 N.3   192  TRP192     -0.1241
     81  CA        -0.6290   58.9820   29.4330 C.3   192  TRP192      0.1605
     82  C         -0.6870   58.8900   27.9140 C.2   192  TRP192      0.2264
     83  O          0.1810   59.4150   27.2120 O.2   192  TRP192     -0.2867
     84  CB        -0.1890   57.6550   30.0060 C.3   192  TRP192      0.0550
     85  CG         1.1250   57.0950   29.5510 C.ar  192  TRP192      0.0003
     86  CD1        2.2780   57.7580   29.3720 C.ar  192  TRP192      0.0946
     87  CD2        1.4450   55.7030   29.4230 C.ar  192  TRP192      0.0152
     88  NE1        3.2930   56.8920   29.0280 N.ar  192  TRP192     -0.2442
     89  CE2        2.8040   55.6190   29.0600 C.ar  192  TRP192      0.0810
     90  CE3        0.7020   54.5290   29.5200 C.ar  192  TRP192      0.0012
     91  CZ2        3.4470   54.4050   28.8450 C.ar  192  TRP192      0.0191
     92  CZ3        1.3610   53.3070   29.3120 C.ar  192  TRP192      0.0001
     93  CH2        2.7100   53.2750   28.9530 C.ar  192  TRP192      0.0015
@<TRIPOS>BOND
     1    83    82    2
     2    82    81    1
     3    91    93   ar
     4    91    89   ar
     5    93    92   ar
     6    88    89   ar
     7    88    86   ar
     8    89    87   ar
     9    72    71    2
    10    92    90   ar
    11    86    85   ar
    12    87    90   ar
    13    87    85   ar
    14    81    84    1
    15    81    80    1
    16    85    84    1
    17    75    74    1
    18    75    76    1
    19    74    73    1
    20    78    77    1
    21    12     9    1
    22    36    35    1
    23    71    70    1
    24     9     8    1
    25     9    10    1
    26    76    77    2
    27    77    79    1
    28     1     2    1
    29    73    70    1
    30    70    69    1
    31    35    34    1
    32     6     5    1
    33    11    10    2
    34     2     5    1
    35     2     3    1
    36    10    13   am
    37    34    33    1
    38     5     7    1
    39     3     4    2
    40    13    14    1
    41    33    32    1
    42    64    63    2
    43    14    15    1
    44    14    17    1
    45    32    29    1
    46    18    17    1
    47    15    16    2
    48    63    62    1
    49    20    21    1
    50    17    19    1
    51    52    50   am
    52    29    28    1
    53    29    30    1
    54    21    22    1
    55    21    24    1
    56    62    65    1
    57    62    61    1
    58    65    66    1
    59    30    31    2
    60    50    51    2
    61    50    49    1
    62    25    24    1
    63    25    27    1
    64    22    23    2
    65    24    26    1
    66    49    46    1
    67    66    68    1
    68    66    67    1
    69    44    42    1
    70    46    45    1
    71    46    47    1
    72    43    41    1
    73    45    39   am
    74    41    42    1
    75    41    38    1
    76    59    58    1
    77    47    48    2
    78    39    38    1
    79    39    40    2
    80    38    37    1
    81    58    57    1
    82    58    60    1
    83    57    54    1
    84    54    55    1
    85    54    53    1
    86    55    56    2
