@<TRIPOS>MOLECULE
tmp/3kdzA00.pdb
 113 106 0 0 0
SMALL
GASTEIGER

@<TRIPOS>ATOM
      1  N        -33.7620   17.1000   30.7050 N.3    53  PHE53      -0.1241
      2  CA       -32.9030   15.9340   30.9100 C.3    53  PHE53       0.1605
      3  C        -32.1570   15.8850   32.2490 C.2    53  PHE53       0.2264
      4  O        -31.6900   16.9090   32.7610 O.2    53  PHE53      -0.2867
      5  CB       -31.8800   15.8390   29.7760 C.3    53  PHE53       0.0534
      6  CG       -30.8180   14.7990   30.0050 C.ar   53  PHE53      -0.0203
      7  CD1      -31.1620   13.4580   30.1630 C.ar   53  PHE53      -0.0042
      8  CD2      -29.4770   15.1640   30.1040 C.ar   53  PHE53      -0.0042
      9  CE1      -30.1860   12.4970   30.4200 C.ar   53  PHE53      -0.0003
     10  CE2      -28.4970   14.2140   30.3600 C.ar   53  PHE53      -0.0003
     11  CZ       -28.8550   12.8760   30.5190 C.ar   53  PHE53      -0.0000
     12  N        -31.8730    8.8290   33.0380 N.3    59  TYR59      -0.1227
     13  CA       -30.4740    9.0800   32.7070 C.3    59  TYR59       0.1736
     14  C        -29.9530    8.1470   31.6120 C.2    59  TYR59       0.2596
     15  O        -30.2070    6.9390   31.6300 O.2    59  TYR59      -0.2718
     16  CB       -29.6230    8.9450   33.9730 C.3    59  TYR59       0.0548
     17  CG       -29.9190   10.0220   34.9960 C.ar   59  TYR59      -0.0200
     18  CD1      -29.3050   11.2750   34.9140 C.ar   59  TYR59      -0.0009
     19  CD2      -30.8440    9.8060   36.0240 C.ar   59  TYR59      -0.0009
     20  CE1      -29.6040   12.2870   35.8260 C.ar   59  TYR59       0.0417
     21  CE2      -31.1520   10.8150   36.9420 C.ar   59  TYR59       0.0417
     22  CZ       -30.5270   12.0520   36.8360 C.ar   59  TYR59       0.1957
     23  OH       -30.8160   13.0530   37.7350 O.3    59  TYR59      -0.2866
     24  N        -29.2230    8.7210   30.6570 N.am   60  GLY60      -0.1957
     25  CA       -28.6780    7.9350   29.5640 C.3    60  GLY60       0.1869
     26  C        -29.7370    7.6000   28.5330 C.2    60  GLY60       0.2309
     27  O        -30.5970    8.4270   28.2330 O.2    60  GLY60      -0.2863
     28  N        -29.0160    8.1880   41.1820 N.3    79  LEU79      -0.1245
     29  CA       -27.9940    8.4000   40.1610 C.3    79  LEU79       0.1561
     30  C        -26.5750    8.3020   40.7080 C.2    79  LEU79       0.2260
     31  O        -25.7530    7.5350   40.2000 O.2    79  LEU79      -0.2867
     32  CB       -28.1750    9.7690   39.5170 C.3    79  LEU79       0.0270
     33  CG       -27.0600   10.1930   38.5670 C.3    79  LEU79       0.0019
     34  CD1      -27.0300    9.2860   37.3480 C.3    79  LEU79       0.0001
     35  CD2      -27.2910   11.6220   38.1660 C.3    79  LEU79       0.0001
     36  N        -24.2050    4.9300   39.9320 N.3    83  HIS83      -0.1241
     37  CA       -23.0630    5.2380   39.0840 C.3    83  HIS83       0.1621
     38  C        -21.7370    5.2010   39.7990 C.2    83  HIS83       0.2264
     39  O        -20.6890    5.2860   39.1680 O.2    83  HIS83      -0.2867
     40  CB       -23.2580    6.5790   38.3790 C.3    83  HIS83       0.0745
     41  CG       -24.1870    6.5000   37.2110 C.ar   83  HIS83       0.0817
     42  ND1      -25.4750    6.0260   37.3220 N.ar   83  HIS83      -0.2268
     43  CD2      -24.0060    6.7990   35.9030 C.ar   83  HIS83       0.1154
     44  CE1      -26.0490    6.0350   36.1310 C.ar   83  HIS83       0.1986
     45  NE2      -25.1780    6.4990   35.2530 N.ar   83  HIS83      -0.2212
     46  N        -18.0850    9.8450   34.5440 N.3   143  LEU143     -0.1245
     47  CA       -19.2020    9.4950   35.4130 C.3   143  LEU143      0.1561
     48  C        -18.8770    8.8050   36.7300 C.2   143  LEU143      0.2260
     49  O        -19.1800    9.3270   37.8040 O.2   143  LEU143     -0.2867
     50  CB       -20.2010    8.6260   34.6410 C.3   143  LEU143      0.0270
     51  CG       -20.9530    9.3270   33.5050 C.3   143  LEU143      0.0019
     52  CD1      -21.7780    8.3230   32.7170 C.3   143  LEU143      0.0001
     53  CD2      -21.8520   10.4020   34.0910 C.3   143  LEU143      0.0001
     54  N        -26.6380   15.2150   38.7280 N.3   188  LEU188     -0.1245
     55  CA       -26.1280   15.1060   37.3690 C.3   188  LEU188      0.1561
     56  C        -24.9670   16.0560   37.1370 C.2   188  LEU188      0.2260
     57  O        -23.9440   15.6640   36.5880 O.2   188  LEU188     -0.2867
     58  CB       -27.2370   15.4050   36.3570 C.3   188  LEU188      0.0270
     59  CG       -26.8890   15.3580   34.8640 C.3   188  LEU188      0.0019
     60  CD1      -26.4460   13.9610   34.4540 C.3   188  LEU188      0.0001
     61  CD2      -28.1170   15.7680   34.0610 C.3   188  LEU188      0.0001
     62  N        -21.4180   14.8790   35.5850 N.3   192  ASN192     -0.1240
     63  CA       -21.4720   14.9710   34.1330 C.3   192  ASN192      0.1653
     64  C        -20.4640   15.9250   33.5080 C.2   192  ASN192      0.2266
     65  O        -20.8430   16.8790   32.8260 O.2   192  ASN192     -0.2867
     66  CB       -22.8890   15.3660   33.7260 C.3   192  ASN192      0.1155
     67  CG       -23.2860   14.7990   32.3880 C.2   192  ASN192      0.2627
     68  OD1      -22.7540   13.7790   31.9580 O.2   192  ASN192     -0.2716
     69  ND2      -24.2420   15.4430   31.7280 N.am  192  ASN192     -0.0877
     70  N        -23.9670   19.2740   31.4930 N.3   328  ASN328     -0.1240
     71  CA       -25.1480   19.2970   30.6330 C.3   328  ASN328      0.1653
     72  C        -26.3140   18.9550   31.5690 C.2   328  ASN328      0.2266
     73  O        -26.1630   18.1770   32.5080 O.2   328  ASN328     -0.2867
     74  CB       -24.8670   18.4650   29.3730 C.3   328  ASN328      0.1155
     75  CG       -25.9900   18.5320   28.3440 C.2   328  ASN328      0.2627
     76  OD1      -26.2210   19.5640   27.7130 O.2   328  ASN328     -0.2716
     77  ND2      -26.6850   17.4240   28.1690 N.am  328  ASN328     -0.0877
     78  N        -19.8520   17.5860   28.0700 N.3   343  PHE343     -0.1241
     79  CA       -19.3320   16.6010   29.0150 C.3   343  PHE343      0.1605
     80  C        -18.3340   15.7120   28.2740 C.2   343  PHE343      0.2264
     81  O        -17.5680   14.9850   28.8910 O.2   343  PHE343     -0.2867
     82  CB       -20.4650   15.7250   29.5470 C.3   343  PHE343      0.0534
     83  CG       -21.3210   15.1260   28.4680 C.ar  343  PHE343     -0.0203
     84  CD1      -20.8130   14.1600   27.6070 C.ar  343  PHE343     -0.0042
     85  CD2      -22.6330   15.5580   28.2860 C.ar  343  PHE343     -0.0042
     86  CE1      -21.5940   13.6320   26.5750 C.ar  343  PHE343     -0.0003
     87  CE2      -23.4220   15.0380   27.2570 C.ar  343  PHE343     -0.0003
     88  CZ       -22.9000   14.0730   26.3990 C.ar  343  PHE343     -0.0000
     89  N        -24.4020    1.8160   27.0430 N.3   425  ASN425     -0.1240
     90  CA       -25.6270    2.4890   27.4600 C.3   425  ASN425      0.1653
     91  C        -26.6740    2.4160   26.3540 C.2   425  ASN425      0.2266
     92  O        -27.2900    3.4250   26.0050 O.2   425  ASN425     -0.2867
     93  CB       -25.3340    3.9580   27.7830 C.3   425  ASN425      0.1155
     94  CG       -26.4030    4.5950   28.6570 C.2   425  ASN425      0.2627
     95  OD1      -26.5560    5.8150   28.6820 O.2   425  ASN425     -0.2716
     96  ND2      -27.1330    3.7710   29.3920 N.am  425  ASN425     -0.0877
     97  N        -26.4490    4.7570   23.5070 N.3   428  ASN428     -0.1225
     98  CA       -26.6500    6.1760   23.8120 C.3   428  ASN428      0.1785
     99  C        -25.2820    6.8430   23.7900 C.2   428  ASN428      0.2597
    100  O        -25.0920    7.8740   23.1460 O.2   428  ASN428     -0.2718
    101  CB       -27.2910    6.3610   25.1880 C.3   428  ASN428      0.1169
    102  CG       -27.1440    7.7840   25.7180 C.2   428  ASN428      0.2627
    103  OD1      -27.5030    8.7560   25.0490 O.2   428  ASN428     -0.2716
    104  ND2      -26.6160    7.9090   26.9310 N.am  428  ASN428     -0.0877
    105  N        -24.3300    6.2540   24.5080 N.am  429  GLN429     -0.1979
    106  CA       -22.9740    6.7850   24.5160 C.3   429  GLN429      0.1601
    107  C        -22.2430    6.0200   23.4220 C.2   429  GLN429      0.2287
    108  O        -21.3320    5.2420   23.7200 O.2   429  GLN429     -0.2864
    109  CB       -22.2770    6.5220   25.8560 C.3   429  GLN429      0.0394
    110  CG       -23.0420    6.9740   27.0870 C.3   429  GLN429      0.0908
    111  CD       -22.1690    7.0070   28.3350 C.2   429  GLN429      0.2608
    112  OE1      -22.6700    6.9170   29.4600 O.2   429  GLN429     -0.2717
    113  NE2      -20.8610    7.1540   28.1430 N.am  429  GLN429     -0.0878
@<TRIPOS>BOND
     1   100    99    2
     2   107   108    2
     3   107   106    1
     4    97    98    1
     5    99    98    1
     6    99   105   am
     7    98   101    1
     8   105   106    1
     9   106   109    1
    10   103   102    2
    11   101   102    1
    12   102   104   am
    13   109   110    1
    14    92    91    2
    15    91    90    1
    16    88    86   ar
    17    88    87   ar
    18    86    84   ar
    19    89    90    1
    20   110   111    1
    21    87    85   ar
    22    90    93    1
    23    84    83   ar
    24    76    75    2
    25    93    94    1
    26    78    79    1
    27   113   111   am
    28    77    75   am
    29    27    26    2
    30    80    81    2
    31    80    79    1
    32    85    83   ar
    33   111   112    2
    34    75    74    1
    35    83    82    1
    36    26    25    1
    37    94    95    2
    38    94    96   am
    39    79    82    1
    40    74    71    1
    41    25    24    1
    42     5     6    1
    43     5     2    1
    44     6     8   ar
    45     6     7   ar
    46     8    10   ar
    47     7     9   ar
    48    10    11   ar
    49     9    11   ar
    50    71    70    1
    51    71    72    1
    52    24    14   am
    53     1     2    1
    54     2     3    1
    55    72    73    2
    56    14    15    2
    57    14    13    1
    58    69    67   am
    59    68    67    2
    60     3     4    2
    61    67    66    1
    62    13    12    1
    63    13    16    1
    64    52    51    1
    65    65    64    2
    66    51    53    1
    67    51    50    1
    68    64    63    1
    69    66    63    1
    70    16    17    1
    71    61    59    1
    72    63    62    1
    73    60    59    1
    74    46    47    1
    75    50    47    1
    76    59    58    1
    77    18    17   ar
    78    18    20   ar
    79    17    19   ar
    80    45    43   ar
    81    45    44   ar
    82    47    48    1
    83    20    22   ar
    84    43    41   ar
    85    19    21   ar
    86    44    42   ar
    87    58    55    1
    88    57    56    2
    89    48    49    2
    90    22    21   ar
    91    22    23    1
    92    56    55    1
    93    41    42   ar
    94    41    40    1
    95    34    33    1
    96    55    54    1
    97    35    33    1
    98    40    37    1
    99    33    32    1
   100    37    38    1
   101    37    36    1
   102    39    38    2
   103    32    29    1
   104    29    30    1
   105    29    28    1
   106    31    30    2
