@<TRIPOS>MOLECULE
tmp/3ke1C00.pdb
 81 77 0 0 0
SMALL
GASTEIGER

@<TRIPOS>ATOM
      1  N         34.7960  -34.1720  -15.7390 N.3    90  ALA90      -0.1231
      2  CA        36.0030  -33.4930  -15.2990 C.3    90  ALA90       0.1694
      3  C         36.6700  -32.8830  -16.5170 C.2    90  ALA90       0.2591
      4  O         36.8870  -33.5630  -17.5380 O.2    90  ALA90      -0.2718
      5  CB        36.9370  -34.4450  -14.6180 C.3    90  ALA90       0.0304
      6  N         36.9310  -31.5880  -16.4110 N.am   91  GLN91      -0.1979
      7  CA        37.6590  -30.8470  -17.4090 C.3    91  GLN91       0.1601
      8  C         39.0980  -31.3600  -17.4720 C.2    91  GLN91       0.2287
      9  O         39.6630  -31.5140  -18.5570 O.2    91  GLN91      -0.2864
     10  CB        37.6530  -29.3460  -17.0710 C.3    91  GLN91       0.0394
     11  CG        37.9200  -28.4730  -18.2560 C.3    91  GLN91       0.0908
     12  CD        36.9560  -28.7340  -19.4130 C.2    91  GLN91       0.2608
     13  OE1       35.7490  -28.9440  -19.2230 O.2    91  GLN91      -0.2717
     14  NE2       37.4990  -28.7260  -20.6290 N.am   91  GLN91      -0.0878
     15  N         42.1140  -33.9220  -14.8560 N.3    93  PRO93      -0.2102
     16  CA        43.0590  -34.2830  -15.9090 C.3    93  PRO93       0.1504
     17  C         42.4650  -35.3120  -16.8650 C.2    93  PRO93       0.2576
     18  O         41.2790  -35.6480  -16.7580 O.2    93  PRO93      -0.2718
     19  CB        44.2170  -34.8990  -15.1180 C.3    93  PRO93       0.0282
     20  CG        43.5370  -35.5690  -13.9550 C.3    93  PRO93       0.0208
     21  CD        42.3200  -34.7280  -13.6360 C.3    93  PRO93       0.0893
     22  N         43.2780  -35.8140  -17.7890 N.am   94  LYS94      -0.1966
     23  CA        42.8700  -36.9290  -18.6420 C.3    94  LYS94       0.1728
     24  C         42.6010  -38.1660  -17.7650 C.2    94  LYS94       0.2616
     25  O         43.4670  -38.5730  -16.9680 O.2    94  LYS94      -0.2715
     26  CB        43.9440  -37.2170  -19.7050 C.3    94  LYS94       0.0311
     27  CG        43.5420  -38.3520  -20.6280 C.3    94  LYS94       0.0038
     28  CD        44.5320  -38.5340  -21.7270 C.3    94  LYS94       0.0206
     29  CE        44.0660  -39.6860  -22.6100 C.3    94  LYS94       0.1093
     30  NZ        45.0160  -39.9300  -23.6780 N.3    94  LYS94      -0.1314
     31  N         41.4020  -38.7430  -17.8950 N.am   95  LEU95      -0.1963
     32  CA        41.0220  -39.9030  -17.0860 C.3    95  LEU95       0.1728
     33  C         41.0860  -41.2420  -17.8250 C.2    95  LEU95       0.2616
     34  O         41.1250  -42.3160  -17.1800 O.2    95  LEU95      -0.2715
     35  CB        39.6260  -39.7110  -16.4850 C.3    95  LEU95       0.0311
     36  CG        39.4850  -38.4860  -15.5720 C.3    95  LEU95       0.0022
     37  CD1       38.0250  -38.2850  -15.2660 C.3    95  LEU95       0.0001
     38  CD2       40.3280  -38.5880  -14.2860 C.3    95  LEU95       0.0001
     39  N         41.0890  -41.1670  -19.1560 N.am   96  ALA96      -0.1977
     40  CA        41.0670  -42.3440  -20.0390 C.3    96  ALA96       0.1597
     41  C         41.9670  -43.5350  -19.6520 C.2    96  ALA96       0.2287
     42  O         41.4940  -44.6810  -19.6840 O.2    96  ALA96      -0.2864
     43  CB        41.3330  -41.9270  -21.5190 C.3    96  ALA96       0.0319
     44  N         40.5810  -45.4280  -16.4820 N.3    99  ILE99      -0.1245
     45  CA        39.1970  -45.8740  -16.4810 C.3    99  ILE99       0.1561
     46  C         39.0500  -47.3860  -16.2650 C.2    99  ILE99       0.2260
     47  O         38.2130  -47.8190  -15.4650 O.2    99  ILE99      -0.2867
     48  CB        38.4510  -45.3530  -17.7270 C.3    99  ILE99       0.0252
     49  CG1       37.8890  -43.9610  -17.4080 C.3    99  ILE99       0.0019
     50  CG2       37.3420  -46.3070  -18.1620 C.3    99  ILE99       0.0019
     51  CD1       37.6860  -43.0940  -18.6290 C.3    99  ILE99       0.0001
     52  N         33.8660  -41.0690  -19.3130 N.3   121  ALA121     -0.1231
     53  CA        34.3850  -39.7660  -18.9300 C.3   121  ALA121      0.1694
     54  C         34.0300  -38.6840  -19.9430 C.2   121  ALA121      0.2592
     55  O         34.0150  -38.9330  -21.1440 O.2   121  ALA121     -0.2718
     56  CB        35.9160  -39.8300  -18.7120 C.3   121  ALA121      0.0304
     57  N         33.7110  -37.4940  -19.4360 N.am  122  LYS122     -0.1966
     58  CA        33.3780  -36.3240  -20.2810 C.3   122  LYS122      0.1728
     59  C         34.0240  -35.0900  -19.7100 C.2   122  LYS122      0.2616
     60  O         34.1990  -35.0070  -18.4970 O.2   122  LYS122     -0.2715
     61  CB        31.8620  -36.0710  -20.2930 C.3   122  LYS122      0.0311
     62  CG        31.0250  -37.2080  -20.8330 C.3   122  LYS122      0.0038
     63  CD        31.2130  -37.3830  -22.3390 C.3   122  LYS122      0.0206
     64  CE        30.6770  -36.2210  -23.1280 C.3   122  LYS122      0.1093
     65  NZ        29.7060  -36.7720  -24.1450 N.3   122  LYS122     -0.1314
     66  N         34.3760  -34.1300  -20.5690 N.am  123  THR123     -0.1951
     67  CA        34.6590  -32.7730  -20.1060 C.3   123  THR123      0.1897
     68  C         33.3330  -32.0130  -20.0060 C.2   123  THR123      0.2313
     69  O         32.2840  -32.5040  -20.4380 O.2   123  THR123     -0.2863
     70  CB        35.5820  -31.9910  -21.0820 C.3   123  THR123      0.1794
     71  OG1       34.8560  -31.7380  -22.2790 O.3   123  THR123     -0.2208
     72  CG2       36.8740  -32.7600  -21.4180 C.3   123  THR123      0.0378
     73  N         33.1540  -29.0180  -21.5090 N.3   125  GLU125     -0.1245
     74  CA        33.3440  -28.0580  -22.5980 C.3   125  GLU125      0.1567
     75  C         33.6120  -26.6410  -22.0970 C.2   125  GLU125      0.2260
     76  O         33.1320  -25.6530  -22.6810 O.2   125  GLU125     -0.2867
     77  CB        32.1470  -28.0930  -23.5570 C.3   125  GLU125      0.0388
     78  CG        32.0590  -29.3950  -24.3750 C.3   125  GLU125      0.1160
     79  CD        33.0960  -29.4780  -25.5010 C.2   125  GLU125      0.3649
     80  OE1       33.5910  -28.4240  -25.9420 O.co2 125  GLU125     -0.2457
     81  OE2       33.4170  -30.6020  -25.9460 O.co2 125  GLU125     -0.2457
@<TRIPOS>BOND
     1    81    79   ar
     2    80    79   ar
     3    79    78    1
     4    78    77    1
     5    65    64    1
     6    30    29    1
     7    77    74    1
     8    64    63    1
     9    76    75    2
    10    29    28    1
    11    74    75    1
    12    74    73    1
    13    63    62    1
    14    71    70    1
    15    28    27    1
    16    43    40    1
    17    72    70    1
    18    55    54    2
    19    70    67    1
    20    62    61    1
    21    14    12   am
    22    27    26    1
    23    66    67    1
    24    66    59   am
    25    69    68    2
    26    61    58    1
    27    58    59    1
    28    58    57    1
    29    67    68    1
    30    40    41    1
    31    40    39    1
    32    54    57   am
    33    54    53    1
    34    59    60    2
    35    26    23    1
    36    42    41    2
    37    12    13    2
    38    12    11    1
    39    52    53    1
    40    39    33   am
    41    53    56    1
    42    23    22    1
    43    23    24    1
    44    51    49    1
    45     9     8    2
    46    11    10    1
    47    50    48    1
    48    31    24   am
    49    31    32    1
    50    33    34    2
    51    33    32    1
    52    22    17   am
    53    24    25    2
    54    48    49    1
    55    48    45    1
    56     4     3    2
    57     8     7    1
    58     7    10    1
    59     7     6    1
    60    32    35    1
    61    17    18    2
    62    17    16    1
    63     3     6   am
    64     3     2    1
    65    35    36    1
    66    44    45    1
    67    45    46    1
    68    46    47    2
    69    16    19    1
    70    16    15    1
    71     1     2    1
    72    36    37    1
    73    36    38    1
    74     2     5    1
    75    19    20    1
    76    15    21    1
    77    20    21    1
