@<TRIPOS>MOLECULE
tmp/3ke5A00.pdb
 123 118 0 0 0
SMALL
GASTEIGER

@<TRIPOS>ATOM
      1  N         73.2030  -57.6870   22.0300 N.3     3  LEU3       -0.1231
      2  CA        71.8230  -57.2360   22.1860 C.3     3  LEU3        0.1693
      3  C         70.7640  -58.3080   22.4210 C.2     3  LEU3        0.2592
      4  O         69.9210  -58.1620   23.3050 O.2     3  LEU3       -0.2718
      5  CB        71.4100  -56.3900   20.9750 C.3     3  LEU3        0.0284
      6  CG        71.7180  -54.8910   21.0110 C.3     3  LEU3        0.0019
      7  CD1       70.8990  -54.2370   22.1120 C.3     3  LEU3        0.0001
      8  CD2       73.1910  -54.6560   21.2460 C.3     3  LEU3        0.0001
      9  N         70.7950  -59.3760   21.6340 N.am    4  TYR4       -0.1962
     10  CA        69.7940  -60.4240   21.7750 C.3     4  TYR4        0.1771
     11  C         70.1640  -61.5400   22.7430 C.2     4  TYR4        0.2620
     12  O         71.2780  -62.0550   22.7110 O.2     4  TYR4       -0.2715
     13  CB        69.4660  -61.0270   20.4040 C.3     4  TYR4        0.0574
     14  CG        70.6670  -61.5180   19.6300 C.ar    4  TYR4       -0.0198
     15  CD1       71.5380  -60.6210   19.0100 C.ar    4  TYR4       -0.0009
     16  CD2       70.9390  -62.8830   19.5190 C.ar    4  TYR4       -0.0009
     17  CE1       72.6480  -61.0680   18.2980 C.ar    4  TYR4        0.0417
     18  CE2       72.0470  -63.3410   18.8110 C.ar    4  TYR4        0.0417
     19  CZ        72.8980  -62.4270   18.2030 C.ar    4  TYR4        0.1957
     20  OH        74.0030  -62.8700   17.5100 O.3     4  TYR4       -0.2866
     21  N         69.2150  -61.8990   23.6050 N.am    5  THR5       -0.1937
     22  CA        69.4090  -62.9740   24.5740 C.3     5  THR5        0.2028
     23  C         68.4910  -64.1340   24.1920 C.2     5  THR5        0.2642
     24  O         68.7010  -65.2710   24.6130 O.2     5  THR5       -0.2714
     25  CB        69.0480  -62.5380   26.0200 C.3     5  THR5        0.1808
     26  OG1       67.6310  -62.3540   26.1290 O.3     5  THR5       -0.2208
     27  CG2       69.7500  -61.2440   26.3890 C.3     5  THR5        0.0379
     28  N         67.4680  -63.8300   23.3960 N.am    6  LYS6       -0.1963
     29  CA        66.4950  -64.8220   22.9430 C.3     6  LYS6        0.1728
     30  C         65.5260  -65.2510   24.0510 C.2     6  LYS6        0.2617
     31  O         64.5820  -66.0020   23.8040 O.2     6  LYS6       -0.2715
     32  CB        67.2070  -66.0550   22.3770 C.3     6  LYS6        0.0311
     33  CG        68.1160  -65.7630   21.1980 C.3     6  LYS6        0.0038
     34  CD        68.7430  -67.0430   20.6670 C.3     6  LYS6        0.0206
     35  CE        69.6670  -66.7730   19.4920 C.3     6  LYS6        0.1093
     36  NZ        70.2880  -68.0300   18.9860 N.3     6  LYS6       -0.1314
     37  N         65.7460  -64.7650   25.2660 N.am    7  THR7       -0.1937
     38  CA        64.8710  -65.1190   26.3720 C.3     7  THR7        0.2028
     39  C         63.4480  -64.6260   26.1320 C.2     7  THR7        0.2643
     40  O         62.5210  -65.0190   26.8350 O.2     7  THR7       -0.2714
     41  CB        65.3820  -64.5410   27.7080 C.3     7  THR7        0.1808
     42  OG1       65.4580  -63.1130   27.6220 O.3     7  THR7       -0.2208
     43  CG2       66.7560  -65.0980   28.0310 C.3     7  THR7        0.0379
     44  N         63.2720  -63.7680   25.1330 N.am    8  GLY8       -0.1939
     45  CA        61.9410  -63.2630   24.8450 C.3     8  GLY8        0.2014
     46  C         61.3490  -63.8610   23.5830 C.2     8  GLY8        0.2638
     47  O         60.2730  -63.4500   23.1500 O.2     8  GLY8       -0.2714
     48  N         62.0470  -64.8330   22.9980 N.am    9  ASP9       -0.1971
     49  CA        61.5980  -65.4760   21.7660 C.3     9  ASP9        0.1709
     50  C         60.2720  -66.2220   21.8610 C.2     9  ASP9        0.2293
     51  O         59.6950  -66.5860   20.8330 O.2     9  ASP9       -0.2864
     52  CB        62.6710  -66.4400   21.2380 C.3     9  ASP9        0.1436
     53  CG        63.7800  -65.7280   20.4780 C.2     9  ASP9        0.3671
     54  OD1       63.6560  -64.5050   20.2380 O.co2   9  ASP9       -0.2456
     55  OD2       64.7720  -66.3970   20.1120 O.co2   9  ASP9       -0.2456
     56  N         58.5560  -61.5170   28.7720 N.3    13  THR13      -0.1203
     57  CA        59.6450  -60.5690   28.9450 C.3    13  THR13       0.1994
     58  C         59.7440  -60.1500   30.4060 C.2    13  THR13       0.2619
     59  O         58.8910  -60.5010   31.2230 O.2    13  THR13      -0.2717
     60  CB        59.4200  -59.3180   28.0660 C.3    13  THR13       0.1784
     61  OG1       60.6300  -58.5610   27.9930 O.3    13  THR13      -0.2211
     62  CG2       58.3120  -58.4460   28.6470 C.3    13  THR13       0.0376
     63  N         60.7870  -59.3990   30.7350 N.am   14  SER14      -0.1937
     64  CA        60.9790  -58.9570   32.1060 C.3    14  SER14       0.2055
     65  C         60.4750  -57.5530   32.3810 C.2    14  SER14       0.2642
     66  O         60.5510  -56.6620   31.5390 O.2    14  SER14      -0.2714
     67  CB        62.4580  -59.0390   32.4970 C.3    14  SER14       0.2130
     68  OG        62.8900  -60.3870   32.5590 O.3    14  SER14      -0.2179
     69  N         59.9590  -57.3820   33.5880 N.am   15  VAL15      -0.1977
     70  CA        59.4440  -56.1160   34.0680 C.3    15  VAL15       0.1596
     71  C         60.1570  -55.9370   35.4050 C.2    15  VAL15       0.2287
     72  O         60.8360  -56.8590   35.8650 O.2    15  VAL15      -0.2864
     73  CB        57.9140  -56.2090   34.2490 C.3    15  VAL15       0.0276
     74  CG1       57.4160  -55.1280   35.1560 C.3    15  VAL15       0.0022
     75  CG2       57.2370  -56.0880   32.8980 C.3    15  VAL15       0.0022
     76  N         58.2460  -61.3380   35.5350 N.3    19  ARG19      -0.1245
     77  CA        58.1460  -61.6010   34.1040 C.3    19  ARG19       0.1563
     78  C         56.6810  -61.6550   33.6930 C.2    19  ARG19       0.2260
     79  O         55.8390  -62.1680   34.4330 O.2    19  ARG19      -0.2867
     80  CB        58.8470  -62.9160   33.7460 C.3    19  ARG19       0.0307
     81  CG        60.3650  -62.8370   33.8530 C.3    19  ARG19       0.0489
     82  CD        61.0380  -64.0940   33.3310 C.3    19  ARG19       0.2205
     83  NE        60.8440  -64.2850   31.8920 N.pl3  19  ARG19      -0.0865
     84  CZ        61.3750  -63.5120   30.9460 C.cat  19  ARG19       0.5346
     85  NH1       62.1410  -62.4790   31.2700 N.pl3  19  ARG19       0.1354
     86  NH2       61.1420  -63.7770   29.6680 N.pl3  19  ARG19       0.1354
     87  N         54.4920  -60.4830   26.6730 N.3    22  LYS22      -0.1245
     88  CA        54.7590  -59.2370   25.9740 C.3    22  LYS22       0.1561
     89  C         53.5070  -58.4450   25.6110 C.2    22  LYS22       0.2260
     90  O         53.5980  -57.2600   25.2970 O.2    22  LYS22      -0.2867
     91  CB        55.6140  -59.5020   24.7310 C.3    22  LYS22       0.0271
     92  CG        57.0810  -59.7560   25.0630 C.3    22  LYS22       0.0035
     93  CD        57.9030  -60.0970   23.8320 C.3    22  LYS22       0.0206
     94  CE        59.3750  -60.2520   24.1800 C.3    22  LYS22       0.1093
     95  NZ        60.1870  -60.7170   23.0130 N.3    22  LYS22      -0.1314
     96  N         53.1730  -53.8540   29.5500 N.3    27  VAL27      -0.1245
     97  CA        54.2130  -53.7460   28.5340 C.3    27  VAL27       0.1561
     98  C         53.7180  -52.8650   27.3870 C.2    27  VAL27       0.2260
     99  O         54.4990  -52.1540   26.7520 O.2    27  VAL27      -0.2867
    100  CB        54.6040  -55.1390   27.9750 C.3    27  VAL27       0.0252
    101  CG1       55.7000  -54.9940   26.9370 C.3    27  VAL27       0.0019
    102  CG2       55.0800  -56.0440   29.1040 C.3    27  VAL27       0.0019
    103  N         54.0450  -49.2420   28.4580 N.3    30  TYR30      -0.1227
    104  CA        55.4760  -48.9760   28.4300 C.3    30  TYR30       0.1736
    105  C         55.9640  -48.8170   26.9870 C.2    30  TYR30       0.2596
    106  O         56.7150  -47.8960   26.6700 O.2    30  TYR30      -0.2718
    107  CB        56.2160  -50.1410   29.1030 C.3    30  TYR30       0.0548
    108  CG        57.7190  -50.0780   29.0010 C.ar   30  TYR30      -0.0200
    109  CD1       58.4520  -49.1580   29.7510 C.ar   30  TYR30      -0.0009
    110  CD2       58.4120  -50.9300   28.1420 C.ar   30  TYR30      -0.0009
    111  CE1       59.8450  -49.0870   29.6480 C.ar   30  TYR30       0.0417
    112  CE2       59.8010  -50.8690   28.0290 C.ar   30  TYR30       0.0417
    113  CZ        60.5100  -49.9440   28.7860 C.ar   30  TYR30       0.1957
    114  OH        61.8780  -49.8700   28.6750 O.3    30  TYR30      -0.2866
    115  N         55.5320  -49.7250   26.1170 N.am   31  GLY31      -0.1957
    116  CA        55.9410  -49.6790   24.7230 C.3    31  GLY31       0.1869
    117  C         55.4090  -48.4770   23.9640 C.2    31  GLY31       0.2309
    118  O         56.0990  -47.9250   23.1050 O.2    31  GLY31      -0.2863
    119  N         56.4680  -49.7600   34.4200 N.3    74  ALA74      -0.1245
    120  CA        56.9950  -51.1170   34.3330 C.3    74  ALA74       0.1562
    121  C         57.4020  -51.6750   35.6950 C.2    74  ALA74       0.2260
    122  O         58.0560  -52.7110   35.7730 O.2    74  ALA74      -0.2867
    123  CB        58.1870  -51.1500   33.3810 C.3    74  ALA74       0.0290
@<TRIPOS>BOND
     1    20    19    1
     2    19    17   ar
     3    19    18   ar
     4    17    15   ar
     5    18    16   ar
     6    36    35    1
     7    15    14   ar
     8    35    34    1
     9    16    14   ar
    10    14    13    1
    11    55    53   ar
    12    54    53   ar
    13    13    10    1
    14    53    52    1
    15    34    33    1
    16    51    50    2
    17     5     6    1
    18     5     2    1
    19     6     8    1
    20     6     7    1
    21    33    32    1
    22    52    49    1
    23     9    10    1
    24     9     3   am
    25    49    50    1
    26    49    48    1
    27    10    11    1
    28     1     2    1
    29     2     3    1
    30    32    29    1
    31     3     4    2
    32    12    11    2
    33    11    21   am
    34    29    28    1
    35    29    30    1
    36    48    46   am
    37    95    94    1
    38   118   117    2
    39    47    46    2
    40    28    23   am
    41    46    45    1
    42    21    22    1
    43    31    30    2
    44    93    94    1
    45    93    92    1
    46   117   116    1
    47    30    37   am
    48    23    22    1
    49    23    24    2
    50    22    25    1
    51   116   115    1
    52    91    92    1
    53    91    88    1
    54    45    44    1
    55    44    39   am
    56    37    38    1
    57    90    89    2
    58    89    88    1
    59    88    87    1
    60    25    26    1
    61    25    27    1
    62   115   105   am
    63    39    38    1
    64    39    40    2
    65    38    41    1
    66   106   105    2
    67    99    98    2
    68   101   100    1
    69   105   104    1
    70    98    97    1
    71    42    41    1
    72    41    43    1
    73   100    97    1
    74   100   102    1
    75    61    60    1
    76   112   110   ar
    77   112   113   ar
    78    60    62    1
    79    60    57    1
    80   110   108   ar
    81   104   103    1
    82   104   107    1
    83    97    96    1
    84   114   113    1
    85    56    57    1
    86   113   111   ar
    87    57    58    1
    88   108   107    1
    89   108   109   ar
    90   111   109   ar
    91    86    84    1
    92    58    63   am
    93    58    59    2
    94    63    64    1
    95    84    85    1
    96    84    83    2
    97    66    65    2
    98    83    82    1
    99    64    65    1
   100    64    67    1
   101    65    69   am
   102    67    68    1
   103    75    73    1
   104    82    81    1
   105   123   120    1
   106    69    70    1
   107    78    77    1
   108    78    79    2
   109    80    81    1
   110    80    77    1
   111    70    73    1
   112    70    71    1
   113    77    76    1
   114    73    74    1
   115   120   119    1
   116   120   121    1
   117    71    72    2
   118   121   122    2
