@<TRIPOS>MOLECULE
tmp/3ke7B00.pdb
 135 134 0 0 0
SMALL
GASTEIGER

@<TRIPOS>ATOM
      1  N         30.1550   61.7420    8.0840 N.3    24  LEU24      -0.1245
      2  CA        29.5150   63.0370    8.1980 C.3    24  LEU24       0.1561
      3  C         30.4020   64.1960    7.8230 C.2    24  LEU24       0.2260
      4  O         29.9240   65.1830    7.2310 O.2    24  LEU24      -0.2867
      5  CB        28.9970   63.2620    9.6380 C.3    24  LEU24       0.0270
      6  CG        27.7240   62.4550    9.9510 C.3    24  LEU24       0.0019
      7  CD1       27.5030   62.4040   11.4170 C.3    24  LEU24       0.0001
      8  CD2       26.5680   63.0710    9.2080 C.3    24  LEU24       0.0001
      9  N         28.7770   58.3530    2.3690 N.3    31  PHE31      -0.1241
     10  CA        27.7370   57.4580    2.8620 C.3    31  PHE31       0.1605
     11  C         27.3070   56.4130    1.8630 C.2    31  PHE31       0.2264
     12  O         26.8890   55.3210    2.2840 O.2    31  PHE31      -0.2867
     13  CB        26.5230   58.2360    3.3880 C.3    31  PHE31       0.0534
     14  CG        26.6590   58.6950    4.8130 C.ar   31  PHE31      -0.0203
     15  CD1       26.7370   57.7790    5.8600 C.ar   31  PHE31      -0.0042
     16  CD2       26.7040   60.0490    5.1120 C.ar   31  PHE31      -0.0042
     17  CE1       26.8590   58.2000    7.1840 C.ar   31  PHE31      -0.0003
     18  CE2       26.8340   60.4860    6.4100 C.ar   31  PHE31      -0.0003
     19  CZ        26.8640   59.5790    7.4600 C.ar   31  PHE31      -0.0000
     20  N         16.7650   53.8290    2.9650 N.3    41  TYR41      -0.1241
     21  CA        17.0650   55.1880    3.4280 C.3    41  TYR41       0.1605
     22  C         15.8270   56.0910    3.4550 C.2    41  TYR41       0.2264
     23  O         14.9950   56.0950    2.5270 O.2    41  TYR41      -0.2867
     24  CB        18.0800   55.8080    2.4320 C.3    41  TYR41       0.0534
     25  CG        18.4570   57.2670    2.6640 C.ar   41  TYR41      -0.0201
     26  CD1       17.6400   58.2690    2.2110 C.ar   41  TYR41      -0.0009
     27  CD2       19.6800   57.6410    3.2880 C.ar   41  TYR41      -0.0009
     28  CE1       17.9470   59.5750    2.3990 C.ar   41  TYR41       0.0417
     29  CE2       20.0020   58.9480    3.4610 C.ar   41  TYR41       0.0417
     30  CZ        19.0990   59.9280    3.0400 C.ar   41  TYR41       0.1957
     31  OH        19.4260   61.2720    3.2090 O.3    41  TYR41      -0.2866
     32  N         14.7850   60.2930    4.5860 N.3    43  ASP43      -0.1239
     33  CA        15.1190   61.6220    5.0810 C.3    43  ASP43       0.1674
     34  C         13.8900   62.4990    4.8630 C.2    43  ASP43       0.2266
     35  O         12.9390   62.0650    4.2550 O.2    43  ASP43      -0.2867
     36  CB        16.4300   62.2330    4.5230 C.3    43  ASP43       0.1410
     37  CG        16.3350   62.7520    3.1060 C.2    43  ASP43       0.3668
     38  OD1       15.2560   63.1620    2.6150 O.co2  43  ASP43      -0.2456
     39  OD2       17.4430   62.8800    2.4710 O.co2  43  ASP43      -0.2456
     40  N         20.3860   59.4270   -5.7210 N.3    59  TYR59      -0.1227
     41  CA        19.9720   60.5150   -4.8500 C.3    59  TYR59       0.1736
     42  C         21.1880   61.3590   -4.3840 C.2    59  TYR59       0.2595
     43  O         21.2040   62.5960   -4.4770 O.2    59  TYR59      -0.2718
     44  CB        19.2400   59.9280   -3.6430 C.3    59  TYR59       0.0548
     45  CG        18.7350   60.9360   -2.6670 C.ar   59  TYR59      -0.0200
     46  CD1       17.8210   61.8890   -3.0510 C.ar   59  TYR59      -0.0009
     47  CD2       19.1520   60.9210   -1.3390 C.ar   59  TYR59      -0.0009
     48  CE1       17.3450   62.8170   -2.1460 C.ar   59  TYR59       0.0417
     49  CE2       18.6470   61.8010   -0.4240 C.ar   59  TYR59       0.0417
     50  CZ        17.7610   62.7710   -0.8480 C.ar   59  TYR59       0.1957
     51  OH        17.2560   63.7380    0.0290 O.3    59  TYR59      -0.2866
     52  N         22.2220   60.6700   -3.9160 N.am   60  TYR60      -0.1976
     53  CA        23.4060   61.3410   -3.4120 C.3    60  TYR60       0.1639
     54  C         24.1870   62.0830   -4.4900 C.2    60  TYR60       0.2290
     55  O         24.8320   63.1050   -4.2180 O.2    60  TYR60      -0.2864
     56  CB        24.3420   60.3200   -2.6970 C.3    60  TYR60       0.0560
     57  CG        24.1460   60.2430   -1.2280 C.ar   60  TYR60      -0.0198
     58  CD1       23.1120   59.5570   -0.6750 C.ar   60  TYR60      -0.0009
     59  CD2       25.0330   60.8720   -0.3920 C.ar   60  TYR60      -0.0009
     60  CE1       22.9460   59.4730    0.6910 C.ar   60  TYR60       0.0417
     61  CE2       24.8820   60.8280    0.9850 C.ar   60  TYR60       0.0417
     62  CZ        23.8460   60.1210    1.5230 C.ar   60  TYR60       0.1957
     63  OH        23.7320   60.1250    2.9160 O.3    60  TYR60      -0.2866
     64  N         27.4650   67.8620   -0.4750 N.3    64  LEU64      -0.1231
     65  CA        27.7840   67.3910    0.8810 C.3    64  LEU64       0.1678
     66  C         29.2810   67.5310    1.0690 C.2    64  LEU64       0.2434
     67  O         30.0390   67.5100    0.0920 O.2    64  LEU64      -0.2733
     68  CB        27.3580   65.9140    1.0850 C.3    64  LEU64       0.0284
     69  CG        25.8860   65.5530    0.9090 C.3    64  LEU64       0.0019
     70  CD1       25.7430   64.0160    0.9170 C.3    64  LEU64       0.0001
     71  CD2       24.9960   66.1700    1.9470 C.3    64  LEU64       0.0001
     72  N         29.7230   67.6760    2.3230 N.am   65  PRO65      -0.2718
     73  CA        28.9430   67.7220    3.5260 C.3    65  PRO65       0.1520
     74  C         28.2050   69.0520    3.5780 C.2    65  PRO65       0.2440
     75  O         28.6240   70.0290    2.8920 O.2    65  PRO65      -0.2731
     76  CB        29.9990   67.6020    4.6540 C.3    65  PRO65       0.0310
     77  CG        31.2680   68.0900    4.0570 C.3    65  PRO65       0.0237
     78  CD        31.1760   67.8100    2.5780 C.3    65  PRO65       0.0939
     79  N         27.1010   69.1000    4.3390 N.am   66  PRO66      -0.2727
     80  CA        26.3310   70.3300    4.4760 C.3    66  PRO66       0.1402
     81  C         26.9080   71.2680    5.5310 C.2    66  PRO66       0.2269
     82  O         26.5890   72.4400    5.5210 O.2    66  PRO66      -0.2865
     83  CB        24.9480   69.8240    4.9000 C.3    66  PRO66       0.0296
     84  CG        25.2480   68.6000    5.6730 C.3    66  PRO66       0.0237
     85  CD        26.4330   67.9590    4.9810 C.3    66  PRO66       0.0939
     86  N         21.8390   64.9900   16.2710 N.3    89  LEU89      -0.1245
     87  CA        22.9290   65.7300   15.6650 C.3    89  LEU89       0.1561
     88  C         22.5570   67.1690   15.4840 C.2    89  LEU89       0.2260
     89  O         21.5690   67.4620   14.8490 O.2    89  LEU89      -0.2867
     90  CB        23.2620   65.1490   14.2910 C.3    89  LEU89       0.0270
     91  CG        24.5670   65.6670   13.5960 C.3    89  LEU89       0.0019
     92  CD1       25.7460   65.0420   14.2600 C.3    89  LEU89       0.0001
     93  CD2       24.5600   65.3010   12.1090 C.3    89  LEU89       0.0001
     94  N         23.6680   70.2230   13.4230 N.3    91  SER91      -0.1217
     95  CA        24.4360   70.5470   12.2100 C.3    91  SER91       0.1889
     96  C         24.4160   72.0520   12.0160 C.2    91  SER91       0.2288
     97  O         23.3580   72.6170   11.7130 O.2    91  SER91      -0.2866
     98  CB        23.7800   69.8680   10.9920 C.3    91  SER91       0.2089
     99  OG        24.5210   70.0360    9.7840 O.3    91  SER91      -0.2183
    100  N         20.7210   72.9310   12.0250 N.3    98  ILE98      -0.1245
    101  CA        19.6730   71.9630   11.8310 C.3    98  ILE98       0.1561
    102  C         19.8510   70.8810   12.8990 C.2    98  ILE98       0.2260
    103  O         20.9430   70.3560   13.0950 O.2    98  ILE98      -0.2867
    104  CB        19.6630   71.3040   10.4300 C.3    98  ILE98       0.0252
    105  CG1       19.5730   72.3430    9.3220 C.3    98  ILE98       0.0019
    106  CG2       18.4430   70.3200   10.3250 C.3    98  ILE98       0.0019
    107  CD1       19.5950   71.7200    7.9100 C.3    98  ILE98       0.0001
    108  N         18.8550   67.1860   14.1540 N.3   100  TRP100     -0.1241
    109  CA        18.4740   65.9250   13.5580 C.3   100  TRP100      0.1605
    110  C         18.3670   64.7880   14.5770 C.2   100  TRP100      0.2264
    111  O         19.0420   64.7740   15.5760 O.2   100  TRP100     -0.2867
    112  CB        19.5520   65.4730   12.5590 C.3   100  TRP100      0.0550
    113  CG        19.8060   66.3470   11.3780 C.ar  100  TRP100      0.0003
    114  CD1       20.7570   67.3340   11.2810 C.ar  100  TRP100      0.0946
    115  CD2       19.1570   66.2890   10.1040 C.ar  100  TRP100      0.0152
    116  NE1       20.7340   67.8960   10.0270 N.ar  100  TRP100     -0.2442
    117  CE2       19.7720   67.2620    9.2770 C.ar  100  TRP100      0.0810
    118  CE3       18.1490   65.4850    9.5610 C.ar  100  TRP100      0.0012
    119  CZ2       19.3830   67.4730    7.9510 C.ar  100  TRP100      0.0191
    120  CZ3       17.7660   65.7060    8.2400 C.ar  100  TRP100      0.0001
    121  CH2       18.3880   66.6870    7.4560 C.ar  100  TRP100      0.0015
    122  N         17.0490   59.5790    8.7490 N.3   121  TRP121     -0.1241
    123  CA        17.2940   60.9220    9.2050 C.3   121  TRP121      0.1605
    124  C         15.9610   61.6280    9.3570 C.2   121  TRP121      0.2264
    125  O         15.1210   61.5550    8.4440 O.2   121  TRP121     -0.2867
    126  CB        18.1200   61.7300    8.1820 C.3   121  TRP121      0.0550
    127  CG        19.5560   61.3560    8.0970 C.ar  121  TRP121      0.0003
    128  CD1       20.1500   60.5880    7.1790 C.ar  121  TRP121      0.0946
    129  CD2       20.5760   61.7490    9.0240 C.ar  121  TRP121      0.0152
    130  NE1       21.4960   60.4850    7.4480 N.ar  121  TRP121     -0.2442
    131  CE2       21.7850   61.2090    8.5720 C.ar  121  TRP121      0.0810
    132  CE3       20.5900   62.5700   10.1420 C.ar  121  TRP121      0.0012
    133  CZ2       22.9900   61.3940    9.2560 C.ar  121  TRP121      0.0191
    134  CZ3       21.7920   62.8050   10.8090 C.ar  121  TRP121      0.0001
    135  CH2       22.9770   62.1920   10.3740 C.ar  121  TRP121      0.0015
@<TRIPOS>BOND
     1    40    41    1
     2    41    42    1
     3    41    44    1
     4    54    55    2
     5    54    53    1
     6    43    42    2
     7    42    52   am
     8    52    53    1
     9    44    45    1
    10    53    56    1
    11    46    45   ar
    12    46    48   ar
    13    56    57    1
    14    45    47   ar
    15    48    50   ar
    16    47    49   ar
    17    57    58   ar
    18    57    59   ar
    19    50    49   ar
    20    50    51    1
    21    58    60   ar
    22    64    65    1
    23    59    61   ar
    24    67    66    2
    25    60    62   ar
    26    65    66    1
    27    65    68    1
    28    69    70    1
    29    69    68    1
    30    69    71    1
    31    61    62   ar
    32    66    72   am
    33    62    63    1
    34    11    12    2
    35    11    10    1
    36    26    28   ar
    37    26    25   ar
    38    72    78    1
    39    72    73    1
    40     9    10    1
    41    28    30   ar
    42    24    25    1
    43    24    21    1
    44    39    37   ar
    45    23    22    2
    46    78    77    1
    47    38    37   ar
    48    25    27   ar
    49    10    13    1
    50    75    74    2
    51    20    21    1
    52    30    31    1
    53    30    29   ar
    54    37    36    1
    55    27    29   ar
    56    13    14    1
    57    21    22    1
    58    73    74    1
    59    73    76    1
    60    74    79   am
    61    77    76    1
    62    35    34    2
    63    79    80    1
    64    79    85    1
    65    80    83    1
    66    80    81    1
    67    36    33    1
    68    32    33    1
    69    14    16   ar
    70    14    15   ar
    71    34    33    1
    72    83    84    1
    73    85    84    1
    74    16    18   ar
    75    82    81    2
    76    15    17   ar
    77    18    19   ar
    78   128   130   ar
    79   128   127   ar
    80    17    19   ar
    81     4     3    2
    82   130   131   ar
    83   121   119   ar
    84   121   120   ar
    85     3     2    1
    86   107   105    1
    87   119   117   ar
    88     1     2    1
    89   127   126    1
    90   127   129   ar
    91   126   123    1
    92     2     5    1
    93   120   118   ar
    94   125   124    2
    95   131   129   ar
    96   131   133   ar
    97   122   123    1
    98   129   132   ar
    99   123   124    1
   100     8     6    1
   101   133   135   ar
   102   117   116   ar
   103   117   115   ar
   104   105   104    1
   105   118   115   ar
   106     5     6    1
   107    99    98    1
   108     6     7    1
   109   116   114   ar
   110   115   113   ar
   111   132   134   ar
   112   106   104    1
   113   135   134   ar
   114   104   101    1
   115    98    95    1
   116   114   113   ar
   117   113   112    1
   118    97    96    2
   119   101   100    1
   120   101   102    1
   121    96    95    1
   122    93    91    1
   123    95    94    1
   124   112   109    1
   125   102   103    2
   126   109   108    1
   127   109   110    1
   128    91    92    1
   129    91    90    1
   130    90    87    1
   131   110   111    2
   132    89    88    2
   133    88    87    1
   134    87    86    1
