@<TRIPOS>MOLECULE
tmp/3kecA00.pdb
 224 225 0 0 0
SMALL
GASTEIGER

@<TRIPOS>ATOM
      1  N         86.1640   11.3770   21.3750 N.3    37  LYS37      -0.1245
      2  CA        86.1710   10.4560   22.5240 C.3    37  LYS37       0.1561
      3  C         84.8390   10.4650   23.2820 C.2    37  LYS37       0.2260
      4  O         84.3500    9.4090   23.6990 O.2    37  LYS37      -0.2867
      5  CB        87.3120   10.8080   23.4820 C.3    37  LYS37       0.0271
      6  CG        87.6880    9.7020   24.4760 C.3    37  LYS37       0.0035
      7  CD        88.7270   10.2120   25.4890 C.3    37  LYS37       0.0206
      8  CE        89.5510    9.0970   26.1320 C.3    37  LYS37       0.1093
      9  NZ        88.8520    8.4070   27.2580 N.3    37  LYS37      -0.1314
     10  N         78.5770   24.7610   33.3750 N.3    82  LEU82      -0.1231
     11  CA        79.7690   24.5340   32.5650 C.3    82  LEU82       0.1693
     12  C         79.4250   24.4620   31.0830 C.2    82  LEU82       0.2591
     13  O         80.2750   24.7000   30.2340 O.2    82  LEU82      -0.2718
     14  CB        80.4210   23.2150   32.9650 C.3    82  LEU82       0.0284
     15  CG        80.8090   23.0430   34.4320 C.3    82  LEU82       0.0019
     16  CD1       81.5200   21.7060   34.6000 C.3    82  LEU82       0.0001
     17  CD2       81.6970   24.1950   34.9100 C.3    82  LEU82       0.0001
     18  N         78.1700   24.1110   30.8020 N.am   83  ALA83      -0.1980
     19  CA        77.6900   23.7980   29.4720 C.3    83  ALA83       0.1597
     20  C         76.2060   23.4450   29.5770 C.2    83  ALA83       0.2287
     21  O         75.6990   23.1940   30.6780 O.2    83  ALA83      -0.2864
     22  CB        78.4730   22.6110   28.8900 C.3    83  ALA83       0.0319
     23  N         92.4840   18.9380   29.0700 N.3   106  SER106     -0.1217
     24  CA        92.3960   17.4990   28.8880 C.3   106  SER106      0.1889
     25  C         93.0760   16.8080   30.0770 C.2   106  SER106      0.2288
     26  O         93.7600   15.7930   29.9140 O.2   106  SER106     -0.2866
     27  CB        93.0530   17.1160   27.5680 C.3   106  SER106      0.2089
     28  OG        94.3820   17.6070   27.5200 O.3   106  SER106     -0.2183
     29  N         87.6270   19.1940   32.5460 N.3   112  ASN112     -0.1240
     30  CA        88.0250   18.2840   31.4800 C.3   112  ASN112      0.1653
     31  C         86.9630   18.3180   30.3890 C.2   112  ASN112      0.2266
     32  O         85.8310   17.9110   30.6290 O.2   112  ASN112     -0.2867
     33  CB        88.1930   16.8690   32.0550 C.3   112  ASN112      0.1155
     34  CG        88.7650   15.8830   31.0570 C.2   112  ASN112      0.2627
     35  OD1       89.8890   15.4090   31.2080 O.2   112  ASN112     -0.2716
     36  ND2       87.9950   15.5600   30.0470 N.am  112  ASN112     -0.0877
     37  N         86.4920   16.6740   27.5170 N.3   114  PHE114     -0.1227
     38  CA        85.9590   15.3410   27.1850 C.3   114  PHE114      0.1736
     39  C         84.8310   14.9340   28.1420 C.2   114  PHE114      0.2595
     40  O         83.7750   14.4550   27.7150 O.2   114  PHE114     -0.2718
     41  CB        87.0800   14.2900   27.2080 C.3   114  PHE114      0.0547
     42  CG        86.6010   12.8960   27.5110 C.ar  114  PHE114     -0.0202
     43  CD1       86.8750   12.3020   28.7360 C.ar  114  PHE114     -0.0042
     44  CD2       85.8490   12.1890   26.5840 C.ar  114  PHE114     -0.0042
     45  CE1       86.4180   11.0180   29.0250 C.ar  114  PHE114     -0.0003
     46  CE2       85.3850   10.9150   26.8700 C.ar  114  PHE114     -0.0003
     47  CZ        85.6670   10.3300   28.0950 C.ar  114  PHE114     -0.0000
     48  N         85.0680   15.1390   29.4370 N.am  115  LEU115     -0.1966
     49  CA        84.1440   14.7100   30.4870 C.3   115  LEU115      0.1728
     50  C         82.8250   15.4860   30.4140 C.2   115  LEU115      0.2616
     51  O         81.7340   14.8900   30.4320 O.2   115  LEU115     -0.2715
     52  CB        84.8120   14.8720   31.8590 C.3   115  LEU115      0.0311
     53  CG        84.2120   14.1350   33.0660 C.3   115  LEU115      0.0022
     54  CD1       83.9310   12.6550   32.7570 C.3   115  LEU115      0.0001
     55  CD2       85.1450   14.2540   34.2670 C.3   115  LEU115      0.0001
     56  N         82.9260   16.8100   30.3030 N.am  116  VAL116     -0.1977
     57  CA        81.7370   17.6580   30.1690 C.3   116  VAL116      0.1596
     58  C         81.0040   17.3520   28.8550 C.2   116  VAL116      0.2287
     59  O         79.7730   17.2340   28.8320 O.2   116  VAL116     -0.2864
     60  CB        82.0740   19.1610   30.2560 C.3   116  VAL116      0.0276
     61  CG1       80.8010   20.0100   30.0480 C.3   116  VAL116      0.0022
     62  CG2       82.7150   19.4840   31.6120 C.3   116  VAL116      0.0022
     63  N         78.9710   14.1730   29.1080 N.3   119  HIS119     -0.1226
     64  CA        77.7400   14.5050   29.8340 C.3   119  HIS119      0.1752
     65  C         76.7120   15.2420   28.9550 C.2   119  HIS119      0.2595
     66  O         75.5520   14.8330   28.8780 O.2   119  HIS119     -0.2718
     67  CB        78.0890   15.3450   31.0850 C.3   119  HIS119      0.0759
     68  CG        76.8980   15.8350   31.8500 C.ar  119  HIS119      0.0818
     69  ND1       76.5140   15.2930   33.0580 N.ar  119  HIS119     -0.2268
     70  CD2       76.0180   16.8300   31.5900 C.ar  119  HIS119      0.1154
     71  CE1       75.4400   15.9240   33.4990 C.ar  119  HIS119      0.1986
     72  NE2       75.1220   16.8650   32.6290 N.ar  119  HIS119     -0.2212
     73  N         77.1380   16.3190   28.2930 N.am  120  GLU120     -0.1979
     74  CA        76.2500   17.0930   27.4010 C.3   120  GLU120      0.1602
     75  C         75.6930   16.2710   26.2380 C.2   120  GLU120      0.2287
     76  O         74.5140   16.3890   25.9070 O.2   120  GLU120     -0.2864
     77  CB        76.9610   18.3350   26.8420 C.3   120  GLU120      0.0415
     78  CG        77.3920   19.3590   27.8840 C.3   120  GLU120      0.1163
     79  CD        76.2840   19.7620   28.8310 C.2   120  GLU120      0.3649
     80  OE1       75.1300   19.8840   28.3850 O.co2 120  GLU120     -0.2457
     81  OE2       76.5710   19.9590   30.0330 O.co2 120  GLU120     -0.2457
     82  N         74.9920    9.9540   42.5390 N.3   133  PRO133     -0.2102
     83  CA        76.2180   10.7730   42.5300 C.3   133  PRO133      0.1504
     84  C         77.3870   10.2470   41.6760 C.2   133  PRO133      0.2576
     85  O         78.2380   11.0380   41.2710 O.2   133  PRO133     -0.2718
     86  CB        76.6240   10.8140   44.0080 C.3   133  PRO133      0.0282
     87  CG        75.3620   10.5750   44.7500 C.3   133  PRO133      0.0208
     88  CD        74.6010    9.5980   43.9160 C.3   133  PRO133      0.0893
     89  N         77.4290    8.9390   41.4240 N.am  134  GLY134     -0.1943
     90  CA        78.5040    8.3120   40.6380 C.3   134  GLY134      0.2014
     91  C         78.2700    8.2710   39.1400 C.2   134  GLY134      0.2639
     92  O         79.1910    7.9870   38.3660 O.2   134  GLY134     -0.2714
     93  N         77.0420    8.5660   38.7160 N.am  135  ALA135     -0.1963
     94  CA        76.6870    8.5110   37.3000 C.3   135  ALA135      0.1728
     95  C         77.2940    9.6910   36.5310 C.2   135  ALA135      0.2616
     96  O         77.4600   10.7770   37.0860 O.2   135  ALA135     -0.2715
     97  CB        75.1640    8.4980   37.1390 C.3   135  ALA135      0.0334
     98  N         77.6230    9.4620   35.2570 N.am  136  LEU136     -0.1977
     99  CA        78.0900   10.5230   34.3690 C.3   136  LEU136      0.1596
    100  C         77.0410   11.6190   34.2150 C.2   136  LEU136      0.2287
    101  O         77.3970   12.7860   34.0630 O.2   136  LEU136     -0.2864
    102  CB        78.4660    9.9640   32.9860 C.3   136  LEU136      0.0297
    103  CG        78.8160   10.9830   31.8860 C.3   136  LEU136      0.0022
    104  CD1       80.0450   11.8210   32.2690 C.3   136  LEU136      0.0001
    105  CD2       79.0230   10.2870   30.5420 C.3   136  LEU136      0.0001
    106  N         74.9380   12.6450   36.5340 N.3   138  PHE138     -0.1228
    107  CA        74.7190   13.4460   37.7430 C.3   138  PHE138      0.1721
    108  C         74.9810   14.9360   37.3820 C.2   138  PHE138      0.2437
    109  O         75.8620   15.2220   36.5660 O.2   138  PHE138     -0.2733
    110  CB        75.6240   12.9550   38.8810 C.3   138  PHE138      0.0547
    111  CG        75.2620   13.5050   40.2420 C.ar  138  PHE138     -0.0202
    112  CD1       74.0980   13.1090   40.8820 C.ar  138  PHE138     -0.0042
    113  CD2       76.0940   14.4180   40.8770 C.ar  138  PHE138     -0.0042
    114  CE1       73.7600   13.6170   42.1250 C.ar  138  PHE138     -0.0003
    115  CE2       75.7650   14.9340   42.1170 C.ar  138  PHE138     -0.0003
    116  CZ        74.5950   14.5270   42.7480 C.ar  138  PHE138     -0.0000
    117  N         74.1810   15.8780   37.9330 N.am  139  PRO139     -0.2718
    118  CA        74.2850   17.3030   37.5670 C.3   139  PRO139      0.1535
    119  C         75.6540   17.9600   37.8030 C.2   139  PRO139      0.2598
    120  O         76.0240   18.9070   37.0950 O.2   139  PRO139     -0.2715
    121  CB        73.2360   17.9720   38.4720 C.3   139  PRO139      0.0310
    122  CG        72.3010   16.9220   38.8180 C.3   139  PRO139      0.0237
    123  CD        73.1020   15.6620   38.9130 C.3   139  PRO139      0.0939
    124  N         76.4030   17.4600   38.7760 N.am  140  ILE140     -0.1964
    125  CA        77.5920   18.1610   39.2600 C.3   140  ILE140      0.1727
    126  C         78.8810   17.4200   38.9170 C.2   140  ILE140      0.2616
    127  O         78.9980   16.2170   39.1440 O.2   140  ILE140     -0.2715
    128  CB        77.4920   18.3920   40.7740 C.3   140  ILE140      0.0290
    129  CG1       76.2700   19.2820   41.0690 C.3   140  ILE140      0.0022
    130  CG2       78.7830   19.0360   41.3170 C.3   140  ILE140      0.0023
    131  CD1       75.5970   18.9730   42.3830 C.3   140  ILE140      0.0001
    132  N         79.8260   18.1680   38.3500 N.am  141  TYR141     -0.1960
    133  CA        81.1310   17.6700   37.9360 C.3   141  TYR141      0.1771
    134  C         81.9430   17.2000   39.1440 C.2   141  TYR141      0.2620
    135  O         82.1990   17.9680   40.0640 O.2   141  TYR141     -0.2715
    136  CB        81.8650   18.7820   37.1680 C.3   141  TYR141      0.0574
    137  CG        83.2180   18.4190   36.5870 C.ar  141  TYR141     -0.0198
    138  CD1       83.3400   17.9810   35.2720 C.ar  141  TYR141     -0.0009
    139  CD2       84.3820   18.5640   37.3350 C.ar  141  TYR141     -0.0009
    140  CE1       84.5820   17.6710   34.7280 C.ar  141  TYR141      0.0417
    141  CE2       85.6290   18.2570   36.8000 C.ar  141  TYR141      0.0417
    142  CZ        85.7210   17.8100   35.5010 C.ar  141  TYR141      0.1957
    143  OH        86.9530   17.5020   34.9650 O.3   141  TYR141     -0.2866
    144  N         82.3360   15.9260   39.1220 N.am  142  THR142     -0.1937
    145  CA        83.0170   15.2640   40.2390 C.3   142  THR142      0.2028
    146  C         84.0750   14.2940   39.6960 C.2   142  THR142      0.2642
    147  O         83.8660   13.0730   39.6680 O.2   142  THR142     -0.2714
    148  CB        82.0060   14.4870   41.1360 C.3   142  THR142      0.1808
    149  OG1       80.8340   15.2860   41.3670 O.3   142  THR142     -0.2208
    150  CG2       82.6370   14.0990   42.4740 C.3   142  THR142      0.0379
    151  N         85.1950   14.8620   39.2490 N.am  143  TYR143     -0.1959
    152  CA        86.3230   14.1110   38.6790 C.3   143  TYR143      0.1771
    153  C         86.8110   13.0580   39.6780 C.2   143  TYR143      0.2620
    154  O         87.1260   13.3870   40.8240 O.2   143  TYR143     -0.2715
    155  CB        87.4640   15.0870   38.3390 C.3   143  TYR143      0.0574
    156  CG        88.5280   14.5660   37.3850 C.ar  143  TYR143     -0.0198
    157  CD1       88.3410   14.6110   36.0060 C.ar  143  TYR143     -0.0009
    158  CD2       89.7410   14.0720   37.8640 C.ar  143  TYR143     -0.0009
    159  CE1       89.3240   14.1520   35.1280 C.ar  143  TYR143      0.0417
    160  CE2       90.7270   13.6090   36.9930 C.ar  143  TYR143      0.0417
    161  CZ        90.5080   13.6530   35.6280 C.ar  143  TYR143      0.1957
    162  OH        91.4860   13.1980   34.7700 O.3   143  TYR143     -0.2866
    163  N         86.8520   11.7960   39.2490 N.am  144  THR144     -0.1937
    164  CA        87.2390   10.6880   40.1380 C.3   144  THR144      0.2028
    165  C         88.7510   10.5990   40.3360 C.2   144  THR144      0.2643
    166  O         89.2140   10.1400   41.3820 O.2   144  THR144     -0.2714
    167  CB        86.7430    9.3130   39.6200 C.3   144  THR144      0.1808
    168  OG1       87.4140    8.9790   38.3970 O.3   144  THR144     -0.2208
    169  CG2       85.2300    9.3150   39.4010 C.3   144  THR144      0.0379
    170  N         89.5130   11.0150   39.3240 N.am  145  GLY145     -0.1939
    171  CA        90.9780   10.9490   39.3710 C.3   145  GLY145      0.2014
    172  C         91.5310    9.6490   38.8060 C.2   145  GLY145      0.2639
    173  O         92.7470    9.5050   38.6460 O.2   145  GLY145     -0.2714
    174  N         90.6330    8.7180   38.4780 N.am  146  LYS146     -0.1963
    175  CA        91.0090    7.3650   38.0740 C.3   146  LYS146      0.1728
    176  C         91.6960    7.4050   36.7080 C.2   146  LYS146      0.2617
    177  O         91.4950    8.3400   35.9300 O.2   146  LYS146     -0.2715
    178  CB        89.7690    6.4510   38.0560 C.3   146  LYS146      0.0311
    179  CG        90.0140    5.0330   38.5790 C.3   146  LYS146      0.0038
    180  CD        88.7310    4.3830   39.1270 C.3   146  LYS146      0.0206
    181  CE        87.7010    4.1280   38.0310 C.3   146  LYS146      0.1093
    182  NZ        86.4820    3.4230   38.5390 N.3   146  LYS146     -0.1314
    183  N         92.5150    6.3930   36.4340 N.am  147  SER147     -0.1936
    184  CA        93.3900    6.3910   35.2550 C.3   147  SER147      0.2055
    185  C         92.6100    6.3950   33.9390 C.2   147  SER147      0.2643
    186  O         92.8490    7.2440   33.0760 O.2   147  SER147     -0.2714
    187  CB        94.3410    5.1860   35.3000 C.3   147  SER147      0.2130
    188  OG        95.4200    5.3460   34.3910 O.3   147  SER147     -0.2179
    189  N         91.6720    5.4560   33.8020 N.am  148  HIS148     -0.1959
    190  CA        90.8900    5.3070   32.5740 C.3   148  HIS148      0.1787
    191  C         89.4040    5.5360   32.8220 C.2   148  HIS148      0.2620
    192  O         88.8930    5.2360   33.9040 O.2   148  HIS148     -0.2715
    193  CB        91.1260    3.9210   31.9730 C.3   148  HIS148      0.0785
    194  CG        92.5680    3.6400   31.6830 C.ar  148  HIS148      0.0821
    195  ND1       93.1580    3.9530   30.4780 N.ar  148  HIS148     -0.2267
    196  CD2       93.5450    3.1070   32.4530 C.ar  148  HIS148      0.1154
    197  CE1       94.4340    3.6120   30.5120 C.ar  148  HIS148      0.1986
    198  NE2       94.6950    3.0970   31.7000 N.ar  148  HIS148     -0.2212
    199  N         88.7230    6.0780   31.8140 N.am  149  PHE149     -0.1960
    200  CA        87.2950    6.3520   31.9050 C.3   149  PHE149      0.1771
    201  C         86.4990    5.0870   31.6040 C.2   149  PHE149      0.2619
    202  O         86.7810    4.3840   30.6320 O.2   149  PHE149     -0.2715
    203  CB        86.8750    7.4670   30.9400 C.3   149  PHE149      0.0574
    204  CG        85.3950    7.7370   30.9430 C.ar  149  PHE149     -0.0200
    205  CD1       84.8470    8.6590   31.8190 C.ar  149  PHE149     -0.0042
    206  CD2       84.5480    7.0460   30.0870 C.ar  149  PHE149     -0.0042
    207  CE1       83.4770    8.8960   31.8350 C.ar  149  PHE149     -0.0003
    208  CE2       83.1800    7.2760   30.0980 C.ar  149  PHE149     -0.0003
    209  CZ        82.6440    8.2030   30.9710 C.ar  149  PHE149     -0.0000
    210  N         85.5100    4.8090   32.4480 N.am  150  MET150     -0.1977
    211  CA        84.5480    3.7410   32.2090 C.3   150  MET150      0.1605
    212  C         83.1540    4.2950   32.4640 C.2   150  MET150      0.2287
    213  O         82.9230    4.9250   33.4900 O.2   150  MET150     -0.2864
    214  CB        84.8200    2.5650   33.1420 C.3   150  MET150      0.0413
    215  CG        83.9180    1.4020   32.8740 C.3   150  MET150      0.0598
    216  SD        84.5130    0.5740   31.3970 S.3   150  MET150     -0.1393
    217  CE        85.5710   -0.6180   32.1900 C.3   150  MET150      0.0692
    218  N         79.6400    4.5620   33.7910 N.3   152  PRO152     -0.2116
    219  CA        78.9170    3.8480   34.8680 C.3   152  PRO152      0.1372
    220  C         77.6300    3.1540   34.3920 C.2   152  PRO152      0.2244
    221  O         77.0000    3.6070   33.4340 O.2   152  PRO152     -0.2868
    222  CB        78.5930    4.9570   35.8790 C.3   152  PRO152      0.0268
    223  CG        79.5560    6.0710   35.5690 C.3   152  PRO152      0.0207
    224  CD        79.7500    6.0040   34.0720 C.3   152  PRO152      0.0892
@<TRIPOS>BOND
     1     1     2    1
     2     2     3    1
     3     2     5    1
     4     3     4    2
     5     5     6    1
     6     6     7    1
     7     7     8    1
     8    76    75    2
     9     8     9    1
    10    75    74    1
    11    44    46   ar
    12    44    42   ar
    13    77    74    1
    14    77    78    1
    15    46    47   ar
    16    38    41    1
    17    38    37    1
    18    38    39    1
    19    41    42    1
    20    74    73    1
    21    42    43   ar
    22    28    27    1
    23    27    24    1
    24    40    39    2
    25    78    79    1
    26    47    45   ar
    27    39    48   am
    28    73    65   am
    29    80    79   ar
    30    43    45   ar
    31    79    81   ar
    32    59    58    2
    33    58    57    1
    34    66    65    2
    35    24    23    1
    36    24    25    1
    37    22    19    1
    38    65    64    1
    39    63    64    1
    40    48    49    1
    41    19    20    1
    42    19    18    1
    43    20    21    2
    44    64    67    1
    45    26    25    2
    46    36    34   am
    47    61    60    1
    48   206   208   ar
    49   206   204   ar
    50   208   209   ar
    51    57    60    1
    52    57    56    1
    53    13    12    2
    54    60    62    1
    55    56    50   am
    56    31    32    2
    57    31    30    1
    58    50    51    2
    59    50    49    1
    60   195   197   ar
    61   195   194   ar
    62    49    52    1
    63   197   198   ar
    64   105   103    1
    65   202   201    2
    66    18    12   am
    67   203   204    1
    68   203   200    1
    69   204   205   ar
    70   209   207   ar
    71    34    35    2
    72    34    33    1
    73    12    11    1
    74    67    68    1
    75   216   217    1
    76   216   215    1
    77    30    33    1
    78    30    29    1
    79    70    68   ar
    80    70    72   ar
    81   201   200    1
    82   201   210   am
    83   194   193    1
    84   194   196   ar
    85   198   196   ar
    86   199   200    1
    87   199   191   am
    88   205   207   ar
    89    68    69   ar
    90    52    53    1
    91   103   104    1
    92   103   102    1
    93   193   190    1
    94   211   210    1
    95   211   212    1
    96   211   214    1
    97   212   213    2
    98    11    14    1
    99    11    10    1
   100   190   191    1
   101   190   189    1
   102    72    71   ar
   103    54    53    1
   104   191   192    2
   105   215   214    1
   106    14    15    1
   107   102    99    1
   108    69    71   ar
   109    53    55    1
   110   186   185    2
   111   221   220    2
   112   218   224    1
   113   218   219    1
   114   189   185   am
   115   185   184    1
   116   101   100    2
   117   224   223    1
   118   100    99    1
   119    99    98    1
   120   188   187    1
   121   220   219    1
   122    15    16    1
   123    15    17    1
   124   140   138   ar
   125   140   142   ar
   126   162   161    1
   127   219   222    1
   128   143   142    1
   129   159   161   ar
   130   159   157   ar
   131   184   187    1
   132   184   183    1
   133    98    95   am
   134   138   137   ar
   135   142   141   ar
   136   223   222    1
   137   161   160   ar
   138   177   176    2
   139   157   156   ar
   140   183   176   am
   141    95    96    2
   142    95    94    1
   143   106   107    1
   144   109   108    2
   145   137   136    1
   146   137   139   ar
   147   176   175    1
   148   141   139   ar
   149   160   158   ar
   150   120   119    2
   151    97    94    1
   152   136   133    1
   153    94    93    1
   154   108   107    1
   155   108   117   am
   156   156   158   ar
   157   156   155    1
   158   118   119    1
   159   118   117    1
   160   118   121    1
   161   107   110    1
   162   119   124   am
   163   117   123    1
   164   133   132    1
   165   133   134    1
   166   181   182    1
   167   181   180    1
   168   178   175    1
   169   178   179    1
   170   175   174    1
   171   155   152    1
   172   132   126   am
   173    92    91    2
   174   168   167    1
   175   121   122    1
   176   174   172   am
   177   179   180    1
   178   173   172    2
   179   152   151    1
   180   152   153    1
   181    93    91   am
   182   124   125    1
   183   172   171    1
   184   122   123    1
   185   110   111    1
   186   126   127    2
   187   126   125    1
   188   144   134   am
   189   144   145    1
   190    91    90    1
   191   134   135    2
   192   163   153   am
   193   163   164    1
   194   151   146   am
   195   125   128    1
   196   170   171    1
   197   170   165   am
   198   169   167    1
   199   167   164    1
   200   147   146    2
   201   153   154    2
   202   146   145    1
   203   164   165    1
   204   145   148    1
   205   111   113   ar
   206   111   112   ar
   207   165   166    2
   208    90    89    1
   209   128   129    1
   210   128   130    1
   211   113   115   ar
   212   112   114   ar
   213   129   131    1
   214   148   149    1
   215   148   150    1
   216    85    84    2
   217    89    84   am
   218    84    83    1
   219   115   116   ar
   220   114   116   ar
   221    83    82    1
   222    83    86    1
   223    82    88    1
   224    88    87    1
   225    86    87    1
