@<TRIPOS>MOLECULE
tmp/3keeG01.pdb
 181 175 0 0 0
SMALL
GASTEIGER

@<TRIPOS>ATOM
      1  N        -19.3220   -5.4350  -35.8640 N.3    39  GLN39      -0.1231
      2  CA       -19.3750   -5.6950  -34.3920 C.3    39  GLN39       0.1698
      3  C        -19.0020   -7.1250  -33.9030 C.2    39  GLN39       0.2593
      4  O        -19.1430   -8.0960  -34.6250 O.2    39  GLN39      -0.2718
      5  CB       -20.7120   -5.2120  -33.7860 C.3    39  GLN39       0.0381
      6  CG       -22.0030   -5.8560  -34.3700 C.3    39  GLN39       0.0905
      7  CD       -23.2710   -4.9820  -34.1410 C.2    39  GLN39       0.2608
      8  OE1      -23.2610   -4.0430  -33.3330 O.2    39  GLN39      -0.2717
      9  NE2      -24.3460   -5.2850  -34.8700 N.am   39  GLN39      -0.0878
     10  N        -18.4880   -7.2200  -32.6850 N.am   40  SER40      -0.1938
     11  CA       -18.1450   -8.4960  -32.0600 C.3    40  SER40       0.2055
     12  C        -18.9190   -8.7710  -30.7530 C.2    40  SER40       0.2643
     13  O        -19.2080   -7.8740  -29.9340 O.2    40  SER40      -0.2714
     14  CB       -16.6230   -8.6380  -31.8230 C.3    40  SER40       0.2130
     15  OG       -16.3100  -10.0010  -31.5000 O.3    40  SER40      -0.2179
     16  N        -19.3020  -10.0420  -30.6070 N.am   41  PHE41      -0.1973
     17  CA       -20.0630  -10.5130  -29.4610 C.3    41  PHE41       0.1639
     18  C        -19.7190  -11.9950  -29.2170 C.2    41  PHE41       0.2290
     19  O        -18.6390  -12.4670  -29.6230 O.2    41  PHE41      -0.2864
     20  CB       -21.5770  -10.2930  -29.7200 C.3    41  PHE41       0.0560
     21  CG       -22.0330  -10.5420  -31.1530 C.ar   41  PHE41      -0.0200
     22  CD1      -21.5510   -9.7800  -32.2370 C.ar   41  PHE41      -0.0042
     23  CD2      -22.9530  -11.5520  -31.4110 C.ar   41  PHE41      -0.0042
     24  CE1      -21.9490  -10.0300  -33.5420 C.ar   41  PHE41      -0.0003
     25  CE2      -23.3580  -11.8200  -32.7160 C.ar   41  PHE41      -0.0003
     26  CZ       -22.8520  -11.0530  -33.7570 C.ar   41  PHE41      -0.0000
     27  N        -30.0110  -11.7930  -31.7040 N.3    54  TYR54      -0.1227
     28  CA       -30.4190  -11.1830  -32.9840 C.3    54  TYR54       0.1736
     29  C        -29.7700   -9.8210  -33.2520 C.2    54  TYR54       0.2595
     30  O        -29.3640   -9.5620  -34.3920 O.2    54  TYR54      -0.2718
     31  CB       -31.9470  -11.1070  -33.1380 C.3    54  TYR54       0.0548
     32  CG       -32.3760  -10.7100  -34.5360 C.ar   54  TYR54      -0.0200
     33  CD1      -32.6400  -11.6610  -35.5120 C.ar   54  TYR54      -0.0009
     34  CD2      -32.4940   -9.3620  -34.8790 C.ar   54  TYR54      -0.0009
     35  CE1      -33.0230  -11.2910  -36.7940 C.ar   54  TYR54       0.0417
     36  CE2      -32.8540   -8.9710  -36.1330 C.ar   54  TYR54       0.0417
     37  CZ       -33.1250   -9.9300  -37.1080 C.ar   54  TYR54       0.1957
     38  OH       -33.4850   -9.4790  -38.3730 O.3    54  TYR54      -0.2866
     39  N        -29.6410   -8.9710  -32.2140 N.am   55  HIS55      -0.1961
     40  CA       -29.0910   -7.5890  -32.3690 C.3    55  HIS55       0.1787
     41  C        -27.6060   -7.5890  -32.6160 C.2    55  HIS55       0.2620
     42  O        -26.9820   -6.5480  -32.7960 O.2    55  HIS55      -0.2715
     43  CB       -29.4360   -6.6750  -31.1710 C.3    55  HIS55       0.0785
     44  CG       -28.6560   -6.9640  -29.9100 C.ar   55  HIS55       0.0821
     45  ND1      -29.1230   -7.8000  -28.9120 N.ar   55  HIS55      -0.2267
     46  CD2      -27.4680   -6.4920  -29.4720 C.ar   55  HIS55       0.1154
     47  CE1      -28.2500   -7.8350  -27.9200 C.ar   55  HIS55       0.1986
     48  NE2      -27.2310   -7.0620  -28.2400 N.ar   55  HIS55      -0.2212
     49  N        -27.0290   -8.7760  -32.5950 N.am   56  GLY56      -0.1954
     50  CA       -25.6530   -8.9520  -32.9730 C.3    56  GLY56       0.1869
     51  C        -25.5930   -9.5760  -34.3490 C.2    56  GLY56       0.2309
     52  O        -24.9870   -9.0180  -35.2540 O.2    56  GLY56      -0.2863
     53  N        -36.7060  -13.1650  -33.5800 N.3    76  VAL76      -0.1231
     54  CA       -36.5240  -11.6990  -33.4370 C.3    76  VAL76       0.1692
     55  C        -37.1430  -11.1510  -32.1400 C.2    76  VAL76       0.2592
     56  O        -36.5970  -10.2410  -31.5320 O.2    76  VAL76      -0.2718
     57  CB       -37.0190  -10.8570  -34.6790 C.3    76  VAL76       0.0266
     58  CG1      -36.2700   -9.5380  -34.7700 C.3    76  VAL76       0.0020
     59  CG2      -36.8270  -11.5820  -35.9900 C.3    76  VAL76       0.0020
     60  N        -38.2460  -11.7490  -31.6960 N.am   77  ASP77      -0.1960
     61  CA       -38.9580  -11.3470  -30.4600 C.3    77  ASP77       0.1840
     62  C        -38.1870  -11.5900  -29.1540 C.2    77  ASP77       0.2622
     63  O        -38.3140  -10.8280  -28.1980 O.2    77  ASP77      -0.2715
     64  CB       -40.2950  -12.1000  -30.3570 C.3    77  ASP77       0.1450
     65  CG       -41.3680  -11.5950  -31.3500 C.2    77  ASP77       0.3671
     66  OD1      -42.5060  -12.1030  -31.2070 O.co2  77  ASP77      -0.2456
     67  OD2      -41.1220  -10.7180  -32.2290 O.co2  77  ASP77      -0.2456
     68  N        -37.4200  -12.6760  -29.1060 N.am   78  GLN78      -0.1963
     69  CA       -36.5870  -12.9550  -27.9640 C.3    78  GLN78       0.1733
     70  C        -35.1390  -12.4880  -28.1610 C.2    78  GLN78       0.2616
     71  O        -34.3480  -12.5690  -27.2440 O.2    78  GLN78      -0.2715
     72  CB       -36.6650  -14.4310  -27.6070 C.3    78  GLN78       0.0408
     73  CG       -38.0070  -14.8830  -26.9380 C.3    78  GLN78       0.0908
     74  CD       -38.0800  -14.5920  -25.4190 C.2    78  GLN78       0.2608
     75  OE1      -37.1070  -14.7810  -24.6670 O.2    78  GLN78      -0.2717
     76  NE2      -39.2560  -14.1380  -24.9660 N.am   78  GLN78      -0.0878
     77  N        -34.8040  -11.9460  -29.3310 N.am   79  ASP79      -0.1971
     78  CA       -33.4310  -11.5170  -29.6140 C.3    79  ASP79       0.1709
     79  C        -32.5100  -12.7420  -29.5910 C.2    79  ASP79       0.2293
     80  O        -31.3820  -12.6840  -29.0640 O.2    79  ASP79      -0.2864
     81  CB       -32.9640  -10.5030  -28.5710 C.3    79  ASP79       0.1436
     82  CG       -31.7380   -9.7400  -28.9880 C.2    79  ASP79       0.3671
     83  OD1      -31.3740   -9.6720  -30.1910 O.co2  79  ASP79      -0.2456
     84  OD2      -31.1300   -9.1750  -28.0780 O.co2  79  ASP79      -0.2456
     85  N        -35.6070  -14.0640  -16.1970 N.3   120  SER120     -0.1202
     86  CA       -34.7070  -13.4870  -17.2120 C.3   120  SER120      0.2020
     87  C        -33.8190  -12.3700  -16.6370 C.2   120  SER120      0.2618
     88  O        -33.1880  -11.6330  -17.3890 O.2   120  SER120     -0.2717
     89  CB       -35.5070  -12.9600  -18.4070 C.3   120  SER120      0.2103
     90  OG       -36.4100  -11.9450  -17.9980 O.3   120  SER120     -0.2182
     91  N        -33.7640  -12.2560  -15.3050 N.am  121  ARG121     -0.1979
     92  CA       -33.0660  -11.1390  -14.6620 C.3   121  ARG121      0.1597
     93  C        -32.1860  -11.5270  -13.4980 C.2   121  ARG121      0.2287
     94  O        -32.5620  -12.3330  -12.6630 O.2   121  ARG121     -0.2864
     95  CB       -34.0470  -10.0520  -14.1840 C.3   121  ARG121      0.0334
     96  CG       -34.7030   -9.2480  -15.2910 C.3   121  ARG121      0.0492
     97  CD       -33.7610   -8.2320  -15.8970 C.3   121  ARG121      0.2205
     98  NE       -34.3840   -7.5670  -17.0400 N.pl3 121  ARG121     -0.0865
     99  CZ       -34.7820   -6.2930  -17.0520 C.cat 121  ARG121      0.5346
    100  NH1      -34.6220   -5.5210  -15.9820 N.pl3 121  ARG121      0.1354
    101  NH2      -35.3430   -5.7760  -18.1410 N.pl3 121  ARG121      0.1354
    102  N        -20.6250    0.0970  -18.1640 N.3   130  VAL130     -0.1245
    103  CA       -21.2340   -0.4340  -19.3830 C.3   130  VAL130      0.1561
    104  C        -20.2180   -0.9330  -20.4230 C.2   130  VAL130      0.2260
    105  O        -20.4100   -1.9710  -21.0430 O.2   130  VAL130     -0.2867
    106  CB       -22.1620    0.6140  -20.0010 C.3   130  VAL130      0.0252
    107  CG1      -22.6360    0.1780  -21.3870 C.3   130  VAL130      0.0019
    108  CG2      -23.3550    0.8630  -19.0680 C.3   130  VAL130      0.0019
    109  N        -19.2570   -4.6080  -20.0420 N.3   133  LEU133     -0.1231
    110  CA       -20.1730   -5.6470  -20.4400 C.3   133  LEU133      0.1693
    111  C        -20.4050   -5.7070  -21.9590 C.2   133  LEU133      0.2592
    112  O        -20.8280   -6.7420  -22.4540 O.2   133  LEU133     -0.2718
    113  CB       -21.5060   -5.4830  -19.7090 C.3   133  LEU133      0.0284
    114  CG       -21.7120   -5.9140  -18.2570 C.3   133  LEU133      0.0019
    115  CD1      -20.6940   -6.9420  -17.7500 C.3   133  LEU133      0.0001
    116  CD2      -21.7140   -4.7250  -17.3850 C.3   133  LEU133      0.0001
    117  N        -20.1160   -4.6090  -22.6740 N.am  134  LYS134     -0.1966
    118  CA       -20.3330   -4.5060  -24.1440 C.3   134  LYS134      0.1728
    119  C        -19.5330   -5.5360  -24.8830 C.2   134  LYS134      0.2616
    120  O        -18.3450   -5.7230  -24.5980 O.2   134  LYS134     -0.2715
    121  CB       -19.9710   -3.1130  -24.6930 C.3   134  LYS134      0.0311
    122  CG       -21.1550   -2.1570  -25.0960 C.3   134  LYS134      0.0038
    123  CD       -22.4340   -2.8990  -25.6630 C.3   134  LYS134      0.0206
    124  CE       -23.1670   -2.2050  -26.8530 C.3   134  LYS134      0.1093
    125  NZ       -23.5570   -0.7600  -26.6120 N.3   134  LYS134     -0.1314
    126  N        -20.1720   -6.2190  -25.8240 N.am  135  GLY135     -0.1955
    127  CA       -19.4920   -7.2460  -26.6300 C.3   135  GLY135      0.1869
    128  C        -19.4910   -8.6370  -26.0270 C.2   135  GLY135      0.2309
    129  O        -18.7590   -9.5230  -26.4870 O.2   135  GLY135     -0.2863
    130  N        -22.7990   -9.9250  -24.9980 N.3   137  SER137     -0.1217
    131  CA       -24.1190  -10.5140  -25.2580 C.3   137  SER137      0.1889
    132  C        -23.8920  -11.8170  -26.0170 C.2   137  SER137      0.2288
    133  O        -22.9600  -11.8830  -26.8170 O.2   137  SER137     -0.2866
    134  CB       -24.9820   -9.5840  -26.0750 C.3   137  SER137      0.2089
    135  OG       -24.4110   -9.4810  -27.3670 O.3   137  SER137     -0.2183
    136  N        -26.7140  -13.9430  -22.0460 N.3   152  PHE152     -0.1227
    137  CA       -26.6990  -12.4960  -21.8600 C.3   152  PHE152      0.1736
    138  C        -27.3190  -11.7070  -23.0130 C.2   152  PHE152      0.2595
    139  O        -26.8500  -11.7800  -24.1540 O.2   152  PHE152     -0.2718
    140  CB       -25.2280  -12.0680  -21.6350 C.3   152  PHE152      0.0547
    141  CG       -25.0370  -10.6510  -21.1320 C.ar  152  PHE152     -0.0202
    142  CD1      -25.9980  -10.0080  -20.3590 C.ar  152  PHE152     -0.0042
    143  CD2      -23.8530   -9.9800  -21.3940 C.ar  152  PHE152     -0.0042
    144  CE1      -25.7850   -8.6920  -19.8920 C.ar  152  PHE152     -0.0003
    145  CE2      -23.6270   -8.6730  -20.9260 C.ar  152  PHE152     -0.0003
    146  CZ       -24.5970   -8.0350  -20.1740 C.ar  152  PHE152     -0.0000
    147  N        -28.3530  -10.9210  -22.7320 N.am  153  ARG153     -0.1966
    148  CA       -29.0610  -10.1890  -23.7920 C.3   153  ARG153      0.1729
    149  C        -28.8680   -8.6410  -23.7560 C.2   153  ARG153      0.2616
    150  O        -28.6420   -7.9820  -24.8120 O.2   153  ARG153     -0.2715
    151  CB       -30.5470  -10.5780  -23.7580 C.3   153  ARG153      0.0348
    152  CG       -31.4760   -9.7510  -24.6440 C.3   153  ARG153      0.0492
    153  CD       -32.7980  -10.4650  -24.7960 C.3   153  ARG153      0.2205
    154  NE       -33.3680  -10.9080  -23.5070 N.pl3 153  ARG153     -0.0865
    155  CZ       -34.4480  -11.6820  -23.4010 C.cat 153  ARG153      0.5346
    156  NH1      -35.0780  -12.1070  -24.4980 N.pl3 153  ARG153      0.1354
    157  NH2      -34.9090  -12.0210  -22.2090 N.pl3 153  ARG153      0.1354
    158  N        -28.9220   -8.0990  -22.5340 N.am  154  ALA154     -0.1963
    159  CA       -28.9390   -6.6680  -22.2740 C.3   154  ALA154      0.1728
    160  C        -28.5670   -6.4020  -20.8220 C.2   154  ALA154      0.2616
    161  O        -28.6740   -7.2890  -19.9690 O.2   154  ALA154     -0.2715
    162  CB       -30.3350   -6.1110  -22.5560 C.3   154  ALA154      0.0334
    163  N        -28.1410   -5.1740  -20.5460 N.am  155  ALA155     -0.1977
    164  CA       -27.8420   -4.7370  -19.1880 C.3   155  ALA155      0.1597
    165  C        -28.7560   -3.5780  -18.7870 C.2   155  ALA155      0.2287
    166  O        -29.0520   -2.6900  -19.5990 O.2   155  ALA155     -0.2864
    167  CB       -26.3590   -4.3230  -19.0580 C.3   155  ALA155      0.0319
    168  N        -29.3190   -0.3080  -16.5960 N.3   157  CYS157     -0.1235
    169  CA       -28.6080    0.8000  -16.0270 C.3   157  CYS157      0.1677
    170  C        -29.5950    1.6560  -15.1840 C.2   157  CYS157      0.2270
    171  O        -30.6440    2.1280  -15.6720 O.2   157  CYS157     -0.2867
    172  CB       -27.8630    1.5540  -17.1360 C.3   157  CYS157      0.0956
    173  SG       -26.9510    0.3570  -18.3070 S.3   157  CYS157     -0.0801
    174  N        -30.0930   -8.5560  -18.2480 N.3   166  ASP166     -0.1239
    175  CA       -31.1310   -9.3360  -18.9360 C.3   166  ASP166      0.1674
    176  C        -30.5170  -10.5150  -19.7030 C.2   166  ASP166      0.2266
    177  O        -29.4670  -10.3920  -20.2950 O.2   166  ASP166     -0.2867
    178  CB       -31.9160   -8.4660  -19.9180 C.3   166  ASP166      0.1410
    179  CG       -33.2730   -9.0460  -20.2490 C.2   166  ASP166      0.3668
    180  OD1      -34.2430   -8.5080  -19.7070 O.co2 166  ASP166     -0.2456
    181  OD2      -33.3870  -10.0380  -20.9990 O.co2 166  ASP166     -0.2456
@<TRIPOS>BOND
     1    38    37    1
     2    37    35   ar
     3    37    36   ar
     4    35    33   ar
     5    36    34   ar
     6    59    57    1
     7     1     2    1
     8    33    32   ar
     9    52    51    2
    10    34    32   ar
    11     9     7   am
    12    58    57    1
    13    57    54    1
    14     4     3    2
    15    32    31    1
    16    30    29    2
    17     2     3    1
    18     2     5    1
    19     6     7    1
    20     6     5    1
    21    51    50    1
    22     7     8    2
    23     3    10   am
    24    26    24   ar
    25    26    25   ar
    26    53    54    1
    27    24    22   ar
    28    54    55    1
    29    29    28    1
    30    29    39   am
    31    31    28    1
    32    28    27    1
    33    50    49    1
    34    42    41    2
    35    25    23   ar
    36    10    11    1
    37    41    49   am
    38    41    40    1
    39    40    39    1
    40    40    43    1
    41    22    21   ar
    42    67    65   ar
    43    55    60   am
    44    55    56    2
    45    11    14    1
    46    11    12    1
    47    14    15    1
    48    60    61    1
    49    23    21   ar
    50    65    66   ar
    51    65    64    1
    52    43    44    1
    53    21    20    1
    54    12    16   am
    55    12    13    2
    56    16    17    1
    57    61    64    1
    58    61    62    1
    59    83    82   ar
    60    44    46   ar
    61    44    45   ar
    62    20    17    1
    63    19    18    2
    64    78    79    1
    65    78    77    1
    66    78    81    1
    67    79    80    2
    68    46    48   ar
    69    17    18    1
    70    77    70   am
    71    62    68   am
    72    62    63    2
    73    68    69    1
    74    82    81    1
    75    82    84   ar
    76    45    47   ar
    77    48    47   ar
    78    70    69    1
    79    70    71    2
    80    69    72    1
    81    72    73    1
    82   135   134    1
    83    73    74    1
    84   124   125    1
    85   124   123    1
    86   133   132    2
    87   127   128    1
    88   127   126    1
    89   129   128    2
    90   134   131    1
    91   132   131    1
    92   126   119   am
    93   123   122    1
    94    74    76   am
    95    74    75    2
    96   131   130    1
    97   122   121    1
    98   119   120    2
    99   119   118    1
   100   150   149    2
   101   153   152    1
   102   153   154    1
   103   121   118    1
   104   152   151    1
   105   156   155    1
   106   139   138    2
   107   118   117    1
   108   148   151    1
   109   148   149    1
   110   148   147    1
   111   149   158   am
   112   154   155    2
   113   155   157    1
   114   138   147   am
   115   138   137    1
   116   117   111   am
   117   162   159    1
   118   158   159    1
   119   112   111    2
   120   159   160    1
   121   136   137    1
   122   111   110    1
   123   137   140    1
   124   140   141    1
   125   143   141   ar
   126   143   145   ar
   127   107   106    1
   128   141   142   ar
   129   105   104    2
   130   181   179   ar
   131   145   146   ar
   132   160   163   am
   133   160   161    2
   134   163   164    1
   135   110   109    1
   136   110   113    1
   137   104   103    1
   138   142   144   ar
   139   177   176    2
   140   179   178    1
   141   179   180   ar
   142   146   144   ar
   143   106   103    1
   144   106   108    1
   145   178   175    1
   146   113   114    1
   147   176   175    1
   148   166   165    2
   149   103   102    1
   150   164   167    1
   151   164   165    1
   152   175   174    1
   153    89    90    1
   154    89    86    1
   155   173   172    1
   156   114   115    1
   157   114   116    1
   158   101    99    1
   159    88    87    2
   160    86    87    1
   161    86    85    1
   162   172   169    1
   163    99    98    2
   164    99   100    1
   165    98    97    1
   166    87    91   am
   167   168   169    1
   168   169   170    1
   169    97    96    1
   170   171   170    2
   171    91    92    1
   172    96    95    1
   173    92    95    1
   174    92    93    1
   175    93    94    2
