@<TRIPOS>MOLECULE
tmp/3kejA00.pdb
 212 212 0 0 0
SMALL
GASTEIGER

@<TRIPOS>ATOM
      1  N         45.9070   20.4460    4.8670 N.3    37  LYS37      -0.1245
      2  CA        45.0700   20.0930    6.0240 C.3    37  LYS37       0.1561
      3  C         44.4600   21.3330    6.6730 C.2    37  LYS37       0.2260
      4  O         43.2880   21.3340    7.0250 O.2    37  LYS37      -0.2867
      5  CB        45.8910   19.3710    7.0980 C.3    37  LYS37       0.0271
      6  CG        45.8290   17.8890    7.0780 C.3    37  LYS37       0.0035
      7  CD        46.2020   17.2870    8.4530 C.3    37  LYS37       0.0206
      8  CE        45.1750   17.6440    9.5250 C.3    37  LYS37       0.1093
      9  NZ        45.0110   16.6090   10.5970 N.3    37  LYS37      -0.1314
     10  N         54.8380   33.1300   16.6880 N.3    82  LEU82      -0.1245
     11  CA        55.0810   31.9360   15.8790 C.3    82  LEU82       0.1561
     12  C         54.8730   32.2210   14.4030 C.2    82  LEU82       0.2260
     13  O         55.5340   31.6400   13.5480 O.2    82  LEU82      -0.2867
     14  CB        54.1270   30.8250   16.3170 C.3    82  LEU82       0.0270
     15  CG        54.2610   30.3960   17.7760 C.3    82  LEU82       0.0019
     16  CD1       53.2630   29.2830   18.0940 C.3    82  LEU82       0.0001
     17  CD2       55.6900   29.9630   18.0410 C.3    82  LEU82       0.0001
     18  N         55.1630   17.8390   12.5950 N.3   106  SER106     -0.1217
     19  CA        53.8530   17.2280   12.4000 C.3   106  SER106      0.1889
     20  C         53.4450   16.4500   13.6500 C.2   106  SER106      0.2288
     21  O         52.8150   15.4100   13.5360 O.2   106  SER106     -0.2866
     22  CB        53.8970   16.2460   11.2160 C.3   106  SER106      0.2089
     23  OG        54.4440   16.8540   10.0610 O.3   106  SER106     -0.2183
     24  N         53.4410   22.5490   16.0450 N.3   112  ASN112     -0.1240
     25  CA        52.7640   21.8350   14.9760 C.3   112  ASN112      0.1653
     26  C         52.3900   22.8140   13.8810 C.2   112  ASN112      0.2266
     27  O         51.6290   23.7640   14.1110 O.2   112  ASN112     -0.2867
     28  CB        51.5200   21.1250   15.5310 C.3   112  ASN112      0.1155
     29  CG        50.8330   20.2470   14.5030 C.2   112  ASN112      0.2627
     30  OD1       50.2350   20.7450   13.5620 O.2   112  ASN112     -0.2716
     31  ND2       50.9140   18.9400   14.6840 N.am  112  ASN112     -0.0877
     32  N         50.6740   22.4260   10.9960 N.3   114  PHE114     -0.1227
     33  CA        49.2600   22.3680   10.6390 C.3   114  PHE114      0.1736
     34  C         48.4220   23.2550   11.5620 C.2   114  PHE114      0.2595
     35  O         47.6160   24.0560   11.1000 O.2   114  PHE114     -0.2718
     36  CB        48.7520   20.9180   10.6560 C.3   114  PHE114      0.0547
     37  CG        47.2720   20.7930   10.9270 C.ar  114  PHE114     -0.0202
     38  CD1       46.3420   21.2720   10.0200 C.ar  114  PHE114     -0.0042
     39  CD2       46.8150   20.2090   12.0940 C.ar  114  PHE114     -0.0042
     40  CE1       44.9730   21.1630   10.2680 C.ar  114  PHE114     -0.0003
     41  CE2       45.4440   20.0930   12.3450 C.ar  114  PHE114     -0.0003
     42  CZ        44.5290   20.5740   11.4300 C.ar  114  PHE114     -0.0000
     43  N         48.6380   23.1150   12.8650 N.am  115  LEU115     -0.1966
     44  CA        47.8460   23.8230   13.8670 C.3   115  LEU115      0.1728
     45  C         48.0130   25.3400   13.7760 C.2   115  LEU115      0.2616
     46  O         47.0280   26.0810   13.7480 O.2   115  LEU115     -0.2715
     47  CB        48.2410   23.3270   15.2540 C.3   115  LEU115      0.0311
     48  CG        47.4080   23.7680   16.4580 C.3   115  LEU115      0.0022
     49  CD1       45.8910   23.6090   16.2310 C.3   115  LEU115      0.0001
     50  CD2       47.8710   22.9530   17.6660 C.3   115  LEU115      0.0001
     51  N         49.2630   25.7920   13.7170 N.am  116  VAL116     -0.1977
     52  CA        49.5590   27.2110   13.5860 C.3   116  VAL116      0.1596
     53  C         49.0400   27.7440   12.2570 C.2   116  VAL116      0.2287
     54  O         48.5150   28.8520   12.2020 O.2   116  VAL116     -0.2864
     55  CB        51.0930   27.5040   13.7050 C.3   116  VAL116      0.0276
     56  CG1       51.3860   28.9830   13.5030 C.3   116  VAL116      0.0022
     57  CG2       51.6150   27.0510   15.0620 C.3   116  VAL116      0.0022
     58  N         45.2960   28.2300   12.3920 N.3   119  HIS119     -0.1226
     59  CA        45.0600   29.4650   13.1300 C.3   119  HIS119      0.1752
     60  C         45.3010   30.7060   12.2550 C.2   119  HIS119      0.2595
     61  O         44.4430   31.5860   12.1620 O.2   119  HIS119     -0.2718
     62  CB        45.9550   29.4780   14.3870 C.3   119  HIS119      0.0759
     63  CG        45.8900   30.7500   15.1750 C.ar  119  HIS119      0.0818
     64  ND1       45.1870   30.8610   16.3540 N.ar  119  HIS119     -0.2268
     65  CD2       46.4450   31.9650   14.9540 C.ar  119  HIS119      0.1154
     66  CE1       45.3060   32.0930   16.8190 C.ar  119  HIS119      0.1986
     67  NE2       46.0580   32.7830   15.9860 N.ar  119  HIS119     -0.2212
     68  N         46.4680   30.7760   11.6260 N.am  120  GLU120     -0.1979
     69  CA        46.8150   31.9280   10.7820 C.3   120  GLU120      0.1602
     70  C         45.9280   32.0700    9.5470 C.2   120  GLU120      0.2287
     71  O         45.6010   33.1880    9.1340 O.2   120  GLU120     -0.2864
     72  CB        48.2880   31.8790   10.3620 C.3   120  GLU120      0.0415
     73  CG        49.2580   32.0450   11.5180 C.3   120  GLU120      0.1163
     74  CD        49.0000   33.2980   12.3500 C.2   120  GLU120      0.3649
     75  OE1       48.5430   34.3100   11.7760 O.co2 120  GLU120     -0.2457
     76  OE2       49.2580   33.2700   13.5780 O.co2 120  GLU120     -0.2457
     77  N         39.9610   27.6160   24.9380 N.3   134  GLY134     -0.1210
     78  CA        39.8190   26.4060   24.1270 C.3   134  GLY134      0.1956
     79  C         39.7770   26.6350   22.6220 C.2   134  GLY134      0.2612
     80  O         39.8760   25.6780   21.8470 O.2   134  GLY134     -0.2717
     81  N         39.6590   27.8910   22.1930 N.am  135  ALA135     -0.1965
     82  CA        39.4670   28.2070   20.7690 C.3   135  ALA135      0.1728
     83  C         40.7370   28.0610   19.9310 C.2   135  ALA135      0.2616
     84  O         41.8570   28.2970   20.4110 O.2   135  ALA135     -0.2715
     85  CB        38.8920   29.6200   20.6100 C.3   135  ALA135      0.0334
     86  N         40.5530   27.6770   18.6680 N.am  136  LEU136     -0.1977
     87  CA        41.6400   27.7060   17.6900 C.3   136  LEU136      0.1596
     88  C         42.2170   29.1060   17.5520 C.2   136  LEU136      0.2287
     89  O         43.4330   29.2550   17.3830 O.2   136  LEU136     -0.2864
     90  CB        41.1660   27.2320   16.3150 C.3   136  LEU136      0.0297
     91  CG        42.1760   27.3820   15.1590 C.3   136  LEU136      0.0022
     92  CD1       43.4370   26.5450   15.4160 C.3   136  LEU136      0.0001
     93  CD2       41.5210   27.0060   13.8540 C.3   136  LEU136      0.0001
     94  N         42.3480   31.4520   19.8040 N.3   138  PHE138     -0.1228
     95  CA        42.9560   31.9810   21.0250 C.3   138  PHE138      0.1721
     96  C         44.3800   32.3710   20.6550 C.2   138  PHE138      0.2437
     97  O         45.0170   31.6570   19.8800 O.2   138  PHE138     -0.2733
     98  CB        42.9570   30.9260   22.1340 C.3   138  PHE138      0.0547
     99  CG        43.2980   31.4670   23.5010 C.ar  138  PHE138     -0.0202
    100  CD1       42.4370   32.3440   24.1480 C.ar  138  PHE138     -0.0042
    101  CD2       44.4640   31.0760   24.1490 C.ar  138  PHE138     -0.0042
    102  CE1       42.7340   32.8320   25.4220 C.ar  138  PHE138     -0.0003
    103  CE2       44.7670   31.5490   25.4190 C.ar  138  PHE138     -0.0003
    104  CZ        43.9050   32.4330   26.0560 C.ar  138  PHE138     -0.0000
    105  N         44.8760   33.5150   21.1620 N.am  139  PRO139     -0.2718
    106  CA        46.1660   33.9710   20.6700 C.3   139  PRO139      0.1535
    107  C         47.3850   33.1400   21.0920 C.2   139  PRO139      0.2598
    108  O         48.4380   33.3040   20.4810 O.2   139  PRO139     -0.2715
    109  CB        46.2630   35.4070   21.2040 C.3   139  PRO139      0.0310
    110  CG        45.3550   35.4700   22.3240 C.3   139  PRO139      0.0237
    111  CD        44.2940   34.4530   22.1330 C.3   139  PRO139      0.0939
    112  N         47.2440   32.2670   22.0970 N.am  140  ILE140     -0.1964
    113  CA        48.3650   31.4830   22.6400 C.3   140  ILE140      0.1727
    114  C         48.2610   29.9840   22.2790 C.2   140  ILE140      0.2616
    115  O         47.2530   29.3270   22.5440 O.2   140  ILE140     -0.2715
    116  CB        48.4780   31.6530   24.1880 C.3   140  ILE140      0.0290
    117  CG1       48.6150   33.1370   24.5460 C.3   140  ILE140      0.0022
    118  CG2       49.6920   30.8970   24.7470 C.3   140  ILE140      0.0023
    119  CD1       48.3870   33.4560   25.9940 C.3   140  ILE140      0.0001
    120  N         49.3290   29.4620   21.6830 N.am  141  TYR141     -0.1960
    121  CA        49.4210   28.0640   21.2730 C.3   141  TYR141      0.1771
    122  C         49.3510   27.1450   22.4790 C.2   141  TYR141      0.2620
    123  O         50.1310   27.2640   23.4090 O.2   141  TYR141     -0.2715
    124  CB        50.7380   27.8430   20.5280 C.3   141  TYR141      0.0574
    125  CG        51.0090   26.4410   20.0390 C.ar  141  TYR141     -0.0198
    126  CD1       50.7270   26.0850   18.7260 C.ar  141  TYR141     -0.0009
    127  CD2       51.5970   25.4830   20.8690 C.ar  141  TYR141     -0.0009
    128  CE1       50.9910   24.8210   18.2520 C.ar  141  TYR141      0.0417
    129  CE2       51.8680   24.2090   20.3990 C.ar  141  TYR141      0.0417
    130  CZ        51.5560   23.8910   19.0790 C.ar  141  TYR141      0.1957
    131  OH        51.8100   22.6410   18.5730 O.3   141  TYR141     -0.2866
    132  N         48.4090   26.2190   22.4570 N.am  142  THR142     -0.1937
    133  CA        48.2200   25.3190   23.5720 C.3   142  THR142      0.2028
    134  C         47.7520   23.9800   23.0020 C.2   142  THR142      0.2642
    135  O         46.5500   23.7220   22.8550 O.2   142  THR142     -0.2714
    136  CB        47.2450   25.9380   24.6220 C.3   142  THR142      0.1808
    137  OG1       46.6550   24.9070   25.4260 O.3   142  THR142     -0.2208
    138  CG2       46.1480   26.7340   23.9400 C.3   142  THR142      0.0379
    139  N         48.7330   23.1540   22.6450 N.am  143  TYR143     -0.1959
    140  CA        48.4860   21.8090   22.1090 C.3   143  TYR143      0.1771
    141  C         47.7350   20.9660   23.1360 C.2   143  TYR143      0.2620
    142  O         48.2520   20.7300   24.2270 O.2   143  TYR143     -0.2715
    143  CB        49.8240   21.1400   21.7520 C.3   143  TYR143      0.0574
    144  CG        49.7140   19.9670   20.8030 C.ar  143  TYR143     -0.0198
    145  CD1       49.5780   18.6640   21.2780 C.ar  143  TYR143     -0.0009
    146  CD2       49.7680   20.1600   19.4320 C.ar  143  TYR143     -0.0009
    147  CE1       49.4860   17.5910   20.3980 C.ar  143  TYR143      0.0417
    148  CE2       49.6800   19.0900   18.5500 C.ar  143  TYR143      0.0417
    149  CZ        49.5350   17.8170   19.0370 C.ar  143  TYR143      0.1957
    150  OH        49.4360   16.7660   18.1610 O.3   143  TYR143     -0.2866
    151  N         46.5180   20.5290   22.8010 N.am  144  THR144     -0.1937
    152  CA        45.6840   19.7540   23.7470 C.3   144  THR144      0.2028
    153  C         46.1280   18.3080   23.8560 C.2   144  THR144      0.2643
    154  O         45.8770   17.6490   24.8720 O.2   144  THR144     -0.2714
    155  CB        44.1850   19.7450   23.3650 C.3   144  THR144      0.1808
    156  OG1       43.9980   19.1000   22.0950 O.3   144  THR144     -0.2208
    157  CG2       43.6280   21.1640   23.3140 C.3   144  THR144      0.0379
    158  N         46.7740   17.8040   22.8110 N.am  145  GLY145     -0.1939
    159  CA        47.2540   16.4300   22.8220 C.3   145  GLY145      0.2014
    160  C         46.1310   15.4180   22.7540 C.2   145  GLY145      0.2639
    161  O         46.2160   14.3410   23.3580 O.2   145  GLY145     -0.2714
    162  N         45.0650   15.7850   22.0460 N.am  146  LYS146     -0.1963
    163  CA        44.0260   14.8470   21.6670 C.3   146  LYS146      0.1728
    164  C         44.5010   14.1070   20.4270 C.2   146  LYS146      0.2617
    165  O         45.3980   14.5710   19.7100 O.2   146  LYS146     -0.2715
    166  CB        42.7200   15.5670   21.3420 C.3   146  LYS146      0.0311
    167  CG        41.9830   16.1550   22.5300 C.3   146  LYS146      0.0038
    168  CD        41.0580   17.3090   22.0840 C.3   146  LYS146      0.0206
    169  CE        39.8870   16.8280   21.2090 C.3   146  LYS146      0.1093
    170  NZ        39.4410   17.8570   20.2070 N.3   146  LYS146     -0.1314
    171  N         43.8730   12.9640   20.1800 N.am  147  SER147     -0.1936
    172  CA        44.1710   12.1250   19.0220 C.3   147  SER147      0.2055
    173  C         43.9330   12.8500   17.6970 C.2   147  SER147      0.2643
    174  O         44.8420   12.9580   16.8780 O.2   147  SER147     -0.2714
    175  CB        43.3340   10.8340   19.0880 C.3   147  SER147      0.2130
    176  OG        42.9230   10.4260   17.7960 O.3   147  SER147     -0.2179
    177  N         42.7150   13.3450   17.4910 N.am  148  HIS148     -0.1959
    178  CA        42.3560   14.0290   16.2460 C.3   148  HIS148      0.1787
    179  C         41.9780   15.4930   16.4880 C.2   148  HIS148      0.2620
    180  O         41.5220   15.8580   17.5810 O.2   148  HIS148     -0.2715
    181  CB        41.1790   13.3330   15.5480 C.3   148  HIS148      0.0785
    182  CG        41.2480   11.8350   15.5530 C.ar  148  HIS148      0.0821
    183  ND1       42.1390   11.1240   14.7760 N.ar  148  HIS148     -0.2267
    184  CD2       40.5050   10.9110   16.2130 C.ar  148  HIS148      0.1154
    185  CE1       41.9570    9.8280   14.9740 C.ar  148  HIS148      0.1986
    186  NE2       40.9720    9.6710   15.8430 N.ar  148  HIS148     -0.2212
    187  N         42.1540   16.3130   15.4480 N.am  149  PHE149     -0.1960
    188  CA        41.7840   17.7310   15.4720 C.3   149  PHE149      0.1771
    189  C         40.2940   17.9180   15.1870 C.2   149  PHE149      0.2619
    190  O         39.7710   17.3890   14.2010 O.2   149  PHE149     -0.2715
    191  CB        42.5840   18.5180   14.4290 C.3   149  PHE149      0.0574
    192  CG        42.2340   19.9840   14.3790 C.ar  149  PHE149     -0.0200
    193  CD1       42.7920   20.8720   15.2840 C.ar  149  PHE149     -0.0042
    194  CD2       41.3300   20.4670   13.4460 C.ar  149  PHE149     -0.0042
    195  CE1       42.4610   22.2100   15.2520 C.ar  149  PHE149     -0.0003
    196  CE2       40.9940   21.8080   13.4140 C.ar  149  PHE149     -0.0003
    197  CZ        41.5590   22.6790   14.3110 C.ar  149  PHE149     -0.0000
    198  N         39.6250   18.6750   16.0540 N.am  150  MET150     -0.1977
    199  CA        38.2340   19.0680   15.8550 C.3   150  MET150      0.1605
    200  C         38.1640   20.5830   15.9830 C.2   150  MET150      0.2287
    201  O         38.6670   21.1310   16.9530 O.2   150  MET150     -0.2864
    202  CB        37.3390   18.4020   16.9070 C.3   150  MET150      0.0413
    203  CG        37.3370   16.9040   16.8280 C.3   150  MET150      0.0598
    204  SD        36.5530   16.2410   15.3050 S.3   150  MET150     -0.1393
    205  CE        34.8460   16.5300   15.6260 C.3   150  MET150      0.0692
    206  N         36.9300   23.8350   17.2050 N.3   152  PRO152     -0.2116
    207  CA        36.0050   24.2060   18.2820 C.3   152  PRO152      0.1372
    208  C         34.8740   25.1220   17.8180 C.2   152  PRO152      0.2244
    209  O         35.0370   25.8980   16.8810 O.2   152  PRO152     -0.2868
    210  CB        36.9030   24.9030   19.3090 C.3   152  PRO152      0.0268
    211  CG        38.2980   24.4990   18.9530 C.3   152  PRO152      0.0207
    212  CD        38.2970   24.3110   17.4700 C.3   152  PRO152      0.0892
@<TRIPOS>BOND
     1     1     2    1
     2     2     3    1
     3     2     5    1
     4     3     4    2
     5     6     5    1
     6     6     7    1
     7     7     8    1
     8    71    70    2
     9     8     9    1
    10    70    69    1
    11    38    40   ar
    12    38    37   ar
    13    23    22    1
    14    40    42   ar
    15    72    69    1
    16    72    73    1
    17    33    36    1
    18    33    32    1
    19    33    34    1
    20    36    37    1
    21    69    68    1
    22    37    39   ar
    23    35    34    2
    24    22    19    1
    25    42    41   ar
    26    73    74    1
    27    34    43   am
    28    68    60   am
    29    75    74   ar
    30    39    41   ar
    31    61    60    2
    32    54    53    2
    33    60    59    1
    34    53    52    1
    35    74    76   ar
    36    58    59    1
    37    19    18    1
    38    19    20    1
    39    43    44    1
    40    59    62    1
    41   196   194   ar
    42   196   197   ar
    43   194   192   ar
    44    56    55    1
    45    21    20    2
    46    13    12    2
    47    30    29    2
    48    52    55    1
    49    52    51    1
    50    55    57    1
    51    51    45   am
    52    46    45    2
    53    45    44    1
    54    93    91    1
    55    44    47    1
    56    26    27    2
    57    26    25    1
    58   190   189    2
    59   197   195   ar
    60   192   191    1
    61   192   193   ar
    62    62    63    1
    63    12    11    1
    64   191   188    1
    65    29    31   am
    66    29    28    1
    67   183   185   ar
    68   183   182   ar
    69    65    63   ar
    70    65    67   ar
    71   185   186   ar
    72    25    28    1
    73    25    24    1
    74    91    92    1
    75    91    90    1
    76    63    64   ar
    77   189   188    1
    78   189   198   am
    79   195   193   ar
    80    47    48    1
    81   204   205    1
    82   204   203    1
    83   187   188    1
    84   187   179   am
    85   181   182    1
    86   181   178    1
    87   182   184   ar
    88   186   184   ar
    89   199   200    1
    90   199   198    1
    91   199   202    1
    92    11    14    1
    93    11    10    1
    94   200   201    2
    95    67    66   ar
    96    49    48    1
    97   178   179    1
    98   178   177    1
    99    90    87    1
   100    14    15    1
   101    64    66   ar
   102    48    50    1
   103   179   180    2
   104   203   202    1
   105   174   173    2
   106   209   208    2
   107   206   212    1
   108   206   207    1
   109    89    88    2
   110   212   211    1
   111   177   173   am
   112    88    87    1
   113    87    86    1
   114   173   172    1
   115    15    17    1
   116    15    16    1
   117   176   175    1
   118   208   207    1
   119   150   149    1
   120   128   126   ar
   121   128   130   ar
   122   207   210    1
   123   148   149   ar
   124   148   146   ar
   125   131   130    1
   126    86    83   am
   127   126   125   ar
   128   211   210    1
   129   172   175    1
   130   172   171    1
   131   149   147   ar
   132   130   129   ar
   133   146   144   ar
   134   165   164    2
   135    94    95    1
   136    97    96    2
   137    83    84    2
   138    83    82    1
   139   125   124    1
   140   125   127   ar
   141   171   164   am
   142   170   169    1
   143   147   145   ar
   144   129   127   ar
   145   164   163    1
   146   108   107    2
   147   124   121    1
   148    85    82    1
   149    96    95    1
   150    96   105   am
   151   106   107    1
   152   106   105    1
   153   106   109    1
   154    82    81    1
   155   144   145   ar
   156   144   143    1
   157    95    98    1
   158   107   112   am
   159   105   111    1
   160   109   110    1
   161   169   168    1
   162   121   120    1
   163   121   122    1
   164   166   163    1
   165   166   167    1
   166   163   162    1
   167   120   114   am
   168   143   140    1
   169    80    79    2
   170   162   160   am
   171   168   167    1
   172   156   155    1
   173   112   113    1
   174   140   139    1
   175   140   141    1
   176   111   110    1
   177    98    99    1
   178    81    79   am
   179   114   115    2
   180   114   113    1
   181   132   122   am
   182   132   133    1
   183   122   123    2
   184    79    78    1
   185   113   116    1
   186   139   134   am
   187   160   159    1
   188   160   161    2
   189   151   141   am
   190   151   152    1
   191   158   159    1
   192   158   153   am
   193   135   134    2
   194   134   133    1
   195   141   142    2
   196   157   155    1
   197   155   152    1
   198    99   100   ar
   199    99   101   ar
   200   133   136    1
   201   152   153    1
   202   153   154    2
   203   138   136    1
   204    78    77    1
   205   100   102   ar
   206   101   103   ar
   207   116   117    1
   208   116   118    1
   209   117   119    1
   210   136   137    1
   211   103   104   ar
   212   102   104   ar
