@<TRIPOS>MOLECULE
tmp/3kekB00.pdb
 212 212 0 0 0
SMALL
GASTEIGER

@<TRIPOS>ATOM
      1  N         79.4710   23.0120   34.7710 N.3    31  LYS31      -0.1245
      2  CA        80.4120   23.1200   33.6580 C.3    31  LYS31       0.1561
      3  C         80.8900   24.5600   33.4600 C.2    31  LYS31       0.2260
      4  O         82.0680   24.8000   33.1730 O.2    31  LYS31      -0.2867
      5  CB        79.7890   22.5810   32.3640 C.3    31  LYS31       0.0271
      6  CG        80.8070   22.3190   31.2540 C.3    31  LYS31       0.0035
      7  CD        80.1930   21.6400   30.0080 C.3    31  LYS31       0.0206
      8  CE        80.7830   22.2200   28.7080 C.3    31  LYS31       0.1093
      9  NZ        81.2620   21.2000   27.7040 N.3    31  LYS31      -0.1314
     10  N         70.1460   38.6350   27.4450 N.3    76  LEU76      -0.1245
     11  CA        69.9420   37.2130   27.6950 C.3    76  LEU76       0.1561
     12  C         69.9860   36.9170   29.1870 C.2    76  LEU76       0.2260
     13  O         69.2810   36.0430   29.6780 O.2    76  LEU76      -0.2867
     14  CB        71.0190   36.4050   26.9780 C.3    76  LEU76       0.0270
     15  CG        71.2330   36.7330   25.5030 C.3    76  LEU76       0.0019
     16  CD1       72.3380   35.8360   24.9440 C.3    76  LEU76       0.0001
     17  CD2       69.9480   36.5670   24.7280 C.3    76  LEU76       0.0001
     18  N         71.0710   23.1990   25.1900 N.3   100  SER100     -0.1217
     19  CA        72.4490   22.6960   25.1760 C.3   100  SER100      0.1889
     20  C         72.9500   22.5580   23.7300 C.2   100  SER100      0.2288
     21  O         73.7410   21.6610   23.4250 O.2   100  SER100     -0.2866
     22  CB        72.5240   21.3210   25.8630 C.3   100  SER100      0.2089
     23  OG        72.0000   21.3710   27.1910 O.3   100  SER100     -0.2183
     24  N         72.4060   28.6040   24.5570 N.3   106  ASN106     -0.1240
     25  CA        73.0450   27.5300   25.3150 C.3   106  ASN106      0.1653
     26  C         73.3130   28.0190   26.7430 C.2   106  ASN106      0.2266
     27  O         74.1040   28.9440   26.9420 O.2   106  ASN106     -0.2867
     28  CB        74.3340   27.1150   24.5910 C.3   106  ASN106      0.1155
     29  CG        75.0250   25.9090   25.2220 C.2   106  ASN106      0.2627
     30  OD1       75.3120   25.8920   26.4200 O.2   106  ASN106     -0.2716
     31  ND2       75.3430   24.9180   24.3960 N.am  106  ASN106     -0.0877
     32  N         74.8640   26.7400   29.3460 N.3   108  PHE108     -0.1227
     33  CA        76.2730   26.6130   29.7230 C.3   108  PHE108      0.1736
     34  C         77.0890   27.8170   29.2440 C.2   108  PHE108      0.2595
     35  O         77.8280   28.4320   30.0190 O.2   108  PHE108     -0.2718
     36  CB        76.8920   25.3230   29.1590 C.3   108  PHE108      0.0547
     37  CG        78.3800   25.4070   28.9820 C.ar  108  PHE108     -0.0202
     38  CD1       79.2190   25.4510   30.0900 C.ar  108  PHE108     -0.0042
     39  CD2       78.9410   25.4960   27.7160 C.ar  108  PHE108     -0.0042
     40  CE1       80.5930   25.5570   29.9410 C.ar  108  PHE108     -0.0003
     41  CE2       80.3270   25.5990   27.5570 C.ar  108  PHE108     -0.0003
     42  CZ        81.1490   25.6270   28.6740 C.ar  108  PHE108     -0.0000
     43  N         76.9530   28.1310   27.9600 N.am  109  LEU109     -0.1966
     44  CA        77.7430   29.1800   27.3340 C.3   109  LEU109      0.1728
     45  C         77.4190   30.5670   27.9040 C.2   109  LEU109      0.2616
     46  O         78.3260   31.3380   28.2210 O.2   109  LEU109     -0.2715
     47  CB        77.5260   29.1420   25.8250 C.3   109  LEU109      0.0311
     48  CG        78.4490   29.9220   24.8990 C.3   109  LEU109      0.0022
     49  CD1       79.9200   29.7360   25.2710 C.3   109  LEU109      0.0001
     50  CD2       78.1800   29.4560   23.4400 C.3   109  LEU109      0.0001
     51  N         76.1310   30.8620   28.0710 N.am  110  VAL110     -0.1977
     52  CA        75.7120   32.1330   28.6510 C.3   110  VAL110      0.1596
     53  C         76.1170   32.1990   30.1350 C.2   110  VAL110      0.2287
     54  O         76.5740   33.2430   30.6040 O.2   110  VAL110     -0.2864
     55  CB        74.1800   32.3910   28.4790 C.3   110  VAL110      0.0276
     56  CG1       73.7810   33.7020   29.1490 C.3   110  VAL110      0.0022
     57  CG2       73.7730   32.4220   26.9770 C.3   110  VAL110      0.0022
     58  N         79.9280   32.9060   30.4750 N.3   113  HIS113     -0.1226
     59  CA        80.0930   34.3490   30.2340 C.3   113  HIS113      0.1752
     60  C         79.7110   35.1990   31.4640 C.2   113  HIS113      0.2595
     61  O         80.5190   35.9750   31.9680 O.2   113  HIS113     -0.2718
     62  CB        79.2700   34.7580   29.0040 C.3   113  HIS113      0.0759
     63  CG        79.2600   36.2290   28.7160 C.ar  113  HIS113      0.0818
     64  ND1       80.0850   36.8130   27.7810 N.ar  113  HIS113     -0.2268
     65  CD2       78.5140   37.2320   29.2360 C.ar  113  HIS113      0.1154
     66  CE1       79.8460   38.1110   27.7340 C.ar  113  HIS113      0.1986
     67  NE2       78.8950   38.3910   28.6060 N.ar  113  HIS113     -0.2212
     68  N         78.4800   35.0360   31.9380 N.am  114  GLU114     -0.1979
     69  CA        77.9830   35.8140   33.0700 C.3   114  GLU114      0.1602
     70  C         78.7650   35.5480   34.3610 C.2   114  GLU114      0.2287
     71  O         78.9670   36.4580   35.1560 O.2   114  GLU114     -0.2864
     72  CB        76.4850   35.5670   33.2770 C.3   114  GLU114      0.0415
     73  CG        75.6090   36.0870   32.1300 C.3   114  GLU114      0.1163
     74  CD        75.7700   37.5860   31.8800 C.2   114  GLU114      0.3649
     75  OE1       76.0060   38.3440   32.8510 O.co2 114  GLU114     -0.2457
     76  OE2       75.6590   38.0070   30.7060 O.co2 114  GLU114     -0.2457
     77  N         86.3800   36.9210   19.4130 N.3   128  GLY128     -0.1210
     78  CA        86.4290   35.4800   19.6930 C.3   128  GLY128      0.1956
     79  C         86.4320   35.1180   21.1680 C.2   128  GLY128      0.2612
     80  O         86.3950   33.9340   21.5120 O.2   128  GLY128     -0.2717
     81  N         86.4590   36.1290   22.0410 N.am  129  ALA129     -0.1965
     82  CA        86.5410   35.9080   23.4840 C.3   129  ALA129      0.1728
     83  C         85.2000   35.4430   24.0370 C.2   129  ALA129      0.2616
     84  O         84.1460   35.8450   23.5340 O.2   129  ALA129     -0.2715
     85  CB        86.9910   37.1880   24.1990 C.3   129  ALA129      0.0334
     86  N         85.2410   34.6000   25.0690 N.am  130  LEU130     -0.1977
     87  CA        84.0360   34.2520   25.8170 C.3   130  LEU130      0.1596
     88  C         83.3730   35.5310   26.3290 C.2   130  LEU130      0.2287
     89  O         82.1620   35.6710   26.2570 O.2   130  LEU130     -0.2864
     90  CB        84.3610   33.3230   26.9910 C.3   130  LEU130      0.0297
     91  CG        83.1960   32.9400   27.9090 C.3   130  LEU130      0.0022
     92  CD1       82.1050   32.2260   27.1300 C.3   130  LEU130      0.0001
     93  CD2       83.6770   32.0830   29.0970 C.3   130  LEU130      0.0001
     94  N         83.3570   38.4930   25.0740 N.3   132  PHE132     -0.1228
     95  CA        82.8140   39.4100   24.0630 C.3   132  PHE132      0.1721
     96  C         81.3140   39.5730   24.3400 C.2   132  PHE132      0.2437
     97  O         80.6640   38.6090   24.7310 O.2   132  PHE132     -0.2733
     98  CB        83.0470   38.8690   22.6440 C.3   132  PHE132      0.0547
     99  CG        82.8910   39.9040   21.5590 C.ar  132  PHE132     -0.0202
    100  CD1       83.7530   40.9900   21.4870 C.ar  132  PHE132     -0.0042
    101  CD2       81.8870   39.7890   20.6030 C.ar  132  PHE132     -0.0042
    102  CE1       83.6150   41.9500   20.4850 C.ar  132  PHE132     -0.0003
    103  CE2       81.7450   40.7430   19.5950 C.ar  132  PHE132     -0.0003
    104  CZ        82.6100   41.8250   19.5360 C.ar  132  PHE132     -0.0000
    105  N         80.7710   40.7990   24.1830 N.am  133  PRO133     -0.2718
    106  CA        79.3680   41.0390   24.5380 C.3   133  PRO133      0.1535
    107  C         78.3290   40.3400   23.6520 C.2   133  PRO133      0.2598
    108  O         77.2510   39.9950   24.1390 O.2   133  PRO133     -0.2715
    109  CB        79.2260   42.5690   24.4350 C.3   133  PRO133      0.0310
    110  CG        80.3230   43.0140   23.5750 C.3   133  PRO133      0.0237
    111  CD        81.4390   42.0310   23.7250 C.3   133  PRO133      0.0939
    112  N         78.6430   40.1400   22.3750 N.am  134  ILE134     -0.1964
    113  CA        77.6920   39.5510   21.4320 C.3   134  ILE134      0.1727
    114  C         77.8260   38.0280   21.4250 C.2   134  ILE134      0.2616
    115  O         78.9140   37.4920   21.2070 O.2   134  ILE134     -0.2715
    116  CB        77.8730   40.1250   20.0060 C.3   134  ILE134      0.0290
    117  CG1       77.5620   41.6230   19.9980 C.3   134  ILE134      0.0022
    118  CG2       76.9690   39.4080   19.0110 C.3   134  ILE134      0.0023
    119  CD1       77.7200   42.2750   18.6370 C.3   134  ILE134      0.0001
    120  N         76.7110   37.3450   21.6850 N.am  135  TYR135     -0.1960
    121  CA        76.6260   35.8850   21.6060 C.3   135  TYR135      0.1771
    122  C         76.9290   35.4390   20.1800 C.2   135  TYR135      0.2620
    123  O         76.2260   35.8260   19.2380 O.2   135  TYR135     -0.2715
    124  CB        75.2210   35.4320   22.0120 C.3   135  TYR135      0.0574
    125  CG        75.0250   33.9380   22.1800 C.ar  135  TYR135     -0.0198
    126  CD1       75.2970   33.3120   23.3940 C.ar  135  TYR135     -0.0009
    127  CD2       74.5280   33.1570   21.1350 C.ar  135  TYR135     -0.0009
    128  CE1       75.1070   31.9440   23.5570 C.ar  135  TYR135      0.0417
    129  CE2       74.3230   31.7970   21.2920 C.ar  135  TYR135      0.0417
    130  CZ        74.6110   31.1990   22.5030 C.ar  135  TYR135      0.1957
    131  OH        74.4120   29.8550   22.6520 O.3   135  TYR135     -0.2866
    132  N         77.9850   34.6430   20.0250 N.am  136  THR136     -0.1937
    133  CA        78.3920   34.1580   18.7050 C.3   136  THR136      0.2028
    134  C         78.8380   32.6900   18.7720 C.2   136  THR136      0.2642
    135  O         79.9790   32.3850   19.1350 O.2   136  THR136     -0.2714
    136  CB        79.4790   35.0750   18.0450 C.3   136  THR136      0.1808
    137  OG1       80.7670   34.4570   18.0910 O.3   136  THR136     -0.2208
    138  CG2       79.5380   36.4380   18.7110 C.3   136  THR136      0.0379
    139  N         77.9110   31.7950   18.4180 N.am  137  TYR137     -0.1959
    140  CA        78.1360   30.3440   18.4400 C.3   137  TYR137      0.1771
    141  C         79.1140   29.9440   17.3270 C.2   137  TYR137      0.2620
    142  O         78.9390   30.3320   16.1740 O.2   137  TYR137     -0.2715
    143  CB        76.8010   29.6070   18.2550 C.3   137  TYR137      0.0574
    144  CG        76.6440   28.3370   19.0580 C.ar  137  TYR137     -0.0198
    145  CD1       76.7340   27.0780   18.4570 C.ar  137  TYR137     -0.0009
    146  CD2       76.3690   28.3960   20.4200 C.ar  137  TYR137     -0.0009
    147  CE1       76.5690   25.9120   19.2050 C.ar  137  TYR137      0.0417
    148  CE2       76.2080   27.2450   21.1760 C.ar  137  TYR137      0.0417
    149  CZ        76.3080   26.0110   20.5720 C.ar  137  TYR137      0.1957
    150  OH        76.1400   24.8930   21.3480 O.3   137  TYR137     -0.2866
    151  N         80.1320   29.1640   17.6850 N.am  138  THR138     -0.1937
    152  CA        81.2400   28.8320   16.7810 C.3   138  THR138      0.2028
    153  C         81.0890   27.5180   16.0160 C.2   138  THR138      0.2643
    154  O         81.7860   27.2920   15.0150 O.2   138  THR138     -0.2714
    155  CB        82.5680   28.7160   17.5600 C.3   138  THR138      0.1808
    156  OG1       82.5350   27.5430   18.3880 O.3   138  THR138     -0.2208
    157  CG2       82.8040   29.9450   18.4130 C.3   138  THR138      0.0379
    158  N         80.2410   26.6190   16.5010 N.am  139  GLY139     -0.1939
    159  CA        80.0850   25.3160   15.8380 C.3   139  GLY139      0.2014
    160  C         81.2630   24.3470   15.9470 C.2   139  GLY139      0.2639
    161  O         81.3130   23.3490   15.2210 O.2   139  GLY139     -0.2714
    162  N         82.2180   24.6270   16.8360 N.am  140  LYS140     -0.1963
    163  CA        83.2670   23.6560   17.1600 C.3   140  LYS140      0.1728
    164  C         82.6670   22.5770   18.0640 C.2   140  LYS140      0.2617
    165  O         81.7130   22.8310   18.7940 O.2   140  LYS140     -0.2715
    166  CB        84.4720   24.3360   17.8190 C.3   140  LYS140      0.0311
    167  CG        85.3940   25.0170   16.8150 C.3   140  LYS140      0.0038
    168  CD        86.4770   25.8530   17.4800 C.3   140  LYS140      0.0206
    169  CE        87.4690   26.4030   16.4520 C.3   140  LYS140      0.1093
    170  NZ        88.7710   26.7780   17.0980 N.3   140  LYS140     -0.1314
    171  N         83.1990   21.3620   17.9810 N.am  141  SER141     -0.1936
    172  CA        82.6970   20.2520   18.8010 C.3   141  SER141      0.2055
    173  C         83.0260   20.4250   20.2980 C.2   141  SER141      0.2643
    174  O         82.2850   19.9590   21.1610 O.2   141  SER141     -0.2714
    175  CB        83.2670   18.9300   18.2900 C.3   141  SER141      0.2130
    176  OG        84.6730   19.0260   18.1280 O.3   141  SER141     -0.2179
    177  N         84.1410   21.0930   20.5890 N.am  142  HIS142     -0.1959
    178  CA        84.6380   21.2450   21.9610 C.3   142  HIS142      0.1787
    179  C         84.6560   22.7130   22.3760 C.2   142  HIS142      0.2620
    180  O         84.6680   23.6010   21.5230 O.2   142  HIS142     -0.2715
    181  CB        86.0560   20.6620   22.0740 C.3   142  HIS142      0.0785
    182  CG        87.1240   21.5250   21.4660 C.ar  142  HIS142      0.0821
    183  ND1       87.2970   21.6520   20.1030 N.ar  142  HIS142     -0.2267
    184  CD2       88.0790   22.3000   22.0380 C.ar  142  HIS142      0.1154
    185  CE1       88.3100   22.4680   19.8630 C.ar  142  HIS142      0.1986
    186  NE2       88.8040   22.8730   21.0190 N.ar  142  HIS142     -0.2212
    187  N         84.6450   22.9550   23.6890 N.am  143  PHE143     -0.1960
    188  CA        84.8640   24.2910   24.2370 C.3   143  PHE143      0.1771
    189  C         86.3100   24.4390   24.7250 C.2   143  PHE143      0.2619
    190  O         86.8150   23.5750   25.4460 O.2   143  PHE143     -0.2715
    191  CB        83.9030   24.5800   25.3990 C.3   143  PHE143      0.0574
    192  CG        84.0750   25.9540   25.9910 C.ar  143  PHE143     -0.0200
    193  CD1       83.4360   27.0520   25.4240 C.ar  143  PHE143     -0.0042
    194  CD2       84.8980   26.1560   27.0880 C.ar  143  PHE143     -0.0042
    195  CE1       83.6040   28.3190   25.9500 C.ar  143  PHE143     -0.0003
    196  CE2       85.0760   27.4270   27.6170 C.ar  143  PHE143     -0.0003
    197  CZ        84.4260   28.5120   27.0470 C.ar  143  PHE143     -0.0000
    198  N         86.9640   25.5350   24.3240 N.am  144  MET144     -0.1977
    199  CA        88.2500   25.9560   24.8980 C.3   144  MET144      0.1605
    200  C         88.1140   27.4210   25.3070 C.2   144  MET144      0.2287
    201  O         87.6780   28.2460   24.5060 O.2   144  MET144     -0.2864
    202  CB        89.4050   25.8100   23.8870 C.3   144  MET144      0.0413
    203  CG        90.8170   25.9500   24.5100 C.3   144  MET144      0.0598
    204  SD        92.1560   26.5560   23.4370 S.3   144  MET144     -0.1393
    205  CE        91.6580   25.8640   21.8480 C.3   144  MET144      0.0692
    206  N         89.2850   30.8820   25.4590 N.3   146  PRO146     -0.2116
    207  CA        90.3300   31.6080   24.7170 C.3   146  PRO146      0.1372
    208  C         91.3850   32.2500   25.6170 C.2   146  PRO146      0.2244
    209  O         91.0820   32.6150   26.7510 O.2   146  PRO146     -0.2868
    210  CB        89.5490   32.6930   23.9640 C.3   146  PRO146      0.0268
    211  CG        88.1510   32.1580   23.8610 C.3   146  PRO146      0.0207
    212  CD        87.9420   31.4040   25.1530 C.3   146  PRO146      0.0892
@<TRIPOS>BOND
     1   154   153    2
     2   161   160    2
     3   159   160    1
     4   159   158    1
     5   160   162   am
     6   153   158   am
     7   153   152    1
     8   142   141    2
     9   169   170    1
    10   169   168    1
    11   152   155    1
    12   152   151    1
    13   167   168    1
    14   167   166    1
    15   162   163    1
    16   163   166    1
    17   163   164    1
    18   141   151   am
    19   141   140    1
    20   155   156    1
    21   155   157    1
    22   171   164   am
    23   171   172    1
    24   136   137    1
    25   136   133    1
    26   136   138    1
    27   164   165    2
    28   176   175    1
    29   143   140    1
    30   143   144    1
    31   175   172    1
    32   139   140    1
    33   139   134   am
    34   145   144   ar
    35   145   147   ar
    36   119   117    1
    37   133   134    1
    38   133   132    1
    39   134   135    2
    40   172   173    1
    41   118   116    1
    42   144   146   ar
    43   147   149   ar
    44   123   122    2
    45    77    78    1
    46   104   103   ar
    47   104   102   ar
    48   103   101   ar
    49    78    79    1
    50   185   183   ar
    51   185   186   ar
    52   117   116    1
    53   116   113    1
    54   132   122   am
    55   183   182   ar
    56   122   121    1
    57   173   177   am
    58   173   174    2
    59   146   148   ar
    60   102   100   ar
    61   149   148   ar
    62   149   150    1
    63   177   178    1
    64   101    99   ar
    65   186   184   ar
    66   127   129   ar
    67   127   125   ar
    68    79    80    2
    69    79    81   am
    70   115   114    2
    71   129   130   ar
    72   114   113    1
    73   114   120   am
    74   113   112    1
    75   182   184   ar
    76   182   181    1
    77   100    99   ar
    78   180   179    2
    79    99    98    1
    80   121   120    1
    81   121   124    1
    82   205   204    1
    83   178   181    1
    84   178   179    1
    85   124   125    1
    86    81    82    1
    87   125   126   ar
    88   112   107   am
    89   179   187   am
    90   130   131    1
    91   130   128   ar
    92    98    95    1
    93   126   128   ar
    94    21    20    2
    95   204   203    1
    96    50    48    1
    97    82    83    1
    98    82    85    1
    99    84    83    2
   100   110   111    1
   101   110   109    1
   102   107   108    2
   103   107   106    1
   104   187   188    1
   105   111   105    1
   106    20    19    1
   107   211   210    1
   108   211   212    1
   109   202   203    1
   110   202   199    1
   111   210   207    1
   112    83    86   am
   113    95    96    1
   114    95    94    1
   115   105    96   am
   116   105   106    1
   117   188   189    1
   118   188   191    1
   119   198   189   am
   120   198   199    1
   121    96    97    2
   122    31    29   am
   123   109   106    1
   124   201   200    2
   125    24    25    1
   126    28    29    1
   127    28    25    1
   128   207   206    1
   129   207   208    1
   130   189   190    2
   131    17    15    1
   132   199   200    1
   133    48    49    1
   134    48    47    1
   135    16    15    1
   136    86    87    1
   137   212   206    1
   138    19    18    1
   139    19    22    1
   140    29    30    2
   141    25    26    1
   142   191   192    1
   143   193   195   ar
   144   193   192   ar
   145    15    14    1
   146   208   209    2
   147    87    88    1
   148    87    90    1
   149    47    44    1
   150    22    23    1
   151   195   197   ar
   152   192   194   ar
   153    89    88    2
   154    26    27    2
   155    57    55    1
   156    14    11    1
   157    90    91    1
   158   197   196   ar
   159   194   196   ar
   160    92    91    1
   161    44    45    1
   162    44    43    1
   163    10    11    1
   164    41    39   ar
   165    41    42   ar
   166    11    12    1
   167     9     8    1
   168    39    37   ar
   169    66    64   ar
   170    66    67   ar
   171    64    63   ar
   172    45    51   am
   173    45    46    2
   174    91    93    1
   175    43    34   am
   176    51    52    1
   177    55    52    1
   178    55    56    1
   179    67    65   ar
   180    52    53    1
   181    42    40   ar
   182     8     7    1
   183    63    62    1
   184    63    65   ar
   185    37    36    1
   186    37    38   ar
   187    62    59    1
   188    36    33    1
   189    12    13    2
   190    34    33    1
   191    34    35    2
   192    32    33    1
   193    40    38   ar
   194     7     6    1
   195    53    54    2
   196    59    58    1
   197    59    60    1
   198    76    74   ar
   199     6     5    1
   200    60    68   am
   201    60    61    2
   202    74    73    1
   203    74    75   ar
   204    68    69    1
   205    73    72    1
   206     5     2    1
   207    69    72    1
   208    69    70    1
   209     4     3    2
   210     3     2    1
   211     2     1    1
   212    70    71    2
