@<TRIPOS>MOLECULE
tmp/3keoB01.pdb
 172 164 0 0 0
SMALL
GASTEIGER

@<TRIPOS>ATOM
      1  N         45.1820   54.3950   26.9140 N.3    85  VAL85      -0.1231
      2  CA        44.7980   55.0590   25.6590 C.3    85  VAL85       0.1692
      3  C         43.3140   55.4690   25.7630 C.2    85  VAL85       0.2593
      4  O         42.3910   54.6020   25.8760 O.2    85  VAL85      -0.2718
      5  CB        45.0320   54.1410   24.4670 C.3    85  VAL85       0.0266
      6  CG1       44.7400   54.9130   23.1500 C.3    85  VAL85       0.0020
      7  CG2       46.4300   53.5140   24.5780 C.3    85  VAL85       0.0020
      8  N         43.0970   56.7860   25.7740 N.am   86  GLY86      -0.1942
      9  CA        41.7740   57.3900   25.9240 C.3    86  GLY86       0.2014
     10  C         41.5780   57.9470   27.2900 C.2    86  GLY86       0.2639
     11  O         41.1540   57.2560   28.2330 O.2    86  GLY86      -0.2714
     12  N         41.8000   59.2230   27.4430 N.am   87  CYS87      -0.1953
     13  CA        41.7670   59.8950   28.6960 C.3    87  CYS87       0.1843
     14  C         40.4370   60.6640   28.8200 C.2    87  CYS87       0.2626
     15  O         40.4530   61.9020   29.0370 O.2    87  CYS87      -0.2714
     16  CB        43.0080   60.8740   28.7530 C.3    87  CYS87       0.0997
     17  SG        44.5620   60.0560   28.8210 S.3    87  CYS87      -0.0797
     18  N         39.3280   59.9700   28.7100 N.am   88  GLY88      -0.1940
     19  CA        38.0000   60.5500   28.8900 C.3    88  GLY88       0.2014
     20  C         37.4620   60.2320   30.3020 C.2    88  GLY88       0.2639
     21  O         38.2160   60.2720   31.2690 O.2    88  GLY88      -0.2714
     22  N         36.1410   59.9630   30.4110 N.am   89  ASN89      -0.1958
     23  CA        35.5120   59.7660   31.7050 C.3    89  ASN89       0.1819
     24  C         36.1970   58.6410   32.4420 C.2    89  ASN89       0.2621
     25  O         36.7100   58.8510   33.5320 O.2    89  ASN89      -0.2715
     26  CB        34.0200   59.4390   31.5890 C.3    89  ASN89       0.1195
     27  CG        33.2320   60.5240   30.9050 C.2    89  ASN89       0.2630
     28  OD1       32.5810   60.2860   29.8560 O.2    89  ASN89      -0.2716
     29  ND2       33.2280   61.6760   31.5110 N.am   89  ASN89      -0.0877
     30  N         36.2500   57.4170   31.8750 N.am   90  ILE90      -0.1963
     31  CA        36.8620   56.3420   32.5980 C.3    90  ILE90       0.1727
     32  C         38.3700   56.3780   32.6270 C.2    90  ILE90       0.2616
     33  O         38.9940   56.1280   33.6590 O.2    90  ILE90      -0.2715
     34  CB        36.2450   54.9320   32.1660 C.3    90  ILE90       0.0290
     35  CG1       36.7620   53.8540   33.0930 C.3    90  ILE90       0.0022
     36  CG2       36.5620   54.5550   30.7710 C.3    90  ILE90       0.0023
     37  CD1       36.2690   54.0740   34.5390 C.3    90  ILE90       0.0001
     38  N         38.9960   56.8170   31.5180 N.am   91  GLY91      -0.1955
     39  CA        40.4600   56.8790   31.4740 C.3    91  GLY91       0.1869
     40  C         41.0070   57.8430   32.5420 C.2    91  GLY91       0.2309
     41  O         41.9690   57.5270   33.2430 O.2    91  GLY91      -0.2863
     42  N         45.8350   60.3560   24.1010 N.3   112  ASP112     -0.1225
     43  CA        44.5260   60.7790   23.6560 C.3   112  ASP112      0.1805
     44  C         44.6750   61.3150   22.2090 C.2   112  ASP112      0.2597
     45  O         45.7460   61.1470   21.5860 O.2   112  ASP112     -0.2718
     46  CB        43.9270   61.8580   24.6000 C.3   112  ASP112      0.1424
     47  CG        42.3780   61.8350   24.6000 C.2   112  ASP112      0.3668
     48  OD1       41.7580   62.4090   23.7070 O.co2 112  ASP112     -0.2456
     49  OD2       41.7770   61.1830   25.4890 O.co2 112  ASP112     -0.2456
     50  N         43.6100   61.8420   21.6450 N.am  113  LEU113     -0.1979
     51  CA        43.7220   62.5380   20.3730 C.3   113  LEU113      0.1596
     52  C         44.7940   63.6190   20.4220 C.2   113  LEU113      0.2287
     53  O         44.9390   64.2850   21.4470 O.2   113  LEU113     -0.2864
     54  CB        42.3700   63.1050   20.0040 C.3   113  LEU113      0.0297
     55  CG        41.3070   62.0930   19.6450 C.3   113  LEU113      0.0022
     56  CD1       39.9940   62.8570   19.4710 C.3   113  LEU113      0.0001
     57  CD2       41.6490   61.2300   18.4650 C.3   113  LEU113      0.0001
     58  N         43.6230   66.8210   21.9660 N.3   116  ASN116     -0.1240
     59  CA        42.9550   66.8370   23.2450 C.3   116  ASN116      0.1653
     60  C         43.6720   67.7940   24.1910 C.2   116  ASN116      0.2266
     61  O         44.9060   67.9520   24.1710 O.2   116  ASN116     -0.2867
     62  CB        42.9410   65.4070   23.8020 C.3   116  ASN116      0.1155
     63  CG        42.1330   65.2740   25.1090 C.2   116  ASN116      0.2627
     64  OD1       42.7150   65.3480   26.1540 O.2   116  ASN116     -0.2716
     65  ND2       40.8060   65.0870   25.0180 N.am  116  ASN116     -0.0877
     66  N         48.0760   60.3260   20.0940 N.3   132  ILE132     -0.1245
     67  CA        48.0880   59.0030   19.5120 C.3   132  ILE132      0.1561
     68  C         48.9420   58.8710   18.2490 C.2   132  ILE132      0.2260
     69  O         49.5100   57.8000   17.9750 O.2   132  ILE132     -0.2867
     70  CB        46.6500   58.5610   19.2580 C.3   132  ILE132      0.0252
     71  CG1       46.5570   57.0760   18.9960 C.3   132  ILE132      0.0019
     72  CG2       45.8940   59.3310   18.1590 C.3   132  ILE132      0.0019
     73  CD1       47.1700   56.1610   20.0960 C.3   132  ILE132      0.0001
     74  N         40.4350   52.7090   26.6560 N.3   150  THR150     -0.1203
     75  CA        39.3020   53.4820   27.1710 C.3   150  THR150      0.1994
     76  C         38.9010   54.5510   26.1560 C.2   150  THR150      0.2618
     77  O         38.6960   55.7050   26.4680 O.2   150  THR150     -0.2717
     78  CB        39.5290   53.9590   28.6050 C.3   150  THR150      0.1784
     79  OG1       40.8090   54.5800   28.6640 O.3   150  THR150     -0.2211
     80  CG2       39.4850   52.8120   29.6050 C.3   150  THR150      0.0376
     81  N         38.9120   54.2160   24.8710 N.am  151  VAL151     -0.1966
     82  CA        38.4040   55.1340   23.8310 C.3   151  VAL151      0.1712
     83  C         36.9150   54.9130   23.6210 C.2   151  VAL151      0.2458
     84  O         36.3810   53.9320   24.0980 O.2   151  VAL151     -0.2730
     85  CB        39.2440   54.9600   22.5090 C.3   151  VAL151      0.0289
     86  CG1       40.6570   55.3830   22.7810 C.3   151  VAL151      0.0023
     87  CG2       39.0620   53.5150   21.9750 C.3   151  VAL151      0.0023
     88  N         36.2340   55.7920   22.8750 N.am  152  PRO152     -0.2716
     89  CA        34.8480   55.4780   22.5530 C.3   152  PRO152      0.1536
     90  C         34.7130   54.1230   21.8390 C.2   152  PRO152      0.2599
     91  O         35.6170   53.6690   21.0980 O.2   152  PRO152     -0.2715
     92  CB        34.4030   56.6700   21.6950 C.3   152  PRO152      0.0310
     93  CG        35.4150   57.7590   21.9610 C.3   152  PRO152      0.0237
     94  CD        36.6730   57.0220   22.1980 C.3   152  PRO152      0.0939
     95  N         33.5770   53.4750   22.0530 N.am  153  SER153     -0.1950
     96  CA        33.3230   52.1390   21.4910 C.3   153  SER153      0.1924
     97  C         33.4850   52.1190   19.9660 C.2   153  SER153      0.2314
     98  O         34.0430   51.2150   19.4200 O.2   153  SER153     -0.2863
     99  CB        31.9190   51.6570   21.9010 C.3   153  SER153      0.2116
    100  OG        31.8060   51.6760   23.3180 O.3   153  SER153     -0.2180
    101  N         35.5240   53.7280   18.2620 N.3   155  GLU155     -0.1245
    102  CA        36.9420   53.8600   17.9030 C.3   155  GLU155      0.1567
    103  C         37.8090   52.6950   18.3920 C.2   155  GLU155      0.2260
    104  O         39.0110   52.6150   18.0340 O.2   155  GLU155     -0.2867
    105  CB        37.5070   55.1600   18.4720 C.3   155  GLU155      0.0388
    106  CG        36.7240   56.4170   18.2460 C.3   155  GLU155      0.1160
    107  CD        36.4030   56.6550   16.7920 C.2   155  GLU155      0.3649
    108  OE1       37.3340   56.8180   15.9700 O.co2 155  GLU155     -0.2457
    109  OE2       35.2170   56.6730   16.4620 O.co2 155  GLU155     -0.2457
    110  N         39.8070   50.4130   15.7700 N.3   158  GLU158     -0.1231
    111  CA        40.7960   51.1380   15.0120 C.3   158  GLU158      0.1699
    112  C         41.9780   51.4510   15.8860 C.2   158  GLU158      0.2592
    113  O         43.1250   51.3290   15.5100 O.2   158  GLU158     -0.2718
    114  CB        40.1690   52.4570   14.5200 C.3   158  GLU158      0.0402
    115  CG        41.1210   53.4040   13.8020 C.3   158  GLU158      0.1161
    116  CD        40.3480   54.6490   13.2890 C.2   158  GLU158      0.3649
    117  OE1       39.3950   54.4330   12.5550 O.co2 158  GLU158     -0.2457
    118  OE2       40.6300   55.8240   13.6790 O.co2 158  GLU158     -0.2457
    119  N         41.7100   51.8510   17.1170 N.am  159  VAL159     -0.1980
    120  CA        42.8010   52.1820   18.0470 C.3   159  VAL159      0.1595
    121  C         43.5460   50.9260   18.4830 C.2   159  VAL159      0.2287
    122  O         44.7720   50.9510   18.5740 O.2   159  VAL159     -0.2864
    123  CB        42.3000   53.0680   19.2350 C.3   159  VAL159      0.0276
    124  CG1       43.4280   53.2610   20.3620 C.3   159  VAL159      0.0022
    125  CG2       41.7580   54.3450   18.7730 C.3   159  VAL159      0.0022
    126  N         46.0140   50.1250   15.8780 N.3   162  ILE162     -0.1245
    127  CA        47.1610   51.0270   16.0110 C.3   162  ILE162      0.1561
    128  C         48.1550   50.5000   17.1090 C.2   162  ILE162      0.2260
    129  O         49.3830   50.4550   16.9470 O.2   162  ILE162     -0.2867
    130  CB        46.6770   52.4710   16.3650 C.3   162  ILE162      0.0252
    131  CG1       46.0530   53.1310   15.1010 C.3   162  ILE162      0.0019
    132  CG2       47.8510   53.3390   16.9530 C.3   162  ILE162      0.0019
    133  CD1       45.3450   54.4060   15.3440 C.3   162  ILE162      0.0001
    134  N         37.9130   48.2540   27.9820 N.3   174  PHE174     -0.1227
    135  CA        36.6890   48.5610   28.6410 C.3   174  PHE174      0.1736
    136  C         35.5190   48.7370   27.7000 C.2   174  PHE174      0.2596
    137  O         34.3830   48.8560   28.1550 O.2   174  PHE174     -0.2718
    138  CB        36.8430   49.8500   29.4040 C.3   174  PHE174      0.0547
    139  CG        37.5470   49.7480   30.6980 C.ar  174  PHE174     -0.0202
    140  CD1       38.8800   49.4770   30.7480 C.ar  174  PHE174     -0.0042
    141  CD2       36.8140   49.7900   31.9090 C.ar  174  PHE174     -0.0042
    142  CE1       39.5300   49.3410   31.9670 C.ar  174  PHE174     -0.0003
    143  CE2       37.4830   49.6330   33.1060 C.ar  174  PHE174     -0.0003
    144  CZ        38.7870   49.3990   33.1260 C.ar  174  PHE174     -0.0000
    145  N         35.7770   48.8270   26.3990 N.am  175  SER175     -0.1938
    146  CA        34.7030   49.0270   25.4540 C.3   175  SER175      0.2040
    147  C         33.8870   47.7910   25.3470 C.2   175  SER175      0.2485
    148  O         34.4430   46.6880   25.2340 O.2   175  SER175     -0.2729
    149  CB        35.2490   49.4000   24.0780 C.3   175  SER175      0.2129
    150  OG        35.6190   50.7760   23.9900 O.3   175  SER175     -0.2179
    151  N         32.5070   47.9340   25.2810 N.am  176  PRO176     -0.2726
    152  CA        31.7970   46.6540   25.0640 C.3   176  PRO176      0.1402
    153  C         31.6660   46.3500   23.5570 C.2   176  PRO176      0.2269
    154  O         30.5910   46.4440   22.9600 O.2   176  PRO176     -0.2865
    155  CB        30.4600   46.8660   25.7790 C.3   176  PRO176      0.0296
    156  CG        30.1680   48.3270   25.5480 C.3   176  PRO176      0.0237
    157  CD        31.5670   48.9980   25.6360 C.3   176  PRO176      0.0939
    158  N         36.8910   44.1560   30.3270 N.3   190  VAL190     -0.1245
    159  CA        36.1880   44.5630   31.5450 C.3   190  VAL190      0.1561
    160  C         34.7960   44.9360   31.0490 C.2   190  VAL190      0.2260
    161  O         34.6210   45.9350   30.2640 O.2   190  VAL190     -0.2867
    162  CB        36.8630   45.7340   32.2150 C.3   190  VAL190      0.0252
    163  CG1       35.9830   46.2050   33.4390 C.3   190  VAL190      0.0019
    164  CG2       38.2310   45.3300   32.6150 C.3   190  VAL190      0.0019
    165  N         31.2060   45.6060   32.5010 N.3   192  LEU192     -0.1245
    166  CA        30.4470   45.8620   33.7260 C.3   192  LEU192      0.1561
    167  C         29.0100   45.4450   33.6370 C.2   192  LEU192      0.2260
    168  O         28.4260   45.1050   34.6560 O.2   192  LEU192     -0.2867
    169  CB        30.5290   47.3450   34.0850 C.3   192  LEU192      0.0270
    170  CG        31.9220   47.9510   34.4000 C.3   192  LEU192      0.0019
    171  CD1       31.7880   49.4990   34.8040 C.3   192  LEU192      0.0001
    172  CD2       32.7530   47.3010   35.4670 C.3   192  LEU192      0.0001
@<TRIPOS>BOND
     1   117   116   ar
     2   116   118   ar
     3   116   115    1
     4   115   114    1
     5   114   111    1
     6   111   110    1
     7   111   112    1
     8   131   133    1
     9   131   130    1
    10   113   112    2
    11   126   127    1
    12   112   119   am
    13   108   107   ar
    14   127   130    1
    15   127   128    1
    16   130   132    1
    17   109   107   ar
    18   107   106    1
    19   129   128    2
    20   119   120    1
    21   102   101    1
    22   102   103    1
    23   102   105    1
    24    69    68    2
    25   104   103    2
    26   120   121    1
    27   120   123    1
    28    72    70    1
    29   106   105    1
    30    68    67    1
    31    57    55    1
    32   121   122    2
    33   125   123    1
    34    71    70    1
    35    71    73    1
    36   123   124    1
    37    70    67    1
    38    98    97    2
    39    56    55    1
    40    67    66    1
    41    55    54    1
    42    97    96    1
    43    54    51    1
    44    51    52    1
    45    51    50    1
    46    52    53    2
    47    91    90    2
    48    96    99    1
    49    96    95    1
    50    45    44    2
    51    50    44   am
    52    92    93    1
    53    92    89    1
    54    90    95   am
    55    90    89    1
    56    99   100    1
    57    93    94    1
    58    58    59    1
    59    87    85    1
    60    94    88    1
    61    44    43    1
    62    85    86    1
    63    85    82    1
    64    89    88    1
    65    88    83   am
    66   154   153    2
    67     6     5    1
    68    59    62    1
    69    59    60    1
    70   153   152    1
    71    83    82    1
    72    83    84    2
    73    43    42    1
    74    43    46    1
    75    48    47   ar
    76    62    63    1
    77    82    81    1
    78   150   149    1
    79   149   146    1
    80    61    60    2
    81     5     7    1
    82     5     2    1
    83    46    47    1
    84    47    49   ar
    85    81    76   am
    86    65    63   am
    87   152   151    1
    88   152   155    1
    89    63    64    2
    90   148   147    2
    91   151   147   am
    92   151   157    1
    93   147   146    1
    94   146   145    1
    95   156   157    1
    96   156   155    1
    97     2     3    1
    98     2     1    1
    99     3     8   am
   100     3     4    2
   101     8     9    1
   102     9    10    1
   103    76    77    2
   104    76    75    1
   105   145   136   am
   106    74    75    1
   107    75    78    1
   108    10    12   am
   109    10    11    2
   110    12    13    1
   111   136   137    2
   112   136   135    1
   113   134   135    1
   114    78    79    1
   115    78    80    1
   116   135   138    1
   117    13    16    1
   118    13    14    1
   119    18    14   am
   120    18    19    1
   121    16    17    1
   122    14    15    2
   123    19    20    1
   124   138   139    1
   125    28    27    2
   126   161   160    2
   127    20    22   am
   128    20    21    2
   129   158   159    1
   130    22    23    1
   131   139   140   ar
   132   139   141   ar
   133   140   142   ar
   134    36    34    1
   135    27    29   am
   136    27    26    1
   137   160   159    1
   138    39    38    1
   139    39    40    1
   140    38    32   am
   141   159   162    1
   142    26    23    1
   143    23    24    1
   144    30    24   am
   145    30    31    1
   146   141   143   ar
   147   142   144   ar
   148    34    31    1
   149    34    35    1
   150   162   164    1
   151   162   163    1
   152    24    25    2
   153   165   166    1
   154    40    41    2
   155    31    32    1
   156    32    33    2
   157    35    37    1
   158   143   144   ar
   159   167   166    1
   160   167   168    2
   161   166   169    1
   162   169   170    1
   163   170   171    1
   164   170   172    1
