@<TRIPOS>MOLECULE
tmp/3kerB00.pdb
 90 85 0 0 0
SMALL
GASTEIGER

@<TRIPOS>ATOM
      1  N         -4.4050  -23.8780   17.4170 N.3     1  PRO1       -0.2102
      2  CA        -3.2940  -23.6770   16.4800 C.3     1  PRO1        0.1504
      3  C         -2.0800  -22.9560   17.0830 C.2     1  PRO1        0.2575
      4  O         -2.1730  -22.2470   18.0910 O.2     1  PRO1       -0.2718
      5  CB        -3.9210  -22.8360   15.3620 C.3     1  PRO1        0.0282
      6  CG        -5.3870  -23.0410   15.5160 C.3     1  PRO1        0.0208
      7  CD        -5.5710  -23.0820   16.9980 C.3     1  PRO1        0.0893
      8  N         -0.9420  -23.1460   16.4330 N.am    2  PHE2       -0.1977
      9  CA         0.2970  -22.5160   16.8320 C.3     2  PHE2        0.1639
     10  C          0.8640  -21.7730   15.6360 C.2     2  PHE2        0.2290
     11  O          1.0780  -22.3560   14.5730 O.2     2  PHE2       -0.2864
     12  CB         1.3130  -23.5600   17.2840 C.3     2  PHE2        0.0560
     13  CG         0.8700  -24.3480   18.4650 C.ar    2  PHE2       -0.0200
     14  CD1        0.0580  -25.4720   18.3020 C.ar    2  PHE2       -0.0042
     15  CD2        1.2410  -23.9610   19.7470 C.ar    2  PHE2       -0.0042
     16  CE1       -0.3800  -26.2070   19.3930 C.ar    2  PHE2       -0.0003
     17  CE2        0.8080  -24.6880   20.8540 C.ar    2  PHE2       -0.0003
     18  CZ        -0.0080  -25.8170   20.6720 C.ar    2  PHE2       -0.0000
     19  N        -10.4870  -21.8470   13.4140 N.3    32  LYS32      -0.1231
     20  CA       -10.3480  -22.4440   14.7290 C.3    32  LYS32       0.1678
     21  C        -10.6210  -21.3090   15.6920 C.2    32  LYS32       0.2434
     22  O        -10.4530  -20.1350   15.3470 O.2    32  LYS32      -0.2733
     23  CB        -8.9410  -22.9970   14.9270 C.3    32  LYS32       0.0284
     24  CG        -8.5860  -24.1440   13.9830 C.3    32  LYS32       0.0035
     25  CD        -8.8960  -25.5140   14.5770 C.3    32  LYS32       0.0206
     26  CE        -8.2030  -26.6010   13.7520 C.3    32  LYS32       0.1093
     27  NZ        -8.2670  -27.9910   14.3200 N.3    32  LYS32      -0.1314
     28  N        -11.0770  -21.6360   16.9040 N.am   33  PRO33      -0.2729
     29  CA       -11.3670  -20.5870   17.8830 C.3    33  PRO33       0.1401
     30  C        -10.1730  -19.6860   18.1850 C.2    33  PRO33       0.2269
     31  O         -9.0690  -20.1550   18.4530 O.2    33  PRO33      -0.2865
     32  CB       -11.8660  -21.3720   19.0970 C.3    33  PRO33       0.0296
     33  CG       -11.2400  -22.7360   18.9330 C.3    33  PRO33       0.0237
     34  CD       -11.3480  -22.9760   17.4520 C.3    33  PRO33       0.0939
     35  N         -7.8330  -20.0110   21.2860 N.3    36  ARG36      -0.1245
     36  CA        -6.9950  -21.1910   21.4500 C.3    36  ARG36       0.1563
     37  C         -5.7850  -21.0910   20.5140 C.2    36  ARG36       0.2260
     38  O         -4.9720  -22.0180   20.4040 O.2    36  ARG36      -0.2867
     39  CB        -7.8170  -22.4540   21.1690 C.3    36  ARG36       0.0307
     40  CG        -9.1030  -22.5340   22.0070 C.3    36  ARG36       0.0489
     41  CD        -8.9240  -23.0730   23.4500 C.3    36  ARG36       0.2205
     42  NE        -7.5910  -22.8700   24.0450 N.pl3  36  ARG36      -0.0865
     43  CZ        -7.3430  -22.2050   25.1810 C.cat  36  ARG36       0.5346
     44  NH1       -8.3480  -21.6500   25.8660 N.pl3  36  ARG36       0.1354
     45  NH2       -6.0910  -22.1230   25.6510 N.pl3  36  ARG36       0.1354
     46  N         -2.2140  -19.6820   19.5000 N.3    38  SER38      -0.1217
     47  CA        -0.9720  -19.2060   20.1130 C.3    38  SER38       0.1889
     48  C         -0.0970  -18.5510   19.0520 C.2    38  SER38       0.2288
     49  O          0.1760  -19.1500   17.9980 O.2    38  SER38      -0.2866
     50  CB        -0.1670  -20.3520   20.7090 C.3    38  SER38       0.2089
     51  OG        -0.7550  -20.8320   21.8830 O.3    38  SER38      -0.2183
     52  N         -1.3690  -27.1360   13.4280 N.3    63  SER63      -0.1202
     53  CA        -2.7550  -27.2420   13.8080 C.3    63  SER63       0.2020
     54  C         -3.2480  -28.6520   13.5790 C.2    63  SER63       0.2618
     55  O         -2.6200  -29.4360   12.8470 O.2    63  SER63      -0.2717
     56  CB        -3.5910  -26.2520   12.9970 C.3    63  SER63       0.2103
     57  OG        -4.9460  -26.3140   13.3940 O.3    63  SER63      -0.2182
     58  N         -4.3820  -28.9540   14.2130 N.am   64  ILE64      -0.1979
     59  CA        -5.0090  -30.2610   14.1190 C.3    64  ILE64       0.1595
     60  C         -5.9540  -30.3990   12.9230 C.2    64  ILE64       0.2287
     61  O         -6.9370  -29.6620   12.7800 O.2    64  ILE64      -0.2864
     62  CB        -5.7440  -30.5910   15.4190 C.3    64  ILE64       0.0276
     63  CG1       -4.7370  -30.5990   16.5780 C.3    64  ILE64       0.0022
     64  CG2       -6.4020  -31.9420   15.3000 C.3    64  ILE64       0.0022
     65  CD1       -5.3270  -30.8730   17.9630 C.3    64  ILE64       0.0001
     66  N         -0.5230  -32.4080   22.2880 N.3   107  ILE107     -0.1245
     67  CA        -0.6810  -31.0640   22.8250 C.3   107  ILE107      0.1561
     68  C         -1.0550  -31.1190   24.3040 C.2   107  ILE107      0.2260
     69  O         -2.1180  -31.6160   24.6630 O.2   107  ILE107     -0.2867
     70  CB        -1.7730  -30.2990   22.0810 C.3   107  ILE107      0.0252
     71  CG1       -1.3660  -30.1220   20.6260 C.3   107  ILE107      0.0019
     72  CG2       -2.0230  -28.9550   22.7500 C.3   107  ILE107      0.0019
     73  CD1       -2.3820  -29.3490   19.8290 C.3   107  ILE107      0.0001
     74  N         -2.1220  -29.4360   27.8800 N.3   109  LYS109     -0.1245
     75  CA        -2.7620  -28.3020   28.5530 C.3   109  LYS109      0.1561
     76  C         -3.2900  -28.7150   29.9240 C.2   109  LYS109      0.2260
     77  O         -3.6770  -29.8640   30.1360 O.2   109  LYS109     -0.2867
     78  CB        -3.9160  -27.7550   27.7170 C.3   109  LYS109      0.0271
     79  CG        -3.4720  -27.1170   26.4280 C.3   109  LYS109      0.0035
     80  CD        -4.6170  -26.3920   25.7610 C.3   109  LYS109      0.0206
     81  CE        -4.1310  -25.5940   24.5600 C.3   109  LYS109      0.1093
     82  NZ        -5.2010  -24.6960   24.0430 N.3   109  LYS109     -0.1314
     83  N         -4.7660  -32.5760   25.1690 N.3   114  MET114     -0.1245
     84  CA        -6.0440  -32.2520   24.5330 C.3   114  MET114      0.1570
     85  C         -6.9560  -33.4640   24.5510 C.2   114  MET114      0.2261
     86  O         -8.1520  -33.3490   24.8280 O.2   114  MET114     -0.2867
     87  CB        -5.8350  -31.8520   23.0750 C.3   114  MET114      0.0387
     88  CG        -5.1200  -30.5390   22.8500 C.3   114  MET114      0.0595
     89  SD        -6.2420  -29.1260   22.7560 S.3   114  MET114     -0.1393
     90  CE        -6.7130  -28.9400   24.5680 C.3   114  MET114      0.0692
@<TRIPOS>BOND
     1    61    60    2
     2    55    54    2
     3    60    59    1
     4    56    57    1
     5    56    53    1
     6    19    20    1
     7    52    53    1
     8    54    53    1
     9    54    58   am
    10    26    27    1
    11    26    25    1
    12    24    25    1
    13    24    23    1
    14    59    58    1
    15    59    62    1
    16    11    10    2
    17    20    23    1
    18    20    21    1
    19    64    62    1
    20    22    21    2
    21     5     6    1
    22     5     2    1
    23    62    63    1
    24     6     7    1
    25    10     9    1
    26    21    28   am
    27     8     9    1
    28     8     3   am
    29     2     3    1
    30     2     1    1
    31    63    65    1
    32     9    12    1
    33    28    34    1
    34    28    29    1
    35     7     1    1
    36     3     4    2
    37    12    13    1
    38    34    33    1
    39    29    30    1
    40    29    32    1
    41    49    48    2
    42    30    31    2
    43    14    13   ar
    44    14    16   ar
    45    13    15   ar
    46    33    32    1
    47    48    47    1
    48    16    18   ar
    49    46    47    1
    50    15    17   ar
    51    73    71    1
    52    47    50    1
    53    38    37    2
    54    37    36    1
    55    71    70    1
    56    18    17   ar
    57    50    51    1
    58    39    36    1
    59    39    40    1
    60    35    36    1
    61    40    41    1
    62    70    72    1
    63    70    67    1
    64    66    67    1
    65    89    88    1
    66    89    90    1
    67    67    68    1
    68    88    87    1
    69    87    84    1
    70    41    42    1
    71    82    81    1
    72    42    43    2
    73    68    69    2
    74    84    85    1
    75    84    83    1
    76    85    86    2
    77    81    80    1
    78    43    45    1
    79    43    44    1
    80    80    79    1
    81    79    78    1
    82    78    75    1
    83    74    75    1
    84    75    76    1
    85    76    77    2
