@<TRIPOS>MOLECULE
tmp/3keuA03.pdb
 91 89 0 0 0
SMALL
GASTEIGER

@<TRIPOS>ATOM
      1  N         34.1340   -0.3070   47.3590 N.3   116  ASP116     -0.1225
      2  CA        33.5210   -1.6260   47.2670 C.3   116  ASP116      0.1805
      3  C         34.5570   -2.7220   47.4090 C.2   116  ASP116      0.2598
      4  O         35.7480   -2.4540   47.3810 O.2   116  ASP116     -0.2718
      5  CB        32.8500   -1.7770   45.9030 C.3   116  ASP116      0.1424
      6  CG        31.5570   -2.5560   45.9630 C.2   116  ASP116      0.3668
      7  OD1       31.4530   -3.5520   46.7240 O.co2 116  ASP116     -0.2456
      8  OD2       30.6410   -2.1610   45.2200 O.co2 116  ASP116     -0.2456
      9  N         34.0880   -3.9570   47.5400 N.am  117  LYS117     -0.1966
     10  CA        34.9750   -5.1140   47.6430 C.3   117  LYS117      0.1728
     11  C         34.9500   -5.7780   46.2830 C.2   117  LYS117      0.2616
     12  O         33.8900   -5.8970   45.6850 O.2   117  LYS117     -0.2715
     13  CB        34.4650   -6.1190   48.6700 C.3   117  LYS117      0.0311
     14  CG        34.5850   -5.7080   50.1120 C.3   117  LYS117      0.0038
     15  CD        33.9560   -6.7780   50.9920 C.3   117  LYS117      0.0206
     16  CE        33.9810   -6.4040   52.4660 C.3   117  LYS117      0.1093
     17  NZ        35.3520   -6.4140   53.0080 N.3   117  LYS117     -0.1314
     18  N         36.0980   -6.2240   45.7860 N.am  118  TRP118     -0.1974
     19  CA        36.0990   -6.8720   44.4870 C.3   118  TRP118      0.1640
     20  C         36.0650   -8.3920   44.5610 C.2   118  TRP118      0.2290
     21  O         34.9930   -8.9970   44.6550 O.2   118  TRP118     -0.2864
     22  CB        37.3010   -6.4310   43.6630 C.3   118  TRP118      0.0576
     23  CG        36.9070   -6.1600   42.2610 C.ar  118  TRP118      0.0006
     24  CD1       36.7540   -4.9340   41.6750 C.ar  118  TRP118      0.0946
     25  CD2       36.4970   -7.1280   41.2850 C.ar  118  TRP118      0.0152
     26  NE1       36.2720   -5.0780   40.3910 N.ar  118  TRP118     -0.2442
     27  CE2       36.1040   -6.4130   40.1260 C.ar  118  TRP118      0.0810
     28  CE3       36.4210   -8.5290   41.2770 C.ar  118  TRP118      0.0012
     29  CZ2       35.6400   -7.0520   38.9700 C.ar  118  TRP118      0.0191
     30  CZ3       35.9580   -9.1660   40.1260 C.ar  118  TRP118      0.0001
     31  CH2       35.5750   -8.4240   38.9880 C.ar  118  TRP118      0.0015
     32  N         24.5840   -5.1200   49.7340 N.3   185  SER185     -0.1202
     33  CA        25.3100   -6.2180   49.1350 C.3   185  SER185      0.2020
     34  C         26.4240   -6.6180   50.0830 C.2   185  SER185      0.2619
     35  O         26.9170   -5.7870   50.8490 O.2   185  SER185     -0.2717
     36  CB        25.8470   -5.8440   47.7480 C.3   185  SER185      0.2103
     37  OG        26.5630   -4.6360   47.7660 O.3   185  SER185     -0.2182
     38  N         26.7760   -7.9020   50.0480 N.am  186  SER186     -0.1937
     39  CA        27.8230   -8.4470   50.9010 C.3   186  SER186      0.2055
     40  C         28.3210   -9.8010   50.4110 C.2   186  SER186      0.2643
     41  O         27.7090  -10.4230   49.5510 O.2   186  SER186     -0.2714
     42  CB        27.3170   -8.5740   52.3400 C.3   186  SER186      0.2130
     43  OG        26.2500   -9.4870   52.4270 O.3   186  SER186     -0.2179
     44  N         29.4510  -10.2330   50.9580 N.am  187  ASP187     -0.1971
     45  CA        30.0660  -11.4980   50.6100 C.3   187  ASP187      0.1709
     46  C         29.5010  -12.6110   51.4720 C.2   187  ASP187      0.2293
     47  O         29.9570  -13.7460   51.3810 O.2   187  ASP187     -0.2864
     48  CB        31.5680  -11.4570   50.8690 C.3   187  ASP187      0.1436
     49  CG        32.2680  -10.3560   50.1180 C.2   187  ASP187      0.3671
     50  OD1       32.0210  -10.2050   48.9030 O.co2 187  ASP187     -0.2456
     51  OD2       33.0830   -9.6480   50.7430 O.co2 187  ASP187     -0.2456
     52  N         24.2110  -13.2490   46.6410 N.3   197  LEU197     -0.1245
     53  CA        24.7170  -12.1150   47.3990 C.3   197  LEU197      0.1561
     54  C         23.6520  -11.8460   48.4370 C.2   197  LEU197      0.2260
     55  O         22.4660  -12.0400   48.1750 O.2   197  LEU197     -0.2867
     56  CB        24.9630  -10.8970   46.5000 C.3   197  LEU197      0.0270
     57  CG        23.8600  -10.1140   45.8210 C.3   197  LEU197      0.0019
     58  CD1       23.2700   -9.0990   46.7720 C.3   197  LEU197      0.0001
     59  CD2       24.4740   -9.3930   44.6470 C.3   197  LEU197      0.0001
     60  N         23.0810  -14.0030   41.9090 N.3   218  LYS218     -0.1245
     61  CA        24.0200  -13.1800   41.1850 C.3   218  LYS218      0.1561
     62  C         23.9620  -13.3140   39.6700 C.2   218  LYS218      0.2260
     63  O         23.8890  -14.4240   39.1450 O.2   218  LYS218     -0.2867
     64  CB        25.4160  -13.5060   41.6590 C.3   218  LYS218      0.0271
     65  CG        25.6380  -13.0310   43.0420 C.3   218  LYS218      0.0035
     66  CD        27.0530  -12.5770   43.1850 C.3   218  LYS218      0.0206
     67  CE        27.9890  -13.7610   43.1850 C.3   218  LYS218      0.1093
     68  NZ        27.7050  -14.6580   44.3390 N.3   218  LYS218     -0.1314
     69  N         27.8690  -10.3490   35.6960 N.3   221  ALA221     -0.1231
     70  CA        28.3400   -9.0950   35.1190 C.3   221  ALA221      0.1694
     71  C         28.3340   -7.9640   36.1160 C.2   221  ALA221      0.2592
     72  O         27.6510   -8.0040   37.1400 O.2   221  ALA221     -0.2718
     73  CB        27.5060   -8.7030   33.9140 C.3   221  ALA221      0.0304
     74  N         29.1030   -6.9390   35.7910 N.am  222  VAL222     -0.1966
     75  CA        29.1920   -5.7710   36.6320 C.3   222  VAL222      0.1727
     76  C         28.2770   -4.6750   36.1140 C.2   222  VAL222      0.2616
     77  O         28.4130   -4.2370   34.9740 O.2   222  VAL222     -0.2715
     78  CB        30.6310   -5.2690   36.6810 C.3   222  VAL222      0.0290
     79  CG1       30.6970   -3.9050   37.3420 C.3   222  VAL222      0.0023
     80  CG2       31.4750   -6.2710   37.4530 C.3   222  VAL222      0.0023
     81  N         27.3420   -4.2430   36.9530 N.am  223  PHE223     -0.1974
     82  CA        26.4190   -3.1730   36.5890 C.3   223  PHE223      0.1639
     83  C         26.7910   -1.8660   37.2810 C.2   223  PHE223      0.2290
     84  O         27.4180   -1.8690   38.3390 O.2   223  PHE223     -0.2864
     85  CB        25.0050   -3.5530   36.9960 C.3   223  PHE223      0.0560
     86  CG        24.5070   -4.7780   36.3290 C.ar  223  PHE223     -0.0200
     87  CD1       24.1270   -4.7480   34.9940 C.ar  223  PHE223     -0.0042
     88  CD2       24.3960   -5.9680   37.0380 C.ar  223  PHE223     -0.0042
     89  CE1       23.6310   -5.9030   34.3710 C.ar  223  PHE223     -0.0003
     90  CE2       23.9050   -7.1110   36.4340 C.ar  223  PHE223     -0.0003
     91  CZ        23.5190   -7.0830   35.0910 C.ar  223  PHE223     -0.0000
@<TRIPOS>BOND
     1    73    70    1
     2    89    87   ar
     3    89    91   ar
     4    77    76    2
     5    87    86   ar
     6    91    90   ar
     7    70    69    1
     8    70    71    1
     9    74    71   am
    10    74    75    1
    11    76    75    1
    12    76    81   am
    13    71    72    2
    14    86    85    1
    15    86    88   ar
    16    90    88   ar
    17    82    81    1
    18    82    85    1
    19    82    83    1
    20    75    78    1
    21    78    79    1
    22    78    80    1
    23    83    84    2
    24    29    31   ar
    25    29    27   ar
    26    31    30   ar
    27    63    62    2
    28    62    61    1
    29    30    28   ar
    30    27    26   ar
    31    27    25   ar
    32    26    24   ar
    33    61    64    1
    34    61    60    1
    35    28    25   ar
    36    25    23   ar
    37    64    65    1
    38    24    23   ar
    39    23    22    1
    40    65    66    1
    41    66    67    1
    42    67    68    1
    43    22    19    1
    44    19    20    1
    45    19    18    1
    46    20    21    2
    47    59    57    1
    48     8     6   ar
    49    12    11    2
    50    18    11   am
    51    57    56    1
    52    57    58    1
    53     5     6    1
    54     5     2    1
    55     6     7   ar
    56    11    10    1
    57    56    53    1
    58    52    53    1
    59     2     1    1
    60     2     3    1
    61     4     3    2
    62    53    54    1
    63     3     9   am
    64     9    10    1
    65    10    13    1
    66    36    37    1
    67    36    33    1
    68    55    54    2
    69    13    14    1
    70    50    49   ar
    71    33    32    1
    72    33    34    1
    73    41    40    2
    74    38    34   am
    75    38    39    1
    76    34    35    2
    77    14    15    1
    78    49    51   ar
    79    49    48    1
    80    40    39    1
    81    40    44   am
    82    45    48    1
    83    45    44    1
    84    45    46    1
    85    39    42    1
    86    15    16    1
    87    47    46    2
    88    42    43    1
    89    16    17    1
