@<TRIPOS>MOLECULE
tmp/3kexA00.pdb
 162 153 0 0 0
SMALL
GASTEIGER

@<TRIPOS>ATOM
      1  N         26.3520    3.0220   -0.5850 N.3    18  LEU18      -0.1231
      2  CA        25.1600    3.1840   -1.4110 C.3    18  LEU18       0.1693
      3  C         24.7800    1.8980   -2.1330 C.2    18  LEU18       0.2593
      4  O         23.6020    1.5810   -2.2390 O.2    18  LEU18      -0.2718
      5  CB        25.3450    4.3120   -2.4200 C.3    18  LEU18       0.0284
      6  CG        25.5540    5.6990   -1.8220 C.3    18  LEU18       0.0019
      7  CD1       25.4020    6.7750   -2.8890 C.3    18  LEU18       0.0001
      8  CD2       24.5770    5.9210   -0.6820 C.3    18  LEU18       0.0001
      9  N         25.7750    1.1640   -2.6260 N.am   19  GLY19      -0.1942
     10  CA        25.5430   -0.1060   -3.2990 C.3    19  GLY19       0.2014
     11  C         26.7500   -0.5620   -4.1010 C.2    19  GLY19       0.2640
     12  O         27.6860    0.2070   -4.3230 O.2    19  GLY19      -0.2714
     13  N         26.7450   -1.8200   -4.5290 N.am   20  SER20      -0.1935
     14  CA        27.8200   -2.3250   -5.3730 C.3    20  SER20       0.2055
     15  C         27.3420   -2.3000   -6.8240 C.2    20  SER20       0.2644
     16  O         26.3870   -1.6000   -7.1400 O.2    20  SER20      -0.2714
     17  CB        28.2670   -3.7270   -4.9300 C.3    20  SER20       0.2130
     18  OG        27.6000   -4.7580   -5.6400 O.3    20  SER20      -0.2179
     19  N         27.9990   -3.0480   -7.7050 N.am   21  GLY21      -0.1939
     20  CA        27.6590   -3.0210   -9.1170 C.3    21  GLY21       0.2014
     21  C         28.4920   -4.0070   -9.9050 C.2    21  GLY21       0.2639
     22  O         29.0060   -4.9670   -9.3370 O.2    21  GLY21      -0.2714
     23  N         28.6290   -3.7780  -11.2090 N.am   22  VAL22      -0.1963
     24  CA        29.3640   -4.6990  -12.0700 C.3    22  VAL22       0.1727
     25  C         30.7670   -4.8950  -11.5280 C.2    22  VAL22       0.2616
     26  O         31.1830   -6.0110  -11.2120 O.2    22  VAL22      -0.2715
     27  CB        29.5060   -4.1550  -13.4890 C.3    22  VAL22       0.0290
     28  CG1       29.8130   -5.2900  -14.4430 C.3    22  VAL22       0.0023
     29  CG2       28.2520   -3.4100  -13.9020 C.3    22  VAL22       0.0023
     30  N         31.4920   -3.7890  -11.4250 N.am   23  PHE23      -0.1960
     31  CA        32.8500   -3.7990  -10.9110 C.3    23  PHE23       0.1771
     32  C         33.0890   -2.5560  -10.0750 C.2    23  PHE23       0.2620
     33  O         33.6160   -1.5640  -10.5730 O.2    23  PHE23      -0.2715
     34  CB        33.8550   -3.8510  -12.0650 C.3    23  PHE23       0.0574
     35  CG        33.3650   -3.1960  -13.3280 C.ar   23  PHE23      -0.0200
     36  CD1       32.7820   -1.9360  -13.2940 C.ar   23  PHE23      -0.0042
     37  CD2       33.4890   -3.8440  -14.5520 C.ar   23  PHE23      -0.0042
     38  CE1       32.3310   -1.3380  -14.4530 C.ar   23  PHE23      -0.0003
     39  CE2       33.0410   -3.2500  -15.7170 C.ar   23  PHE23      -0.0003
     40  CZ        32.4620   -1.9960  -15.6690 C.ar   23  PHE23      -0.0000
     41  N         32.6870   -2.6020   -8.8090 N.am   24  GLY24      -0.1954
     42  CA        32.8920   -1.4690   -7.9290 C.3    24  GLY24       0.1869
     43  C         31.7900   -1.2600   -6.9120 C.2    24  GLY24       0.2309
     44  O         30.6730   -1.7330   -7.0910 O.2    24  GLY24      -0.2863
     45  N         30.0080    1.8390   -4.5930 N.3    26  VAL26      -0.1245
     46  CA        29.8950    3.2730   -4.3310 C.3    26  VAL26       0.1561
     47  C         29.5290    3.5960   -2.8830 C.2    26  VAL26       0.2260
     48  O         28.6420    2.9730   -2.3050 O.2    26  VAL26      -0.2867
     49  CB        28.8920    3.9530   -5.2670 C.3    26  VAL26       0.0252
     50  CG1       28.7320    5.4100   -4.8810 C.3    26  VAL26       0.0019
     51  CG2       29.3500    3.8300   -6.7090 C.3    26  VAL26       0.0019
     52  N         30.9270   11.3480   -3.4770 N.3    43  CYS43      -0.1235
     53  CA        30.5940    9.9630   -3.7420 C.3    43  CYS43       0.1677
     54  C         31.8290    9.1830   -4.1650 C.2    43  CYS43       0.2270
     55  O         32.4020    9.4420   -5.2200 O.2    43  CYS43      -0.2867
     56  CB        29.5260    9.8810   -4.8240 C.3    43  CYS43       0.0956
     57  SG        28.3110    8.6230   -4.4900 S.3    43  CYS43      -0.0801
     58  N         33.6120    5.8090   -5.3320 N.3    45  LYS45      -0.1245
     59  CA        33.5140    4.4860   -5.9390 C.3    45  LYS45       0.1561
     60  C         34.8260    3.7140   -5.7350 C.2    45  LYS45       0.2260
     61  O         35.9210    4.2350   -5.9750 O.2    45  LYS45      -0.2867
     62  CB        33.1790    4.6220   -7.4320 C.3    45  LYS45       0.0271
     63  CG        33.2340    3.3280   -8.2450 C.3    45  LYS45       0.0035
     64  CD        32.0040    2.4590   -8.0130 C.3    45  LYS45       0.0206
     65  CE        31.6280    1.6480   -9.2500 C.3    45  LYS45       0.1093
     66  NZ        30.9420    2.4650  -10.2850 N.3    45  LYS45      -0.1314
     67  N         28.6020   13.3420  -15.0480 N.3    75  VAL75      -0.1245
     68  CA        29.0180   13.4260  -13.6630 C.3    75  VAL75       0.1561
     69  C         30.5340   13.4990  -13.6790 C.2    75  VAL75       0.2260
     70  O         31.2170   12.4750  -13.7250 O.2    75  VAL75      -0.2867
     71  CB        28.5540   12.2120  -12.8480 C.3    75  VAL75       0.0252
     72  CG1       28.8370   12.4310  -11.3680 C.3    75  VAL75       0.0019
     73  CG2       27.0740   11.9550  -13.0860 C.3    75  VAL75       0.0019
     74  N         33.4580   11.5820   -7.0100 N.3    90  THR90      -0.1203
     75  CA        32.5880   12.4780   -7.7590 C.3    90  THR90       0.1994
     76  C         31.6120   13.1680   -6.8230 C.2    90  THR90       0.2618
     77  O         31.5320   12.8360   -5.6390 O.2    90  THR90      -0.2717
     78  CB        31.7830   11.7180   -8.8250 C.3    90  THR90       0.1784
     79  OG1       31.0630   10.6450   -8.2050 O.3    90  THR90      -0.2211
     80  CG2       32.7130   11.1550   -9.8990 C.3    90  THR90       0.0376
     81  N         30.8720   14.1330   -7.3600 N.am   91  GLN91      -0.1965
     82  CA        29.8420   14.8170   -6.5900 C.3    91  GLN91       0.1733
     83  C         28.7770   13.8230   -6.1750 C.2    91  GLN91       0.2616
     84  O         28.5610   12.8150   -6.8510 O.2    91  GLN91      -0.2715
     85  CB        29.2140   15.9550   -7.4010 C.3    91  GLN91       0.0408
     86  CG        30.0090   17.2540   -7.3770 C.3    91  GLN91       0.0908
     87  CD        29.5490   18.2530   -8.4270 C.2    91  GLN91       0.2608
     88  OE1       28.6940   17.9500   -9.2600 O.2    91  GLN91      -0.2717
     89  NE2       30.1210   19.4530   -8.3940 N.am   91  GLN91      -0.0878
     90  N         28.1170   14.1070   -5.0570 N.am   92  TYR92      -0.1960
     91  CA        27.0140   13.2750   -4.5800 C.3    92  TYR92       0.1771
     92  C         25.6530   13.8040   -5.0470 C.2    92  TYR92       0.2619
     93  O         25.3010   14.9590   -4.8070 O.2    92  TYR92      -0.2715
     94  CB        27.0470   13.1630   -3.0530 C.3    92  TYR92       0.0574
     95  CG        25.8590   12.4340   -2.4740 C.ar   92  TYR92      -0.0198
     96  CD1       25.6350   11.0940   -2.7690 C.ar   92  TYR92      -0.0009
     97  CD2       24.9640   13.0800   -1.6330 C.ar   92  TYR92      -0.0009
     98  CE1       24.5530   10.4190   -2.2490 C.ar   92  TYR92       0.0417
     99  CE2       23.8750   12.4110   -1.1050 C.ar   92  TYR92       0.0417
    100  CZ        23.6750   11.0810   -1.4170 C.ar   92  TYR92       0.1957
    101  OH        22.5930   10.4080   -0.8930 O.3    92  TYR92      -0.2866
    102  N         24.8940   12.9420   -5.7140 N.am   93  LEU93      -0.1977
    103  CA        23.5950   13.3140   -6.2460 C.3    93  LEU93       0.1596
    104  C         22.4840   12.5470   -5.5380 C.2    93  LEU93       0.2287
    105  O         22.1900   11.4040   -5.8900 O.2    93  LEU93      -0.2864
    106  CB        23.5570   13.0630   -7.7490 C.3    93  LEU93       0.0297
    107  CG        24.7680   13.6110   -8.5120 C.3    93  LEU93       0.0022
    108  CD1       24.5740   13.5030  -10.0250 C.3    93  LEU93       0.0001
    109  CD2       25.0520   15.0490   -8.1150 C.3    93  LEU93       0.0001
    110  N         19.4530   10.1810   -6.7900 N.3    96  GLY96      -0.1210
    111  CA        19.6050    8.8210   -7.2630 C.3    96  GLY96       0.1956
    112  C         19.6180    8.7090   -8.7750 C.2    96  GLY96       0.2612
    113  O         19.6480    9.7130   -9.4930 O.2    96  GLY96      -0.2717
    114  N         19.5970    7.4750   -9.2650 N.am   97  SER97      -0.1952
    115  CA        19.6300    7.2390  -10.7010 C.3    97  SER97       0.1924
    116  C         18.3460    7.7240  -11.3670 C.2    97  SER97       0.2314
    117  O         17.3430    7.9840  -10.7020 O.2    97  SER97      -0.2863
    118  CB        19.8540    5.7580  -11.0050 C.3    97  SER97       0.2116
    119  OG        18.6270    5.0650  -11.0990 O.3    97  SER97      -0.2180
    120  N         29.3420    1.0650  -20.4100 N.3   137  ASN137     -0.1240
    121  CA        28.2750    0.7430  -19.4680 C.3   137  ASN137      0.1653
    122  C         27.2450    1.8590  -19.3410 C.2   137  ASN137      0.2266
    123  O         26.9270    2.3150  -18.2420 O.2   137  ASN137     -0.2867
    124  CB        28.8330    0.3780  -18.0930 C.3   137  ASN137      0.1155
    125  CG        27.8190   -0.3530  -17.2320 C.2   137  ASN137      0.2627
    126  OD1       26.9330   -1.0380  -17.7400 O.2   137  ASN137     -0.2716
    127  ND2       27.9460   -0.2110  -15.9230 N.am  137  ASN137     -0.0877
    128  N         20.3070    3.0350  -15.1020 N.3   141  ARG141     -0.1231
    129  CA        20.8920    2.9400  -13.7690 C.3   141  ARG141      0.1694
    130  C         22.1330    3.8200  -13.7340 C.2   141  ARG141      0.2592
    131  O         22.5300    4.3200  -12.6810 O.2   141  ARG141     -0.2718
    132  CB        21.2710    1.4950  -13.4410 C.3   141  ARG141      0.0321
    133  CG        22.4440    0.9710  -14.2580 C.3   141  ARG141      0.0489
    134  CD        22.6230   -0.5270  -14.0980 C.3   141  ARG141      0.2205
    135  NE        23.6370   -1.0510  -15.0120 N.pl3 141  ARG141     -0.0865
    136  CZ        23.3810   -1.5290  -16.2270 C.cat 141  ARG141      0.5346
    137  NH1       22.1400   -1.5610  -16.6790 N.pl3 141  ARG141      0.1354
    138  NH2       24.3640   -1.9830  -16.9930 N.pl3 141  ARG141      0.1354
    139  N         22.7390    4.0070  -14.9030 N.am  142  ASN142     -0.1974
    140  CA        23.9540    4.7990  -15.0250 C.3   142  ASN142      0.1688
    141  C         23.7050    6.2120  -15.5410 C.2   142  ASN142      0.2292
    142  O         24.5690    6.8020  -16.1750 O.2   142  ASN142     -0.2864
    143  CB        24.9850    4.0810  -15.9020 C.3   142  ASN142      0.1181
    144  CG        25.8220    3.0830  -15.1180 C.2   142  ASN142      0.2629
    145  OD1       26.1440    3.3110  -13.9580 O.2   142  ASN142     -0.2716
    146  ND2       26.1800    1.9740  -15.7520 N.am  142  ASN142     -0.0877
    147  N         22.2490    9.8870  -13.7970 N.3   144  LEU144     -0.1245
    148  CA        21.9000   10.4650  -12.5010 C.3   144  LEU144      0.1561
    149  C         21.2530   11.8330  -12.6460 C.2   144  LEU144      0.2260
    150  O         21.5630   12.5780  -13.5720 O.2   144  LEU144     -0.2867
    151  CB        23.1340   10.5640  -11.6020 C.3   144  LEU144      0.0270
    152  CG        23.9230    9.2660  -11.4050 C.3   144  LEU144      0.0019
    153  CD1       25.3140    9.5490  -10.8400 C.3   144  LEU144      0.0001
    154  CD2       23.1750    8.2840  -10.5160 C.3   144  LEU144      0.0001
    155  N         29.4870    6.9060  -14.6000 N.3   155  ASP155     -0.1239
    156  CA        30.1180    5.5850  -14.6490 C.3   155  ASP155      0.1674
    157  C         30.7510    5.2300  -15.9890 C.2   155  ASP155      0.2266
    158  O         30.6620    4.0840  -16.4310 O.2   155  ASP155     -0.2867
    159  CB        29.1140    4.4930  -14.2670 C.3   155  ASP155      0.1410
    160  CG        29.3130    3.9850  -12.8520 C.2   155  ASP155      0.3668
    161  OD1       29.4670    4.8170  -11.9350 O.co2 155  ASP155     -0.2456
    162  OD2       29.3230    2.7490  -12.6590 O.co2 155  ASP155     -0.2456
@<TRIPOS>BOND
     1   120   121    1
     2   121   122    1
     3   121   124    1
     4   122   123    2
     5   124   125    1
     6   126   125    2
     7   125   127   am
     8   138   136    1
     9   137   136    1
    10   158   157    2
    11   136   135    2
    12   142   141    2
    13   157   156    1
    14   143   144    1
    15   143   140    1
    16   146   144   am
    17    39    40   ar
    18    39    37   ar
    19    40    38   ar
    20   141   140    1
    21   144   145    2
    22   128   129    1
    23    67    68    1
    24   140   139    1
    25   135   134    1
    26   139   130   am
    27   156   155    1
    28   156   159    1
    29    37    35   ar
    30    38    36   ar
    31    28    27    1
    32   159   160    1
    33   133   134    1
    34   133   132    1
    35    29    27    1
    36   147   148    1
    37   129   130    1
    38   129   132    1
    39   130   131    2
    40    70    69    2
    41    69    68    1
    42    68    71    1
    43   150   149    2
    44    27    24    1
    45    35    36   ar
    46    35    34    1
    47    73    71    1
    48   160   162   ar
    49   160   161   ar
    50    71    72    1
    51   149   148    1
    52   148   151    1
    53    24    25    1
    54    24    23    1
    55    34    31    1
    56   151   152    1
    57    25    30   am
    58    25    26    2
    59    30    31    1
    60   152   153    1
    61   152   154    1
    62   116   117    2
    63   116   115    1
    64    23    21   am
    65   119   118    1
    66   118   115    1
    67    31    32    1
    68   115   114    1
    69    33    32    2
    70    66    65    1
    71    32    41   am
    72   108   107    1
    73    21    22    2
    74    21    20    1
    75    80    78    1
    76   113   112    2
    77   114   112   am
    78    88    87    2
    79    65    64    1
    80    20    19    1
    81    78    79    1
    82    78    75    1
    83    41    42    1
    84   112   111    1
    85   107   109    1
    86   107   106    1
    87    87    89   am
    88    87    86    1
    89    63    64    1
    90    63    62    1
    91    42    43    1
    92    75    74    1
    93    75    76    1
    94   106   103    1
    95    19    15   am
    96    62    59    1
    97    85    86    1
    98    85    82    1
    99    81    76   am
   100    81    82    1
   101   111   110    1
   102    16    15    2
   103    44    43    2
   104    84    83    2
   105    15    14    1
   106    76    77    2
   107    51    49    1
   108    82    83    1
   109   103   102    1
   110   103   104    1
   111    83    90   am
   112    61    60    2
   113    59    60    1
   114    59    58    1
   115   105   104    2
   116   102    92   am
   117    18    17    1
   118    14    17    1
   119    14    13    1
   120    49    50    1
   121    49    46    1
   122    55    54    2
   123    90    91    1
   124    92    93    2
   125    92    91    1
   126    56    57    1
   127    56    53    1
   128    45    46    1
   129    91    94    1
   130    13    11   am
   131    46    47    1
   132    12    11    2
   133    54    53    1
   134    11    10    1
   135    53    52    1
   136    10     9    1
   137    94    95    1
   138     7     6    1
   139    47    48    2
   140    96    95   ar
   141    96    98   ar
   142     9     3   am
   143    95    97   ar
   144     5     6    1
   145     5     2    1
   146    98   100   ar
   147     4     3    2
   148     3     2    1
   149     6     8    1
   150    97    99   ar
   151   100    99   ar
   152   100   101    1
   153     2     1    1
