@<TRIPOS>MOLECULE
tmp/3kf3B00.pdb
 124 121 0 0 0
SMALL
GASTEIGER

@<TRIPOS>ATOM
      1  N         17.4230   30.5460   37.2200 N.3    23  ASN23      -0.1225
      2  CA        17.9380   29.3780   36.4840 C.3    23  ASN23       0.1785
      3  C         19.3180   28.9150   36.9960 C.2    23  ASN23       0.2597
      4  O         19.4410   28.6450   38.1940 O.2    23  ASN23      -0.2718
      5  CB        17.7870   29.4780   34.9330 C.3    23  ASN23       0.1169
      6  CG        18.4590   30.7160   34.3180 C.2    23  ASN23       0.2627
      7  OD1       18.0160   31.8460   34.5140 O.2    23  ASN23      -0.2716
      8  ND2       19.5060   30.4900   33.5310 N.am   23  ASN23      -0.0877
      9  N         20.3400   28.8430   36.1380 N.am   24  ASP24      -0.1974
     10  CA        21.6220   28.1930   36.4960 C.3    24  ASP24       0.1709
     11  C         22.2230   28.6180   37.8450 C.2    24  ASP24       0.2293
     12  O         22.3180   29.8150   38.1300 O.2    24  ASP24      -0.2864
     13  CB        22.7190   28.4200   35.4390 C.3    24  ASP24       0.1436
     14  CG        22.2380   28.2790   34.0070 C.2    24  ASP24       0.3671
     15  OD1       21.0780   27.9100   33.7480 O.co2  24  ASP24      -0.2456
     16  OD2       23.0640   28.5570   33.1210 O.co2  24  ASP24      -0.2456
     17  N         21.5970   32.6110   38.3560 N.3    42  GLN42      -0.1245
     18  CA        20.9710   33.4150   37.3240 C.3    42  GLN42       0.1566
     19  C         19.6210   33.8920   37.8370 C.2    42  GLN42       0.2260
     20  O         18.7590   33.0850   38.2040 O.2    42  GLN42      -0.2867
     21  CB        20.8250   32.5990   36.0450 C.3    42  GLN42       0.0367
     22  CG        22.1580   32.2040   35.4350 C.3    42  GLN42       0.0905
     23  CD        22.9070   33.3940   34.8600 C.2    42  GLN42       0.2608
     24  OE1       23.7800   33.9750   35.5160 O.2    42  GLN42      -0.2717
     25  NE2       22.5600   33.7710   33.6380 N.am   42  GLN42      -0.0878
     26  N         12.5660   34.2370   32.5270 N.3    50  TRP50      -0.1241
     27  CA        13.8650   34.7610   32.1280 C.3    50  TRP50       0.1605
     28  C         13.7020   36.1420   31.5010 C.2    50  TRP50       0.2264
     29  O         12.7510   36.3870   30.7590 O.2    50  TRP50      -0.2867
     30  CB        14.5330   33.8090   31.1390 C.3    50  TRP50       0.0550
     31  CG        15.9910   34.0510   30.9770 C.ar   50  TRP50       0.0003
     32  CD1       17.0030   33.4700   31.6860 C.ar   50  TRP50       0.0946
     33  CD2       16.6110   34.9400   30.0450 C.ar   50  TRP50       0.0152
     34  NE1       18.2200   33.9430   31.2520 N.ar   50  TRP50      -0.2442
     35  CE2       18.0080   34.8430   30.2400 C.ar   50  TRP50       0.0810
     36  CE3       16.1220   35.8070   29.0570 C.ar   50  TRP50       0.0012
     37  CZ2       18.9220   35.5840   29.4880 C.ar   50  TRP50       0.0191
     38  CZ3       17.0330   36.5500   28.3100 C.ar   50  TRP50       0.0001
     39  CH2       18.4190   36.4280   28.5320 C.ar   50  TRP50       0.0015
     40  N         19.8140   40.8790   33.7210 N.3    54  LEU54      -0.1245
     41  CA        19.9480   39.5880   34.4240 C.3    54  LEU54       0.1561
     42  C         21.0880   39.6710   35.4170 C.2    54  LEU54       0.2260
     43  O         22.1550   40.1950   35.0920 O.2    54  LEU54      -0.2867
     44  CB        20.1500   38.4450   33.4260 C.3    54  LEU54       0.0270
     45  CG        20.1530   37.0150   33.9560 C.3    54  LEU54       0.0019
     46  CD1       18.7810   36.6050   34.4630 C.3    54  LEU54       0.0001
     47  CD2       20.6240   36.0620   32.8700 C.3    54  LEU54       0.0001
     48  N         25.6570   36.5700   32.8640 N.3    84  PHE84      -0.1227
     49  CA        25.3600   35.1690   32.5870 C.3    84  PHE84       0.1736
     50  C         26.1600   34.2510   33.5050 C.2    84  PHE84       0.2596
     51  O         26.8180   34.7260   34.4310 O.2    84  PHE84      -0.2718
     52  CB        25.5950   34.8610   31.0990 C.3    84  PHE84       0.0547
     53  CG        24.4250   35.2180   30.2080 C.ar   84  PHE84      -0.0202
     54  CD1       23.5060   36.1920   30.5850 C.ar   84  PHE84      -0.0042
     55  CD2       24.2590   34.5910   28.9740 C.ar   84  PHE84      -0.0042
     56  CE1       22.4270   36.5190   29.7690 C.ar   84  PHE84      -0.0003
     57  CE2       23.1860   34.9150   28.1430 C.ar   84  PHE84      -0.0003
     58  CZ        22.2690   35.8760   28.5380 C.ar   84  PHE84      -0.0000
     59  N         26.0960   32.9440   33.2580 N.am   85  SER85      -0.1952
     60  CA        26.5980   31.9590   34.2140 C.3    85  SER85       0.1924
     61  C         28.1050   32.0090   34.4160 C.2    85  SER85       0.2314
     62  O         28.8380   32.5740   33.6060 O.2    85  SER85      -0.2863
     63  CB        26.1430   30.5470   33.8320 C.3    85  SER85       0.2116
     64  OG        24.7540   30.4200   34.0730 O.3    85  SER85      -0.2180
     65  N         30.1770   31.0490   26.3680 N.3   152  ARG152     -0.1231
     66  CA        29.6660   31.2860   27.7220 C.3   152  ARG152      0.1694
     67  C         29.8940   30.1670   28.7340 C.2   152  ARG152      0.2592
     68  O         30.2110   29.0270   28.3660 O.2   152  ARG152     -0.2718
     69  CB        28.1670   31.6220   27.6660 C.3   152  ARG152      0.0321
     70  CG        27.3000   30.4920   27.1160 C.3   152  ARG152      0.0489
     71  CD        25.8440   30.8890   27.0750 C.3   152  ARG152      0.2205
     72  NE        25.0430   29.8910   26.3730 N.pl3 152  ARG152     -0.0865
     73  CZ        24.8590   29.8530   25.0560 C.cat 152  ARG152      0.5346
     74  NH1       25.4200   30.7630   24.2600 N.pl3 152  ARG152      0.1354
     75  NH2       24.1070   28.8960   24.5330 N.pl3 152  ARG152      0.1354
     76  N         29.7130   30.5230   30.0090 N.am  153  ASP153     -0.1974
     77  CA        29.6630   29.5920   31.1560 C.3   153  ASP153      0.1709
     78  C         31.0490   29.0920   31.6150 C.2   153  ASP153      0.2293
     79  O         31.3440   27.8980   31.5530 O.2   153  ASP153     -0.2864
     80  CB        28.6990   28.4120   30.8950 C.3   153  ASP153      0.1436
     81  CG        27.3470   28.8440   30.3130 C.2   153  ASP153      0.3671
     82  OD1       26.9460   30.0180   30.4530 O.co2 153  ASP153     -0.2456
     83  OD2       26.6690   27.9790   29.7060 O.co2 153  ASP153     -0.2456
     84  N         26.5640   23.8450   26.8460 N.3   204  GLU204     -0.1231
     85  CA        26.4800   24.8590   27.9090 C.3   204  GLU204      0.1699
     86  C         27.1450   24.3790   29.2120 C.2   204  GLU204      0.2592
     87  O         27.5340   23.2140   29.3220 O.2   204  GLU204     -0.2718
     88  CB        25.0210   25.2780   28.1440 C.3   204  GLU204      0.0402
     89  CG        24.4550   26.1390   27.0140 C.3   204  GLU204      0.1161
     90  CD        23.0220   26.5610   27.2200 C.2   204  GLU204      0.3649
     91  OE1       22.5840   27.4820   26.4980 O.co2 204  GLU204     -0.2457
     92  OE2       22.3280   25.9800   28.0860 O.co2 204  GLU204     -0.2457
     93  N         27.3010   25.2910   30.1730 N.am  205  CYS205     -0.1970
     94  CA        27.8700   24.9960   31.5070 C.3   205  CYS205      0.1712
     95  C         28.8050   23.7840   31.6220 C.2   205  CYS205      0.2296
     96  O         28.4480   22.7770   32.2360 O.2   205  CYS205     -0.2864
     97  CB        26.7500   24.8870   32.5450 C.3   205  CYS205      0.0983
     98  SG        25.6240   26.2790   32.5160 S.3   205  CYS205     -0.0798
     99  N         19.5870   20.3410   35.4780 N.3   267  TYR267     -0.1241
    100  CA        20.3390   21.0520   34.4520 C.3   267  TYR267      0.1605
    101  C         21.3030   22.1020   34.9920 C.2   267  TYR267      0.2264
    102  O         21.0530   22.6990   36.0390 O.2   267  TYR267     -0.2867
    103  CB        19.3690   21.7330   33.4850 C.3   267  TYR267      0.0534
    104  CG        20.0540   22.2360   32.2390 C.ar  267  TYR267     -0.0201
    105  CD1       20.6820   21.3450   31.3800 C.ar  267  TYR267     -0.0009
    106  CD2       20.0900   23.5980   31.9250 C.ar  267  TYR267     -0.0009
    107  CE1       21.3150   21.7770   30.2340 C.ar  267  TYR267      0.0417
    108  CE2       20.7360   24.0510   30.7630 C.ar  267  TYR267      0.0417
    109  CZ        21.3440   23.1210   29.9280 C.ar  267  TYR267      0.1957
    110  OH        21.9900   23.5020   28.7740 O.3   267  TYR267     -0.2866
    111  N         14.2540   23.5430   30.5060 N.3   288  TRP288     -0.1241
    112  CA        13.9390   24.7200   29.6860 C.3   288  TRP288      0.1605
    113  C         12.6430   24.6360   28.8640 C.2   288  TRP288      0.2264
    114  O         12.0910   25.6700   28.4870 O.2   288  TRP288     -0.2867
    115  CB        15.1060   25.0840   28.7740 C.3   288  TRP288      0.0550
    116  CG        16.1260   25.9780   29.4080 C.ar  288  TRP288      0.0003
    117  CD1       17.4400   25.6850   29.6370 C.ar  288  TRP288      0.0946
    118  CD2       15.9260   27.3210   29.8720 C.ar  288  TRP288      0.0152
    119  NE1       18.0720   26.7650   30.2210 N.ar  288  TRP288     -0.2442
    120  CE2       17.1640   27.7760   30.3810 C.ar  288  TRP288      0.0810
    121  CE3       14.8140   28.1820   29.9230 C.ar  288  TRP288      0.0012
    122  CZ2       17.3280   29.0560   30.9280 C.ar  288  TRP288      0.0191
    123  CZ3       14.9800   29.4580   30.4630 C.ar  288  TRP288      0.0001
    124  CH2       16.2270   29.8780   30.9610 C.ar  288  TRP288      0.0015
@<TRIPOS>BOND
     1    74    73    1
     2    75    73    1
     3    73    72    2
     4    65    66    1
     5    72    71    1
     6    91    90   ar
     7    84    85    1
     8    89    90    1
     9    89    88    1
    10    71    70    1
    11    70    69    1
    12    90    92   ar
    13    69    66    1
    14    66    67    1
    15    85    88    1
    16    85    86    1
    17    57    58   ar
    18    57    55   ar
    19    38    39   ar
    20    38    36   ar
    21    68    67    2
    22   114   113    2
    23    39    37   ar
    24    58    56   ar
    25    67    76   am
    26   110   109    1
    27   115   116    1
    28   115   112    1
    29   113   112    1
    30    55    53   ar
    31    36    33   ar
    32    86    87    2
    33    86    93   am
    34   116   117   ar
    35   116   118   ar
    36    37    35   ar
    37   117   119   ar
    38   112   111    1
    39    83    81   ar
    40    56    54   ar
    41   118   121   ar
    42   118   120   ar
    43   121   123   ar
    44   109   107   ar
    45   109   108   ar
    46    76    77    1
    47    33    35   ar
    48    33    31   ar
    49    93    94    1
    50    53    54   ar
    51    53    52    1
    52   119   120   ar
    53   107   105   ar
    54    35    34   ar
    55    81    82   ar
    56    81    80    1
    57   120   122   ar
    58   123   124   ar
    59    29    28    2
    60   108   106   ar
    61    80    77    1
    62   122   124   ar
    63    31    30    1
    64    31    32   ar
    65    52    49    1
    66    30    27    1
    67    77    78    1
    68    34    32   ar
    69   105   104   ar
    70    28    27    1
    71    94    95    1
    72    94    97    1
    73    79    78    2
    74    95    96    2
    75   106   104   ar
    76    27    26    1
    77   104   103    1
    78    98    97    1
    79    49    48    1
    80    49    50    1
    81    47    45    1
    82    16    14   ar
    83    59    50   am
    84    59    60    1
    85    44    45    1
    86    44    41    1
    87   103   100    1
    88    50    51    2
    89     8     6   am
    90    62    61    2
    91    25    23   am
    92    40    41    1
    93    15    14   ar
    94    63    64    1
    95    63    60    1
    96    45    46    1
    97    14    13    1
    98    60    61    1
    99     6     7    2
   100     6     5    1
   101    41    42    1
   102   100   101    1
   103   100    99    1
   104    23    22    1
   105    23    24    2
   106     5     2    1
   107   101   102    2
   108    43    42    2
   109    22    21    1
   110    13    10    1
   111    21    18    1
   112     9    10    1
   113     9     3   am
   114     2     3    1
   115     2     1    1
   116    10    11    1
   117     3     4    2
   118    18    19    1
   119    18    17    1
   120    19    20    2
   121    11    12    2
