@<TRIPOS>MOLECULE
tmp/3kf4B00.pdb
 183 176 0 0 0
SMALL
GASTEIGER

@<TRIPOS>ATOM
      1  N         74.9360   -9.5550  -26.9960 N.3    20  LEU20      -0.1231
      2  CA        74.0230   -8.5540  -27.5260 C.3    20  LEU20       0.1693
      3  C         74.6290   -7.1630  -27.6750 C.2    20  LEU20       0.2592
      4  O         75.4150   -6.7200  -26.8430 O.2    20  LEU20      -0.2718
      5  CB        72.7750   -8.4910  -26.6520 C.3    20  LEU20       0.0284
      6  CG        71.9430   -9.7650  -26.8410 C.3    20  LEU20       0.0019
      7  CD1       70.6530   -9.7010  -26.0280 C.3    20  LEU20       0.0001
      8  CD2       71.6440   -9.9370  -28.3320 C.3    20  LEU20       0.0001
      9  N         74.2670   -6.4720  -28.7520 N.am   21  GLY21      -0.1957
     10  CA        74.6060   -5.0610  -28.8630 C.3    21  GLY21       0.1869
     11  C         76.0950   -4.7630  -28.9350 C.2    21  GLY21       0.2309
     12  O         76.5650   -3.7320  -28.4320 O.2    21  GLY21      -0.2863
     13  N         77.8010   -3.5840  -25.7210 N.3    24  GLN24      -0.1231
     14  CA        77.3670   -2.3990  -24.9950 C.3    24  GLN24       0.1698
     15  C         76.6120   -2.7900  -23.7400 C.2    24  GLN24       0.2592
     16  O         76.5310   -2.0060  -22.8070 O.2    24  GLN24      -0.2718
     17  CB        76.4600   -1.5130  -25.8600 C.3    24  GLN24       0.0381
     18  CG        75.0320   -2.0300  -25.9560 C.3    24  GLN24       0.0905
     19  CD        74.1710   -1.2080  -26.8980 C.2    24  GLN24       0.2608
     20  OE1       73.2840   -0.4690  -26.4640 O.2    24  GLN24      -0.2717
     21  NE2       74.4290   -1.3380  -28.1990 N.am   24  GLN24      -0.0878
     22  N         76.0510   -3.9940  -23.7060 N.am   25  TYR25      -0.1976
     23  CA        75.2330   -4.3610  -22.5530 C.3    25  TYR25       0.1639
     24  C         75.9960   -5.1960  -21.5390 C.2    25  TYR25       0.2290
     25  O         75.4070   -5.7360  -20.6040 O.2    25  TYR25      -0.2864
     26  CB        73.9870   -5.1160  -23.0060 C.3    25  TYR25       0.0560
     27  CG        73.0830   -4.3000  -23.8980 C.ar   25  TYR25      -0.0198
     28  CD1       73.0590   -4.5130  -25.2740 C.ar   25  TYR25      -0.0009
     29  CD2       72.2300   -3.3320  -23.3640 C.ar   25  TYR25      -0.0009
     30  CE1       72.2120   -3.7940  -26.0910 C.ar   25  TYR25       0.0417
     31  CE2       71.3770   -2.6070  -24.1740 C.ar   25  TYR25       0.0417
     32  CZ        71.3680   -2.8440  -25.5380 C.ar   25  TYR25       0.1957
     33  OH        70.4870   -2.1680  -26.3510 O.3    25  TYR25      -0.2866
     34  N         75.6950   -9.7610  -21.6290 N.3    28  VAL28      -0.1245
     35  CA        74.3540  -10.2360  -21.9490 C.3    28  VAL28       0.1561
     36  C         74.3900  -10.8350  -23.3440 C.2    28  VAL28       0.2260
     37  O         74.9630  -10.2520  -24.2520 O.2    28  VAL28      -0.2867
     38  CB        73.3240   -9.0940  -21.9250 C.3    28  VAL28       0.0252
     39  CG1       71.9320   -9.6610  -22.1690 C.3    28  VAL28       0.0019
     40  CG2       73.3910   -8.3570  -20.5800 C.3    28  VAL28       0.0019
     41  N         67.1120  -13.6230  -23.3440 N.3    41  ALA41      -0.1231
     42  CA        68.3550  -12.9140  -23.1060 C.3    41  ALA41       0.1694
     43  C         68.9850  -13.5290  -21.8870 C.2    41  ALA41       0.2592
     44  O         68.2790  -13.9910  -20.9910 O.2    41  ALA41      -0.2718
     45  CB        68.0950  -11.4430  -22.8690 C.3    41  ALA41       0.0304
     46  N         70.3130  -13.5260  -21.8440 N.am   42  VAL42      -0.1966
     47  CA        71.0240  -14.1940  -20.7520 C.3    42  VAL42       0.1727
     48  C         72.1790  -13.3490  -20.2750 C.2    42  VAL42       0.2616
     49  O         73.0800  -13.0600  -21.0420 O.2    42  VAL42      -0.2715
     50  CB        71.6040  -15.5570  -21.1990 C.3    42  VAL42       0.0290
     51  CG1       72.2250  -16.2660  -20.0170 C.3    42  VAL42       0.0023
     52  CG2       70.5210  -16.4060  -21.8220 C.3    42  VAL42       0.0023
     53  N         72.1490  -12.9460  -19.0080 N.am   43  LYS43      -0.1977
     54  CA        73.2840  -12.2360  -18.4330 C.3    43  LYS43       0.1596
     55  C         74.1840  -13.2200  -17.6590 C.2    43  LYS43       0.2287
     56  O         73.6890  -14.0740  -16.9360 O.2    43  LYS43      -0.2864
     57  CB        72.7790  -11.1300  -17.5080 C.3    43  LYS43       0.0298
     58  CG        73.8640  -10.2450  -16.9720 C.3    43  LYS43       0.0038
     59  CD        73.3230   -9.2620  -15.9290 C.3    43  LYS43       0.0206
     60  CE        72.5310   -8.1130  -16.5590 C.3    43  LYS43       0.1093
     61  NZ        72.3430   -6.9690  -15.5970 N.3    43  LYS43      -0.1314
     62  N         70.6830   -8.7610   -7.9480 N.3    55  GLU55      -0.1245
     63  CA        69.7500   -8.4450   -9.0260 C.3    55  GLU55       0.1567
     64  C         68.7890   -9.6000   -9.2370 C.2    55  GLU55       0.2260
     65  O         67.5850   -9.3900   -9.2920 O.2    55  GLU55      -0.2867
     66  CB        70.4570   -8.1170  -10.3580 C.3    55  GLU55       0.0388
     67  CG        69.4280   -7.7080  -11.4390 C.3    55  GLU55       0.1160
     68  CD        70.0350   -7.0630  -12.6880 C.2    55  GLU55       0.3649
     69  OE1       71.2300   -7.3090  -12.9730 O.co2  55  GLU55      -0.2457
     70  OE2       69.2940   -6.3130  -13.3890 O.co2  55  GLU55      -0.2457
     71  N         64.5950   -9.6460   -8.9690 N.3    59  MET59      -0.1245
     72  CA        63.7770  -10.0070  -10.1180 C.3    59  MET59       0.1570
     73  C         62.8610  -11.2020   -9.8150 C.2    59  MET59       0.2261
     74  O         61.8070  -11.3450  -10.4300 O.2    59  MET59      -0.2867
     75  CB        64.6750  -10.2950  -11.3240 C.3    59  MET59       0.0387
     76  CG        65.5000   -9.1000  -11.7170 C.3    59  MET59       0.0595
     77  SD        66.4750   -9.3160  -13.2180 S.3    59  MET59      -0.1393
     78  CE        65.1540   -9.2130  -14.4680 C.3    59  MET59       0.0692
     79  N         60.9900   -6.0660  -17.3460 N.3    68  VAL68      -0.1245
     80  CA        61.4900   -7.2220  -18.0720 C.3    68  VAL68       0.1561
     81  C         61.4260   -8.4600  -17.1620 C.2    68  VAL68       0.2260
     82  O         61.8880   -8.4330  -16.0100 O.2    68  VAL68      -0.2867
     83  CB        62.9530   -7.0080  -18.5830 C.3    68  VAL68       0.0252
     84  CG1       63.0450   -5.7120  -19.3580 C.3    68  VAL68       0.0019
     85  CG2       63.9270   -6.9840  -17.4390 C.3    68  VAL68       0.0019
     86  N         71.5180  -15.1580  -15.3620 N.3    82  ILE82      -0.1245
     87  CA        70.1440  -14.6940  -15.2080 C.3    82  ILE82       0.1561
     88  C         69.5070  -14.6850  -16.5990 C.2    82  ILE82       0.2260
     89  O         70.0630  -14.1010  -17.5310 O.2    82  ILE82      -0.2867
     90  CB        70.0910  -13.2620  -14.6010 C.3    82  ILE82       0.0252
     91  CG1       70.8200  -13.2400  -13.2490 C.3    82  ILE82       0.0019
     92  CG2       68.6420  -12.8420  -14.3990 C.3    82  ILE82       0.0019
     93  CD1       71.3050  -11.8630  -12.8240 C.3    82  ILE82       0.0001
     94  N         66.1420  -13.8920  -18.9860 N.3    84  THR84      -0.1203
     95  CA        64.9110  -13.1060  -19.0500 C.3    84  THR84       0.1994
     96  C         64.3010  -13.2210  -20.4440 C.2    84  THR84       0.2618
     97  O         64.9640  -13.6660  -21.3740 O.2    84  THR84      -0.2717
     98  CB        65.1660  -11.6080  -18.7900 C.3    84  THR84       0.1784
     99  OG1       65.8890  -11.0470  -19.9000 O.3    84  THR84      -0.2211
    100  CG2       65.9810  -11.4120  -17.5030 C.3    84  THR84       0.0376
    101  N         63.0460  -12.8060  -20.5800 N.am   85  GLU85      -0.1965
    102  CA        62.4770  -12.5580  -21.9030 C.3    85  GLU85       0.1733
    103  C         63.3980  -11.6740  -22.7400 C.2    85  GLU85       0.2616
    104  O         64.1350  -10.8450  -22.2230 O.2    85  GLU85      -0.2715
    105  CB        61.1310  -11.8660  -21.7790 C.3    85  GLU85       0.0429
    106  CG        61.2430  -10.4390  -21.2740 C.3    85  GLU85       0.1163
    107  CD        59.8880   -9.7920  -21.0550 C.2    85  GLU85       0.3649
    108  OE1       59.0650   -9.8020  -21.9980 O.co2  85  GLU85      -0.2457
    109  OE2       59.6460   -9.2730  -19.9440 O.co2  85  GLU85      -0.2457
    110  N         63.3190  -11.8540  -24.0490 N.am   86  PHE86      -0.1960
    111  CA        64.1260  -11.1130  -25.0040 C.3    86  PHE86       0.1771
    112  C         63.3150   -9.9090  -25.4870 C.2    86  PHE86       0.2619
    113  O         62.1350  -10.0390  -25.8310 O.2    86  PHE86      -0.2715
    114  CB        64.4620  -12.0260  -26.1890 C.3    86  PHE86       0.0574
    115  CG        65.2960  -11.3700  -27.2420 C.ar   86  PHE86      -0.0200
    116  CD1       66.6460  -11.1600  -27.0410 C.ar   86  PHE86      -0.0042
    117  CD2       64.7290  -10.9800  -28.4440 C.ar   86  PHE86      -0.0042
    118  CE1       67.4290  -10.5650  -28.0280 C.ar   86  PHE86      -0.0003
    119  CE2       65.4980  -10.3900  -29.4360 C.ar   86  PHE86      -0.0003
    120  CZ        66.8520  -10.1810  -29.2260 C.ar   86  PHE86      -0.0000
    121  N         63.9450   -8.7430  -25.4960 N.am   87  MET87      -0.1963
    122  CA        63.2970   -7.5350  -26.0020 C.3    87  MET87       0.1736
    123  C         63.9100   -7.1700  -27.3530 C.2    87  MET87       0.2617
    124  O         65.0980   -6.8990  -27.4470 O.2    87  MET87      -0.2715
    125  CB        63.4820   -6.3890  -25.0000 C.3    87  MET87       0.0427
    126  CG        62.9370   -6.6980  -23.6280 C.3    87  MET87       0.0599
    127  SD        61.1570   -7.0280  -23.6390 S.3    87  MET87      -0.1393
    128  CE        60.5240   -5.5010  -24.2350 C.3    87  MET87       0.0692
    129  N         63.0680   -7.1530  -28.3870 N.am   88  THR88      -0.1937
    130  CA        63.4900   -7.2190  -29.7890 C.3    88  THR88       0.2028
    131  C         64.3850   -6.0790  -30.2350 C.2    88  THR88       0.2642
    132  O         65.2540   -6.2710  -31.0950 O.2    88  THR88      -0.2714
    133  CB        62.2580   -7.2140  -30.7380 C.3    88  THR88       0.1808
    134  OG1       61.3620   -8.2680  -30.3670 O.3    88  THR88      -0.2208
    135  CG2       62.7020   -7.4200  -32.1910 C.3    88  THR88       0.0379
    136  N         64.1610   -4.8890  -29.6760 N.am   89  TYR89      -0.1959
    137  CA        64.7610   -3.6720  -30.2190 C.3    89  TYR89       0.1771
    138  C         65.8370   -3.0340  -29.3510 C.2    89  TYR89       0.2620
    139  O         66.3490   -1.9610  -29.6880 O.2    89  TYR89      -0.2715
    140  CB        63.6850   -2.6310  -30.5120 C.3    89  TYR89       0.0574
    141  CG        62.8220   -2.9830  -31.6990 C.ar   89  TYR89      -0.0198
    142  CD1       61.6110   -3.6300  -31.5260 C.ar   89  TYR89      -0.0009
    143  CD2       63.2310   -2.6800  -32.9970 C.ar   89  TYR89      -0.0009
    144  CE1       60.8280   -3.9730  -32.6110 C.ar   89  TYR89       0.0417
    145  CE2       62.4550   -3.0180  -34.0920 C.ar   89  TYR89       0.0417
    146  CZ        61.2530   -3.6680  -33.8910 C.ar   89  TYR89       0.1957
    147  OH        60.4690   -4.0320  -34.9660 O.3    89  TYR89      -0.2866
    148  N         66.1820   -3.6820  -28.2420 N.am   90  GLY90      -0.1954
    149  CA        67.2530   -3.1620  -27.4080 C.3    90  GLY90       0.1869
    150  C         66.8510   -1.9670  -26.5620 C.2    90  GLY90       0.2309
    151  O         65.6640   -1.7410  -26.2930 O.2    90  GLY90      -0.2863
    152  N         63.9510   -1.1370  -22.1050 N.3   139  LEU139     -0.1245
    153  CA        64.0970   -1.9740  -23.2890 C.3   139  LEU139      0.1561
    154  C         62.7910   -1.9110  -24.1040 C.2   139  LEU139      0.2260
    155  O         61.7080   -1.7140  -23.5450 O.2   139  LEU139     -0.2867
    156  CB        64.4050   -3.4300  -22.8860 C.3   139  LEU139      0.0270
    157  CG        65.7210   -3.6520  -22.1250 C.3   139  LEU139      0.0019
    158  CD1       65.7330   -5.0240  -21.4870 C.3   139  LEU139      0.0001
    159  CD2       66.9110   -3.4900  -23.0850 C.3   139  LEU139      0.0001
    160  N         64.1740   -2.0210  -17.0450 N.3   149  ALA149     -0.1231
    161  CA        65.1480   -3.0830  -16.7800 C.3   149  ALA149      0.1694
    162  C         66.1950   -2.5900  -15.7540 C.2   149  ALA149      0.2592
    163  O         66.0590   -1.5040  -15.1910 O.2   149  ALA149     -0.2718
    164  CB        65.8550   -3.4870  -18.0950 C.3   149  ALA149      0.0304
    165  N         67.2300   -3.3980  -15.5240 N.am  150  ASP150     -0.1960
    166  CA        68.3840   -2.9910  -14.7020 C.3   150  ASP150      0.1840
    167  C         68.0220   -2.7700  -13.2360 C.2   150  ASP150      0.2622
    168  O         67.8750   -1.6340  -12.7860 O.2   150  ASP150     -0.2715
    169  CB        69.0070   -1.7120  -15.2690 C.3   150  ASP150      0.1450
    170  CG        69.8020   -1.9680  -16.5390 C.2   150  ASP150      0.3671
    171  OD1       70.2990   -0.9950  -17.1380 O.co2 150  ASP150     -0.2456
    172  OD2       69.9340   -3.1400  -16.9450 O.co2 150  ASP150     -0.2456
    173  N         67.8850   -3.8690  -12.5010 N.am  151  PHE151     -0.1974
    174  CA        67.4250   -3.8340  -11.1110 C.3   151  PHE151      0.1639
    175  C         68.5490   -4.0730  -10.1080 C.2   151  PHE151      0.2290
    176  O         68.3010   -4.3760   -8.9380 O.2   151  PHE151     -0.2864
    177  CB        66.3270   -4.8660  -10.9170 C.3   151  PHE151      0.0560
    178  CG        65.1930   -4.7150  -11.9000 C.ar  151  PHE151     -0.0200
    179  CD1       65.1150   -5.5280  -13.0150 C.ar  151  PHE151     -0.0042
    180  CD2       64.2200   -3.7560  -11.7100 C.ar  151  PHE151     -0.0042
    181  CE1       64.0870   -5.3850  -13.9170 C.ar  151  PHE151     -0.0003
    182  CE2       63.1840   -3.6100  -12.6180 C.ar  151  PHE151     -0.0003
    183  CZ        63.1230   -4.4320  -13.7260 C.ar  151  PHE151     -0.0000
@<TRIPOS>BOND
     1   147   146    1
     2   145   146   ar
     3   145   143   ar
     4   146   144   ar
     5   143   141   ar
     6   144   142   ar
     7   135   133    1
     8   141   142   ar
     9   141   140    1
    10   132   131    2
    11   133   134    1
    12   133   130    1
    13   140   137    1
    14   131   130    1
    15   131   136   am
    16   137   136    1
    17   137   138    1
    18   130   129    1
    19   139   138    2
    20   119   120   ar
    21   119   117   ar
    22   138   148   am
    23   120   118   ar
    24    11    10    1
    25    11    12    2
    26    10     9    1
    27     9     3   am
    28   117   115   ar
    29   129   123   am
    30     8     6    1
    31   148   149    1
    32    21    19   am
    33   118   116   ar
    34     3     2    1
    35     3     4    2
    36     2     1    1
    37     2     5    1
    38   124   123    2
    39   149   150    1
    40   123   122    1
    41   115   116   ar
    42   115   114    1
    43    19    20    2
    44    19    18    1
    45     6     5    1
    46     6     7    1
    47   150   151    2
    48    33    32    1
    49   114   111    1
    50    30    32   ar
    51    30    28   ar
    52   122   121    1
    53   122   125    1
    54    18    17    1
    55    17    14    1
    56   113   112    2
    57    13    14    1
    58    32    31   ar
    59   121   112   am
    60   112   111    1
    61    28    27   ar
    62   111   110    1
    63   125   126    1
    64    14    15    1
    65    37    36    2
    66   128   127    1
    67    31    29   ar
    68   154   155    2
    69   154   153    1
    70   110   103   am
    71    27    29   ar
    72    27    26    1
    73    15    22   am
    74    15    16    2
    75    22    23    1
    76   127   126    1
    77    41    42    1
    78    36    35    1
    79   153   156    1
    80   153   152    1
    81    42    45    1
    82    42    43    1
    83   159   157    1
    84    26    23    1
    85   156   157    1
    86   103   104    2
    87   103   102    1
    88    23    24    1
    89    39    38    1
    90   157   158    1
    91   108   107   ar
    92    35    38    1
    93    35    34    1
    94    38    40    1
    95   102   105    1
    96   102   101    1
    97    43    46   am
    98    43    44    2
    99    46    47    1
   100    52    50    1
   101   105   106    1
   102    24    25    2
   103    97    96    2
   104   106   107    1
   105    50    47    1
   106    50    51    1
   107   107   109   ar
   108    49    48    2
   109    47    48    1
   110   101    96   am
   111    96    95    1
   112    48    53   am
   113    99    98    1
   114    84    83    1
   115    95    94    1
   116    95    98    1
   117    53    54    1
   118    98   100    1
   119    83    80    1
   120    83    85    1
   121    54    55    1
   122    54    57    1
   123   164   161    1
   124    80    79    1
   125    80    81    1
   126    55    56    2
   127    89    88    2
   128    57    58    1
   129    81    82    2
   130   171   170   ar
   131   160   161    1
   132    58    59    1
   133   172   170   ar
   134   161   162    1
   135    88    87    1
   136    60    59    1
   137    60    61    1
   138   170   169    1
   139   162   165   am
   140   162   163    2
   141   165   166    1
   142    86    87    1
   143   169   166    1
   144    87    90    1
   145   166   167    1
   146    90    92    1
   147    90    91    1
   148    78    77    1
   149   181   183   ar
   150   181   179   ar
   151   183   182   ar
   152    70    68   ar
   153    91    93    1
   154   167   168    2
   155   167   173   am
   156    77    76    1
   157   179   178   ar
   158    69    68   ar
   159    68    67    1
   160   182   180   ar
   161   173   174    1
   162   178   180   ar
   163   178   177    1
   164    76    75    1
   165    67    66    1
   166    75    72    1
   167   174   177    1
   168   174   175    1
   169    74    73    2
   170    66    63    1
   171    72    73    1
   172    72    71    1
   173   175   176    2
   174    65    64    2
   175    64    63    1
   176    63    62    1
