@<TRIPOS>MOLECULE
tmp/3kf7A00.pdb
 174 161 0 0 0
SMALL
GASTEIGER

@<TRIPOS>ATOM
      1  N         40.6980   35.3160   28.3270 N.3    26  VAL26      -0.1245
      2  CA        39.3030   35.6410   28.6280 C.3    26  VAL26       0.1561
      3  C         38.3670   34.4320   28.5350 C.2    26  VAL26       0.2260
      4  O         37.2440   34.4710   29.0520 O.2    26  VAL26      -0.2867
      5  CB        38.7840   36.8200   27.7620 C.3    26  VAL26       0.0252
      6  CG1       39.5590   38.0970   28.0980 C.3    26  VAL26       0.0019
      7  CG2       38.8920   36.5100   26.2910 C.3    26  VAL26       0.0019
      8  N         36.9330   29.7430   24.1710 N.3    29  GLY29      -0.1225
      9  CA        35.8210   30.3050   23.4080 C.3    29  GLY29       0.1811
     10  C         35.6250   29.6350   22.0670 C.2    29  GLY29       0.2280
     11  O         35.8080   30.2670   21.0110 O.2    29  GLY29      -0.2866
     12  N         41.0250   32.3620   23.6640 N.3    34  VAL34      -0.1245
     13  CA        40.8520   33.7630   23.3930 C.3    34  VAL34       0.1561
     14  C         41.5490   34.6020   24.4500 C.2    34  VAL34       0.2260
     15  O         41.3850   34.3600   25.6510 O.2    34  VAL34      -0.2867
     16  CB        39.3700   34.1330   23.4040 C.3    34  VAL34       0.0252
     17  CG1       39.2030   35.6370   23.1730 C.3    34  VAL34       0.0019
     18  CG2       38.5920   33.3060   22.3450 C.3    34  VAL34       0.0019
     19  N         42.3430   38.8500   25.4540 N.3    36  ALA36      -0.1245
     20  CA        42.2210   40.2860   25.2460 C.3    36  ALA36       0.1562
     21  C         43.6410   40.7940   25.1020 C.2    36  ALA36       0.2260
     22  O         44.5110   40.3870   25.8570 O.2    36  ALA36      -0.2867
     23  CB        41.5530   40.9650   26.4520 C.3    36  ALA36       0.0290
     24  N         40.4490   41.4540   20.6570 N.3    47  ALA47      -0.1245
     25  CA        40.3010   40.0620   21.0300 C.3    47  ALA47       0.1562
     26  C         41.0450   39.2220   19.9870 C.2    47  ALA47       0.2260
     27  O         40.8440   39.3960   18.7720 O.2    47  ALA47      -0.2867
     28  CB        38.8130   39.6770   21.0800 C.3    47  ALA47       0.0290
     29  N         41.8660   35.2730   18.9590 N.3    49  LYS49      -0.1245
     30  CA        41.5330   33.8630   19.0870 C.3    49  LYS49       0.1561
     31  C         42.5900   33.0320   18.3760 C.2    49  LYS49       0.2260
     32  O         42.8550   33.2360   17.1910 O.2    49  LYS49      -0.2867
     33  CB        40.1520   33.5790   18.4790 C.3    49  LYS49       0.0271
     34  CG        39.6770   32.1050   18.5500 C.3    49  LYS49       0.0035
     35  CD        38.5830   31.8680   17.4930 C.3    49  LYS49       0.0206
     36  CE        37.7820   30.6030   17.7160 C.3    49  LYS49       0.1093
     37  NZ        36.5230   30.6630   16.9040 N.3    49  LYS49      -0.1314
     38  N         35.5860   29.5100    8.7730 N.3    67  GLU67      -0.1245
     39  CA        35.6360   30.6570    9.6770 C.3    67  GLU67       0.1567
     40  C         36.4280   31.8380    9.0890 C.2    67  GLU67       0.2260
     41  O         35.9830   32.9830    9.1800 O.2    67  GLU67      -0.2867
     42  CB        36.2040   30.2950   11.0480 C.3    67  GLU67       0.0388
     43  CG        36.0990   31.4680   12.0240 C.3    67  GLU67       0.1160
     44  CD        36.4730   31.1130   13.4510 C.2    67  GLU67       0.3649
     45  OE1       35.8710   31.7210   14.3630 O.co2  67  GLU67      -0.2457
     46  OE2       37.3490   30.2380   13.6580 O.co2  67  GLU67      -0.2457
     47  N         34.8480   35.3740    8.2940 N.3    71  LEU71      -0.1245
     48  CA        35.3170   36.5720    9.0070 C.3    71  LEU71       0.1561
     49  C         35.9590   37.6190    8.0830 C.2    71  LEU71       0.2260
     50  O         35.8150   38.8130    8.3180 O.2    71  LEU71      -0.2867
     51  CB        36.2880   36.1710   10.1190 C.3    71  LEU71       0.0270
     52  CG        35.6640   35.5270   11.3470 C.3    71  LEU71       0.0019
     53  CD1       36.7310   35.2260   12.3630 C.3    71  LEU71       0.0001
     54  CD2       34.6490   36.4480   11.9780 C.3    71  LEU71       0.0001
     55  N         30.9680   40.7750   13.8330 N.3    80  ILE80      -0.1231
     56  CA        32.4190   40.7450   13.9980 C.3    80  ILE80       0.1692
     57  C         33.1070   40.4930   12.6660 C.2    80  ILE80       0.2593
     58  O         32.6940   39.6500   11.8600 O.2    80  ILE80      -0.2718
     59  CB        32.9720   39.7760   15.1130 C.3    80  ILE80       0.0266
     60  CG1       32.7310   38.3110   14.8050 C.3    80  ILE80       0.0019
     61  CG2       32.4370   40.1920   16.5210 C.3    80  ILE80       0.0020
     62  CD1       33.9030   37.3910   15.3430 C.3    80  ILE80       0.0001
     63  N         34.1510   41.2690   12.4350 N.am   81  GLY81      -0.1942
     64  CA        35.0330   41.0410   11.3070 C.3    81  GLY81       0.2014
     65  C         36.4730   41.0630   11.7680 C.2    81  GLY81       0.2638
     66  O         36.7500   41.1580   12.9710 O.2    81  GLY81      -0.2714
     67  N         37.3860   40.9740   10.8120 N.am   82  LEU82      -0.1977
     68  CA        38.8090   40.8810   11.1250 C.3    82  LEU82       0.1596
     69  C         39.4860   42.2220   11.0320 C.2    82  LEU82       0.2287
     70  O         39.3680   42.8950   10.0170 O.2    82  LEU82      -0.2864
     71  CB        39.5090   39.9340   10.1450 C.3    82  LEU82       0.0297
     72  CG        39.1300   38.4770   10.2580 C.3    82  LEU82       0.0022
     73  CD1       39.9500   37.6430    9.2580 C.3    82  LEU82       0.0001
     74  CD2       39.3740   38.0130   11.7150 C.3    82  LEU82       0.0001
     75  N         43.2770   34.9540   14.8270 N.3   100  LEU100     -0.1231
     76  CA        42.3250   35.9100   14.3040 C.3   100  LEU100      0.1693
     77  C         42.1780   37.0740   15.2970 C.2   100  LEU100      0.2592
     78  O         42.1330   36.8450   16.5230 O.2   100  LEU100     -0.2718
     79  CB        40.9700   35.2300   14.1440 C.3   100  LEU100      0.0284
     80  CG        40.9410   33.9090   13.3870 C.3   100  LEU100      0.0019
     81  CD1       39.6040   33.2080   13.6180 C.3   100  LEU100      0.0001
     82  CD2       41.1990   34.1470   11.8880 C.3   100  LEU100      0.0001
     83  N         42.0890   38.3070   14.7900 N.am  101  VAL101     -0.1966
     84  CA        41.9050   39.4790   15.6850 C.3   101  VAL101      0.1727
     85  C         40.7740   40.4220   15.2460 C.2   101  VAL101      0.2617
     86  O         40.5290   40.6630   14.0660 O.2   101  VAL101     -0.2715
     87  CB        43.2770   40.1750   16.1070 C.3   101  VAL101      0.0290
     88  CG1       44.4950   39.6310   15.3420 C.3   101  VAL101      0.0023
     89  CG2       43.2060   41.7160   16.2240 C.3   101  VAL101      0.0023
     90  N         40.0340   40.8770   16.2370 N.am  102  THR102     -0.1937
     91  CA        38.9060   41.7620   16.0440 C.3   102  THR102      0.2028
     92  C         38.8560   42.7310   17.2240 C.2   102  THR102      0.2642
     93  O         39.5400   42.5120   18.2410 O.2   102  THR102     -0.2714
     94  CB        37.6130   40.9290   15.9300 C.3   102  THR102      0.1808
     95  OG1       36.5240   41.7530   15.4770 O.3   102  THR102     -0.2208
     96  CG2       37.2820   40.2760   17.2780 C.3   102  THR102      0.0379
     97  N         38.0700   43.8030   17.0630 N.am  103  HIS103     -0.1959
     98  CA        37.8260   44.8240   18.0920 C.3   103  HIS103      0.1787
     99  C         37.2650   44.1290   19.3370 C.2   103  HIS103      0.2620
    100  O         36.3160   43.3460   19.2290 O.2   103  HIS103     -0.2715
    101  CB        36.7260   45.8150   17.6370 C.3   103  HIS103      0.0785
    102  CG        37.1770   46.9330   16.7490 C.ar  103  HIS103      0.0821
    103  ND1       36.6770   47.1060   15.4720 N.ar  103  HIS103     -0.2267
    104  CD2       37.9820   47.9970   16.9820 C.ar  103  HIS103      0.1154
    105  CE1       37.2000   48.1940   14.9380 C.ar  103  HIS103      0.1986
    106  NE2       37.9980   48.7540   15.8320 N.ar  103  HIS103     -0.2212
    107  N         37.8120   44.4330   20.5100 N.am  104  LEU104     -0.1963
    108  CA        37.3080   43.8650   21.7510 C.3   104  LEU104      0.1728
    109  C         36.0500   44.6150   22.2200 C.2   104  LEU104      0.2616
    110  O         36.1190   45.7960   22.5220 O.2   104  LEU104     -0.2715
    111  CB        38.3660   43.9570   22.8520 C.3   104  LEU104      0.0311
    112  CG        37.9740   43.4080   24.2260 C.3   104  LEU104      0.0022
    113  CD1       37.8790   41.8900   24.1540 C.3   104  LEU104      0.0001
    114  CD2       38.9680   43.8670   25.3230 C.3   104  LEU104      0.0001
    115  N         34.9200   43.9200   22.2850 N.am  105  MET105     -0.1963
    116  CA        33.6980   44.4640   22.8820 C.3   105  MET105      0.1736
    117  C         33.7830   44.2730   24.3940 C.2   105  MET105      0.2617
    118  O         33.5620   45.2200   25.1500 O.2   105  MET105     -0.2715
    119  CB        32.4450   43.8010   22.3070 C.3   105  MET105      0.0427
    120  CG        32.3580   43.8280   20.7720 C.3   105  MET105      0.0599
    121  SD        32.2660   45.5050   20.0880 S.3   105  MET105     -0.1393
    122  CE        30.5240   45.8760   20.4110 C.3   105  MET105      0.0692
    123  N         34.1090   43.0510   24.8290 N.am  106  GLY106     -0.1940
    124  CA        34.4860   42.8070   26.2240 C.3   106  GLY106      0.2014
    125  C         33.5030   42.0250   27.0690 C.2   106  GLY106      0.2639
    126  O         33.7690   41.7560   28.2330 O.2   106  GLY106     -0.2714
    127  N         32.3550   41.6810   26.4960 N.am  107  ALA107     -0.1963
    128  CA        31.3470   40.9030   27.2100 C.3   107  ALA107      0.1728
    129  C         30.3910   40.2800   26.2190 C.2   107  ALA107      0.2616
    130  O         30.3060   40.7170   25.0670 O.2   107  ALA107     -0.2715
    131  CB        30.5850   41.7710   28.1560 C.3   107  ALA107      0.0334
    132  N         29.6660   39.2670   26.6600 N.am  108  ASP108     -0.1971
    133  CA        28.5190   38.8110   25.8880 C.3   108  ASP108      0.1709
    134  C         27.2070   39.3210   26.5050 C.2   108  ASP108      0.2293
    135  O         27.2140   39.9140   27.5710 O.2   108  ASP108     -0.2864
    136  CB        28.5320   37.2930   25.6890 C.3   108  ASP108      0.1436
    137  CG        28.3130   36.5210   26.9780 C.2   108  ASP108      0.3671
    138  OD1       27.5420   36.9760   27.8410 O.co2 108  ASP108     -0.2456
    139  OD2       28.8970   35.4310   27.1100 O.co2 108  ASP108     -0.2456
    140  N         26.3780   38.1490   30.0230 N.3   111  ASN111     -0.1240
    141  CA        27.0970   38.8940   31.0760 C.3   111  ASN111      0.1653
    142  C         26.3780   40.1660   31.5450 C.2   111  ASN111      0.2266
    143  O         26.8200   40.8010   32.5110 O.2   111  ASN111     -0.2867
    144  CB        28.5230   39.2810   30.6300 C.3   111  ASN111      0.1155
    145  CG        29.4190   38.0790   30.3650 C.2   111  ASN111      0.2627
    146  OD1       30.1740   38.0470   29.3720 O.2   111  ASN111     -0.2716
    147  ND2       29.3540   37.0850   31.2550 N.am  111  ASN111     -0.0877
    148  N         25.1140   34.1720   24.3150 N.3   150  SER150     -0.1217
    149  CA        26.5670   33.9480   24.3440 C.3   150  SER150      0.1889
    150  C         27.2580   34.2190   23.0020 C.2   150  SER150      0.2288
    151  O         28.4760   34.3900   22.9530 O.2   150  SER150     -0.2866
    152  CB        26.8560   32.5120   24.8050 C.3   150  SER150      0.2089
    153  OG        26.3480   31.6040   23.8540 O.3   150  SER150     -0.2183
    154  N         28.3160   39.7760   21.2490 N.3   153  ALA153     -0.1245
    155  CA        29.2870   40.5680   21.9870 C.3   153  ALA153      0.1562
    156  C         28.7730   41.9930   22.1460 C.2   153  ALA153      0.2260
    157  O         28.3000   42.6010   21.1720 O.2   153  ALA153     -0.2867
    158  CB        30.6410   40.5780   21.2720 C.3   153  ALA153      0.0290
    159  N         28.4140   37.1790   16.7650 N.3   163  LEU163     -0.1231
    160  CA        29.5770   36.3040   16.6620 C.3   163  LEU163      0.1693
    161  C         29.1560   34.9650   16.0260 C.2   163  LEU163      0.2592
    162  O         28.0180   34.5320   16.1890 O.2   163  LEU163     -0.2718
    163  CB        30.1010   36.0080   18.0710 C.3   163  LEU163      0.0284
    164  CG        30.3930   37.1480   19.0610 C.3   163  LEU163      0.0019
    165  CD1       30.6800   36.6420   20.4840 C.3   163  LEU163      0.0001
    166  CD2       31.5660   37.9530   18.5690 C.3   163  LEU163      0.0001
    167  N         30.0870   34.3040   15.3310 N.am  164  ASP164     -0.1974
    168  CA        29.9700   32.8570   14.9720 C.3   164  ASP164      0.1709
    169  C         28.8520   32.4680   14.0220 C.2   164  ASP164      0.2293
    170  O         28.5390   31.2780   13.9050 O.2   164  ASP164     -0.2864
    171  CB        29.8520   31.9660   16.2260 C.3   164  ASP164      0.1436
    172  CG        31.1440   31.8460   16.9820 C.2   164  ASP164      0.3671
    173  OD1       32.2040   32.1360   16.3960 O.co2 164  ASP164     -0.2456
    174  OD2       31.1160   31.4090   18.1550 O.co2 164  ASP164     -0.2456
@<TRIPOS>BOND
     1    49    50    2
     2    49    48    1
     3    47    48    1
     4    38    39    1
     5    48    51    1
     6    40    41    2
     7    40    39    1
     8    73    72    1
     9    39    42    1
    10    70    69    2
    11    51    52    1
    12    71    72    1
    13    71    68    1
    14    72    74    1
    15    67    68    1
    16    67    65   am
    17    69    68    1
    18    42    43    1
    19    64    65    1
    20    64    63    1
    21    52    54    1
    22    52    53    1
    23    65    66    2
    24    58    57    2
    25    82    80    1
    26    43    44    1
    27    63    57   am
    28    57    56    1
    29    80    81    1
    30    80    79    1
    31    44    46   ar
    32    44    45   ar
    33    55    56    1
    34   170   169    2
    35    56    59    1
    36   169   168    1
    37    86    85    2
    38    79    76    1
    39    76    75    1
    40    76    77    1
    41    83    77   am
    42    83    84    1
    43    60    59    1
    44    60    62    1
    45   105   103   ar
    46   105   106   ar
    47   168   167    1
    48   168   171    1
    49    59    61    1
    50    85    84    1
    51    85    90   am
    52    77    78    2
    53   167   161   am
    54    88    87    1
    55   103   102   ar
    56    95    94    1
    57    84    87    1
    58   106   104   ar
    59    94    91    1
    60    94    96    1
    61   161   162    2
    62   161   160    1
    63    91    90    1
    64    91    92    1
    65    87    89    1
    66   171   172    1
    67   173   172   ar
    68   160   159    1
    69   160   163    1
    70   102   104   ar
    71   102   101    1
    72    37    36    1
    73   172   174   ar
    74    97    92   am
    75    97    98    1
    76    32    31    2
    77    92    93    2
    78    35    36    1
    79    35    34    1
    80   101    98    1
    81   163   164    1
    82    98    99    1
    83    31    30    1
    84    33    34    1
    85    33    30    1
    86   166   164    1
    87    27    26    2
    88    29    30    1
    89   164   165    1
    90   100    99    2
    91    99   107   am
    92    26    25    1
    93   121   122    1
    94   121   120    1
    95   107   108    1
    96    24    25    1
    97   120   119    1
    98    11    10    2
    99    25    28    1
   100   157   156    2
   101   154   155    1
   102   158   155    1
   103   108   109    1
   104   108   111    1
   105   155   156    1
   106    10     9    1
   107   109   115   am
   108   109   110    2
   109   115   116    1
   110   119   116    1
   111    18    16    1
   112   111   112    1
   113   116   117    1
   114   151   150    2
   115   150   149    1
   116    17    16    1
   117    13    16    1
   118    13    12    1
   119    13    14    1
   120     9     8    1
   121   153   152    1
   122   113   112    1
   123   112   114    1
   124   148   149    1
   125   149   152    1
   126   117   123   am
   127   117   118    2
   128    14    15    2
   129   123   124    1
   130   130   129    2
   131    21    20    1
   132    21    22    2
   133    20    19    1
   134    20    23    1
   135   136   133    1
   136   136   137    1
   137   133   134    1
   138   133   132    1
   139   129   132   am
   140   129   128    1
   141   124   125    1
   142     7     5    1
   143   127   125   am
   144   127   128    1
   145   134   135    2
   146   137   139   ar
   147   137   138   ar
   148   125   126    2
   149   128   131    1
   150     5     6    1
   151     5     2    1
   152     1     2    1
   153     3     2    1
   154     3     4    2
   155   146   145    2
   156   140   141    1
   157   145   144    1
   158   145   147   am
   159   144   141    1
   160   141   142    1
   161   142   143    2
