@<TRIPOS>MOLECULE
tmp/3kfcD00.pdb
 243 230 0 0 0
SMALL
GASTEIGER

@<TRIPOS>ATOM
      1  N         41.0140   64.3780   13.5660 N.3    23  SER23      -0.1217
      2  CA        41.3870   64.7590   14.9340 C.3    23  SER23       0.1889
      3  C         41.3720   63.5990   15.9230 C.2    23  SER23       0.2288
      4  O         42.3820   63.3230   16.5730 O.2    23  SER23      -0.2866
      5  CB        40.4760   65.8740   15.4570 C.3    23  SER23       0.2089
      6  OG        40.6440   67.0700   14.7200 O.3    23  SER23      -0.2183
      7  N         57.4110   69.1210   25.6500 N.3    43  PHE43      -0.1241
      8  CA        57.7710   69.8210   24.4160 C.3    43  PHE43       0.1605
      9  C         57.5340   68.9290   23.1920 C.2    43  PHE43       0.2264
     10  O         57.0460   69.3990   22.1640 O.2    43  PHE43      -0.2867
     11  CB        59.2320   70.2990   24.4810 C.3    43  PHE43       0.0534
     12  CG        59.6890   71.0660   23.2640 C.ar   43  PHE43      -0.0203
     13  CD1       59.4140   72.4230   23.1360 C.ar   43  PHE43      -0.0042
     14  CD2       60.4200   70.4330   22.2590 C.ar   43  PHE43      -0.0042
     15  CE1       59.8360   73.1410   22.0200 C.ar   43  PHE43      -0.0003
     16  CE2       60.8490   71.1430   21.1350 C.ar   43  PHE43      -0.0003
     17  CZ        60.5500   72.5050   21.0180 C.ar   43  PHE43      -0.0000
     18  N         53.8390   68.7840   22.4620 N.3    46  PHE46      -0.1227
     19  CA        53.4350   70.0300   21.8020 C.3    46  PHE46       0.1736
     20  C         53.8330   70.0990   20.3190 C.2    46  PHE46       0.2596
     21  O         52.9990   70.4620   19.4850 O.2    46  PHE46      -0.2718
     22  CB        53.9260   71.2600   22.5840 C.3    46  PHE46       0.0547
     23  CG        52.9350   71.7750   23.6150 C.ar   46  PHE46      -0.0202
     24  CD1       52.4360   70.9390   24.6200 C.ar   46  PHE46      -0.0042
     25  CD2       52.5160   73.1060   23.5910 C.ar   46  PHE46      -0.0042
     26  CE1       51.5330   71.4180   25.5710 C.ar   46  PHE46      -0.0003
     27  CE2       51.6090   73.5990   24.5340 C.ar   46  PHE46      -0.0003
     28  CZ        51.1130   72.7520   25.5290 C.ar   46  PHE46      -0.0000
     29  N         55.0750   69.7280   19.9830 N.am   47  THR47      -0.1953
     30  CA        55.5140   69.7330   18.5700 C.3    47  THR47       0.1897
     31  C         54.7230   68.7520   17.7080 C.2    47  THR47       0.2313
     32  O         54.4600   69.0280   16.5360 O.2    47  THR47      -0.2863
     33  CB        57.0290   69.4600   18.3650 C.3    47  THR47       0.1794
     34  OG1       57.3210   68.0980   18.6880 O.3    47  THR47      -0.2208
     35  CG2       57.8880   70.3950   19.2060 C.3    47  THR47       0.0378
     36  N         51.5380   67.9440   18.2510 N.3    49  LEU49      -0.1231
     37  CA        50.2510   68.6060   18.0360 C.3    49  LEU49       0.1693
     38  C         50.3680   69.6450   16.9220 C.2    49  LEU49       0.2591
     39  O         49.4920   69.7300   16.0480 O.2    49  LEU49      -0.2718
     40  CB        49.7340   69.2580   19.3310 C.3    49  LEU49       0.0284
     41  CG        49.3090   68.3620   20.5040 C.3    49  LEU49       0.0019
     42  CD1       48.8750   69.1940   21.6960 C.3    49  LEU49       0.0001
     43  CD2       48.2210   67.3660   20.1050 C.3    49  LEU49       0.0001
     44  N         51.4560   70.4190   16.9610 N.am   50  ALA50      -0.1980
     45  CA        51.7960   71.3690   15.9000 C.3    50  ALA50       0.1597
     46  C         51.8350   70.6790   14.5340 C.2    50  ALA50       0.2287
     47  O         51.2180   71.1530   13.5870 O.2    50  ALA50      -0.2864
     48  CB        53.1290   72.0450   16.1960 C.3    50  ALA50       0.0319
     49  N         50.4260   67.8580   13.4660 N.3    52  ILE52      -0.1231
     50  CA        49.0640   67.4760   13.0670 C.3    52  ILE52       0.1692
     51  C         48.2930   68.6820   12.5300 C.2    52  ILE52       0.2592
     52  O         47.6190   68.5810   11.5040 O.2    52  ILE52      -0.2718
     53  CB        48.2930   66.8360   14.2550 C.3    52  ILE52       0.0266
     54  CG1       48.8910   65.4640   14.5930 C.3    52  ILE52       0.0019
     55  CG2       46.7820   66.7490   13.9660 C.3    52  ILE52       0.0020
     56  CD1       48.7240   65.0530   16.0490 C.3    52  ILE52       0.0001
     57  N         48.4120   69.8110   13.2280 N.am   53  SER53      -0.1952
     58  CA        47.7930   71.0790   12.8210 C.3    53  SER53       0.1924
     59  C         48.2300   71.5310   11.4310 C.2    53  SER53       0.2314
     60  O         47.3930   71.8770   10.6010 O.2    53  SER53      -0.2863
     61  CB        48.1000   72.1740   13.8460 C.3    53  SER53       0.2116
     62  OG        47.7870   73.4610   13.3510 O.3    53  SER53      -0.2180
     63  N         46.7090   69.4540    8.7870 N.3    56  GLU56      -0.1245
     64  CA        45.3080   69.8830    8.7510 C.3    56  GLU56       0.1567
     65  C         45.1170   71.2110    7.9960 C.2    56  GLU56       0.2260
     66  O         44.1500   71.3690    7.2510 O.2    56  GLU56      -0.2867
     67  CB        44.7930   70.0190   10.1860 C.3    56  GLU56       0.0388
     68  CG        43.4010   69.4690   10.4290 C.3    56  GLU56       0.1160
     69  CD        43.2250   68.9540   11.8510 C.2    56  GLU56       0.3649
     70  OE1       42.6240   69.6780   12.6670 O.co2  56  GLU56      -0.2457
     71  OE2       43.6920   67.8300   12.1520 O.co2  56  GLU56      -0.2457
     72  N         51.3160   79.7120   11.0690 N.3    84  ILE84      -0.1245
     73  CA        51.2810   80.0480   12.4840 C.3    84  ILE84       0.1561
     74  C         49.9880   80.8150   12.8150 C.2    84  ILE84       0.2260
     75  O         49.3440   80.5480   13.8340 O.2    84  ILE84      -0.2867
     76  CB        52.5740   80.7920   12.9610 C.3    84  ILE84       0.0252
     77  CG1       52.5450   81.0260   14.4850 C.3    84  ILE84       0.0019
     78  CG2       52.8240   82.0880   12.1640 C.3    84  ILE84       0.0019
     79  CD1       52.7400   79.7510   15.3190 C.3    84  ILE84       0.0001
     80  N         47.0360   78.4950   12.7720 N.3    87  MET87      -0.1230
     81  CA        47.2460   77.6760   13.9690 C.3    87  MET87       0.1702
     82  C         46.8560   78.3720   15.2800 C.2    87  MET87       0.2592
     83  O         46.3040   77.7430   16.1850 O.2    87  MET87      -0.2718
     84  CB        48.7000   77.2350   14.0450 C.3    87  MET87       0.0401
     85  CG        48.9450   76.0580   14.9580 C.3    87  MET87       0.0596
     86  SD        50.4830   75.2540   14.4990 S.3    87  MET87      -0.1393
     87  CE        51.5970   76.4990   15.0920 C.3    87  MET87       0.0692
     88  N         47.1480   79.6680   15.3750 N.am   88  LEU88      -0.1980
     89  CA        46.8510   80.4420   16.5700 C.3    88  LEU88       0.1596
     90  C         45.3860   80.8440   16.6170 C.2    88  LEU88       0.2287
     91  O         44.8280   81.0670   17.6840 O.2    88  LEU88      -0.2864
     92  CB        47.7420   81.6770   16.6320 C.3    88  LEU88       0.0297
     93  CG        49.2240   81.4620   16.9270 C.3    88  LEU88       0.0022
     94  CD1       50.0140   82.7090   16.5700 C.3    88  LEU88       0.0001
     95  CD2       49.4580   81.0730   18.3770 C.3    88  LEU88       0.0001
     96  N         43.1140   78.7450   15.2950 N.3    90  GLU90      -0.1231
     97  CA        42.5560   77.4450   15.6860 C.3    90  GLU90       0.1699
     98  C         42.7270   77.1380   17.1830 C.2    90  GLU90       0.2592
     99  O         41.8520   76.5310   17.8020 O.2    90  GLU90      -0.2718
    100  CB        43.1410   76.3110   14.8280 C.3    90  GLU90       0.0402
    101  CG        42.6050   76.2630   13.3940 C.3    90  GLU90       0.1161
    102  CD        41.1130   75.9370   13.3170 C.2    90  GLU90       0.3649
    103  OE1       40.7520   74.7470   13.4260 O.co2  90  GLU90      -0.2457
    104  OE2       40.2980   76.8700   13.1240 O.co2  90  GLU90      -0.2457
    105  N         43.8630   77.5530   17.7410 N.am   91  THR91      -0.1953
    106  CA        44.1020   77.5520   19.1830 C.3    91  THR91       0.1897
    107  C         43.0570   78.4280   19.8980 C.2    91  THR91       0.2313
    108  O         42.3460   77.9470   20.7880 O.2    91  THR91      -0.2863
    109  CB        45.5440   78.0260   19.4740 C.3    91  THR91       0.1794
    110  OG1       46.4710   77.1480   18.8250 O.3    91  THR91      -0.2208
    111  CG2       45.8570   78.0720   20.9740 C.3    91  THR91       0.0378
    112  N         39.7320   77.0590   20.2970 N.3    94  ARG94      -0.1245
    113  CA        39.6480   75.9640   21.2740 C.3    94  ARG94       0.1563
    114  C         39.8870   76.3840   22.7410 C.2    94  ARG94       0.2260
    115  O         40.0370   75.5420   23.6250 O.2    94  ARG94      -0.2867
    116  CB        40.5690   74.8180   20.8360 C.3    94  ARG94       0.0307
    117  CG        40.1550   74.2220   19.4850 C.3    94  ARG94       0.0489
    118  CD        41.2990   73.4700   18.8270 C.3    94  ARG94       0.2205
    119  NE        41.0580   72.0330   18.7570 N.pl3  94  ARG94      -0.0865
    120  CZ        40.4790   71.4230   17.7270 C.cat  94  ARG94       0.5346
    121  NH1       40.0720   72.1280   16.6750 N.pl3  94  ARG94       0.1354
    122  NH2       40.3090   70.1030   17.7470 N.pl3  94  ARG94       0.1354
    123  N         43.0510   70.7080   22.7900 N.3   104  PHE104     -0.1227
    124  CA        43.5510   70.1280   21.5510 C.3   104  PHE104      0.1736
    125  C         43.0590   68.6900   21.3710 C.2   104  PHE104      0.2595
    126  O         42.8930   67.9610   22.3480 O.2   104  PHE104     -0.2718
    127  CB        45.0820   70.1800   21.5220 C.3   104  PHE104      0.0547
    128  CG        45.6500   71.5730   21.5820 C.ar  104  PHE104     -0.0202
    129  CD1       46.3800   71.9920   22.6890 C.ar  104  PHE104     -0.0042
    130  CD2       45.4660   72.4630   20.5320 C.ar  104  PHE104     -0.0042
    131  CE1       46.9180   73.2860   22.7530 C.ar  104  PHE104     -0.0003
    132  CE2       46.0020   73.7500   20.5860 C.ar  104  PHE104     -0.0003
    133  CZ        46.7290   74.1600   21.7020 C.ar  104  PHE104     -0.0000
    134  N         42.8050   68.3060   20.1180 N.am  105  LEU105     -0.1980
    135  CA        42.4240   66.9300   19.7340 C.3   105  LEU105      0.1596
    136  C         41.2790   66.2950   20.5280 C.2   105  LEU105      0.2287
    137  O         41.2490   65.0730   20.7130 O.2   105  LEU105     -0.2864
    138  CB        43.6460   65.9960   19.7570 C.3   105  LEU105      0.0297
    139  CG        44.6210   66.0470   18.5830 C.3   105  LEU105      0.0022
    140  CD1       45.6220   64.9090   18.6780 C.3   105  LEU105      0.0001
    141  CD2       43.8880   66.0060   17.2520 C.3   105  LEU105      0.0001
    142  N         51.6230   75.0570   29.0240 N.3   115  PHE115     -0.1241
    143  CA        52.4030   75.6030   27.9220 C.3   115  PHE115      0.1605
    144  C         53.8330   75.8930   28.3690 C.2   115  PHE115      0.2264
    145  O         54.7790   75.5580   27.6720 O.2   115  PHE115     -0.2867
    146  CB        51.7640   76.8850   27.3740 C.3   115  PHE115      0.0534
    147  CG        50.6250   76.6470   26.4010 C.ar  115  PHE115     -0.0203
    148  CD1       49.4660   75.9680   26.7970 C.ar  115  PHE115     -0.0042
    149  CD2       50.6940   77.1410   25.1050 C.ar  115  PHE115     -0.0042
    150  CE1       48.4190   75.7560   25.9050 C.ar  115  PHE115     -0.0003
    151  CE2       49.6430   76.9420   24.2100 C.ar  115  PHE115     -0.0003
    152  CZ        48.5050   76.2470   24.6100 C.ar  115  PHE115     -0.0000
    153  N         57.9220   76.6460   26.3400 N.3   120  LEU120     -0.1245
    154  CA        57.6650   77.8530   25.5650 C.3   120  LEU120      0.1561
    155  C         57.8780   79.0760   26.4730 C.2   120  LEU120      0.2260
    156  O         57.6530   79.0020   27.6770 O.2   120  LEU120     -0.2867
    157  CB        56.2650   77.8130   24.9380 C.3   120  LEU120      0.0270
    158  CG        55.9750   76.6940   23.9180 C.3   120  LEU120      0.0019
    159  CD1       54.5270   76.7150   23.4430 C.3   120  LEU120      0.0001
    160  CD2       56.8870   76.7590   22.7100 C.3   120  LEU120      0.0001
    161  N         55.7420   84.4000   24.6200 N.3   124  PHE124     -0.1241
    162  CA        54.9040   83.7800   23.5770 C.3   124  PHE124      0.1605
    163  C         53.5400   83.3700   24.1300 C.2   124  PHE124      0.2264
    164  O         52.5160   83.6400   23.5060 O.2   124  PHE124     -0.2867
    165  CB        55.6240   82.6000   22.8910 C.3   124  PHE124      0.0534
    166  CG        54.8790   82.0110   21.6910 C.ar  124  PHE124     -0.0203
    167  CD1       54.1170   82.8210   20.8310 C.ar  124  PHE124     -0.0042
    168  CD2       54.9780   80.6500   21.4040 C.ar  124  PHE124     -0.0042
    169  CE1       53.4330   82.2740   19.7280 C.ar  124  PHE124     -0.0003
    170  CE2       54.3200   80.0970   20.3040 C.ar  124  PHE124     -0.0003
    171  CZ        53.5430   80.9090   19.4590 C.ar  124  PHE124     -0.0000
    172  N         49.3330   84.5340   23.3910 N.3   128  ILE128     -0.1245
    173  CA        48.4570   83.4930   22.8660 C.3   128  ILE128      0.1561
    174  C         47.1500   83.4990   23.6510 C.2   128  ILE128      0.2260
    175  O         46.0610   83.4360   23.0610 O.2   128  ILE128     -0.2867
    176  CB        49.0810   82.0800   22.8930 C.3   128  ILE128      0.0252
    177  CG1       50.2240   81.9670   21.8820 C.3   128  ILE128      0.0019
    178  CG2       48.0300   81.0160   22.5790 C.3   128  ILE128      0.0019
    179  CD1       51.1000   80.7500   22.0990 C.3   128  ILE128      0.0001
    180  N         56.2440   84.6260   17.6450 N.3   210  HIS210     -0.1241
    181  CA        56.5740   83.2130   17.4110 C.3   210  HIS210      0.1621
    182  C         57.9880   82.9920   16.8400 C.2   210  HIS210      0.2264
    183  O         58.6800   82.0810   17.2690 O.2   210  HIS210     -0.2867
    184  CB        55.5310   82.5410   16.5010 C.3   210  HIS210      0.0745
    185  CG        55.9090   81.1540   16.0770 C.ar  210  HIS210      0.0817
    186  ND1       56.2980   80.8470   14.7920 N.ar  210  HIS210     -0.2268
    187  CD2       55.9810   79.9960   16.7760 C.ar  210  HIS210      0.1154
    188  CE1       56.5850   79.5600   14.7140 C.ar  210  HIS210      0.1986
    189  NE2       56.3940   79.0190   15.9030 N.ar  210  HIS210     -0.2212
    190  N         60.4470   83.2710   19.3770 N.3   213  GLN213     -0.1231
    191  CA        60.3780   82.0310   20.1450 C.3   213  GLN213      0.1698
    192  C         61.2720   80.9320   19.5560 C.2   213  GLN213      0.2592
    193  O         62.0010   80.2710   20.2980 O.2   213  GLN213     -0.2718
    194  CB        58.9210   81.5590   20.2720 C.3   213  GLN213      0.0381
    195  CG        58.7270   80.1270   20.7660 C.3   213  GLN213      0.0905
    196  CD        59.2320   79.9070   22.1820 C.2   213  GLN213      0.2608
    197  OE1       58.6090   80.3380   23.1440 O.2   213  GLN213     -0.2717
    198  NE2       60.3610   79.2120   22.3130 N.am  213  GLN213     -0.0878
    199  N         61.2280   80.7510   18.2340 N.am  214  VAL214     -0.1980
    200  CA        62.0400   79.7170   17.5790 C.3   214  VAL214      0.1595
    201  C         63.5450   80.0470   17.6310 C.2   214  VAL214      0.2287
    202  O         64.3710   79.1490   17.7710 O.2   214  VAL214     -0.2864
    203  CB        61.5520   79.3700   16.1250 C.3   214  VAL214      0.0276
    204  CG1       60.0990   79.7720   15.9200 C.3   214  VAL214      0.0022
    205  CG2       62.4480   79.9790   15.0480 C.3   214  VAL214      0.0022
    206  N         64.9220   79.2380   20.9800 N.3   217  LEU217     -0.1245
    207  CA        65.1250   77.7980   21.1060 C.3   217  LEU217      0.1561
    208  C         66.4970   77.3600   20.6070 C.2   217  LEU217      0.2260
    209  O         67.1530   76.5570   21.2620 O.2   217  LEU217     -0.2867
    210  CB        64.0380   77.0140   20.3680 C.3   217  LEU217      0.0270
    211  CG        62.6300   76.9760   20.9560 C.3   217  LEU217      0.0019
    212  CD1       61.6810   76.5200   19.8850 C.3   217  LEU217      0.0001
    213  CD2       62.5370   76.0640   22.1670 C.3   217  LEU217      0.0001
    214  N         63.6710   71.6690   16.4590 N.3   224  LEU224     -0.1245
    215  CA        62.3360   71.3030   15.9880 C.3   224  LEU224      0.1561
    216  C         62.3910   70.1660   14.9630 C.2   224  LEU224      0.2260
    217  O         63.4460   69.9260   14.3630 O.2   224  LEU224     -0.2867
    218  CB        61.6520   72.5250   15.3690 C.3   224  LEU224      0.0270
    219  CG        61.2050   73.6560   16.3010 C.3   224  LEU224      0.0019
    220  CD1       61.0820   74.9510   15.5220 C.3   224  LEU224      0.0001
    221  CD2       59.8960   73.3060   17.0080 C.3   224  LEU224      0.0001
    222  N         58.2840   71.2270   10.9160 N.3   228  LEU228     -0.1245
    223  CA        58.2000   72.5460   11.5580 C.3   228  LEU228      0.1561
    224  C         59.4550   73.3850   11.3080 C.2   228  LEU228      0.2260
    225  O         59.3970   74.6100   11.3010 O.2   228  LEU228     -0.2867
    226  CB        57.9370   72.4230   13.0650 C.3   228  LEU228      0.0270
    227  CG        56.7500   71.5780   13.5370 C.3   228  LEU228      0.0019
    228  CD1       56.7410   71.5050   15.0500 C.3   228  LEU228      0.0001
    229  CD2       55.4210   72.1110   13.0100 C.3   228  LEU228      0.0001
    230  N         59.2460   77.1230    9.5970 N.3   232  TRP232     -0.1241
    231  CA        59.6190   78.1720   10.5400 C.3   232  TRP232      0.1605
    232  C         61.1000   78.5310   10.5960 C.2   232  TRP232      0.2264
    233  O         61.4420   79.7050   10.7400 O.2   232  TRP232     -0.2867
    234  CB        59.1090   77.8270   11.9400 C.3   232  TRP232      0.0550
    235  CG        57.6090   77.7010   12.0250 C.ar  232  TRP232      0.0003
    236  CD1       56.6800   78.3730   11.2760 C.ar  232  TRP232      0.0946
    237  CD2       56.8710   76.8770   12.9330 C.ar  232  TRP232      0.0152
    238  NE1       55.4150   78.0040   11.6480 N.ar  232  TRP232     -0.2442
    239  CE2       55.4980   77.0940   12.6700 C.ar  232  TRP232      0.0810
    240  CE3       57.2360   75.9800   13.9510 C.ar  232  TRP232      0.0012
    241  CZ2       54.4850   76.4400   13.3800 C.ar  232  TRP232      0.0191
    242  CZ3       56.2240   75.3280   14.6630 C.ar  232  TRP232      0.0001
    243  CH2       54.8650   75.5650   14.3690 C.ar  232  TRP232      0.0015
@<TRIPOS>BOND
     1    66    65    2
     2    65    64    1
     3    64    63    1
     4    64    67    1
     5   230   231    1
     6    67    68    1
     7    68    69    1
     8   231   232    1
     9   231   234    1
    10   232   233    2
    11    60    59    2
    12   222   223    1
    13    72    73    1
    14   236   238   ar
    15   236   235   ar
    16   225   224    2
    17   224   223    1
    18    59    58    1
    19    52    51    2
    20   223   226    1
    21   238   239   ar
    22    69    71   ar
    23    69    70   ar
    24   234   235    1
    25   235   237   ar
    26    78    76    1
    27    73    74    1
    28    73    76    1
    29    51    50    1
    30    51    57   am
    31   239   237   ar
    32   239   241   ar
    33    80    81    1
    34    74    75    2
    35    58    57    1
    36    58    61    1
    37   237   240   ar
    38    76    77    1
    39   229   227    1
    40   226   227    1
    41    50    49    1
    42    50    53    1
    43   104   102   ar
    44   102   101    1
    45   102   103   ar
    46    62    61    1
    47   241   243   ar
    48   101   100    1
    49   227   228    1
    50     1     2    1
    51    47    46    2
    52   240   242   ar
    53    55    53    1
    54    81    84    1
    55    81    82    1
    56    84    85    1
    57    53    54    1
    58   217   216    2
    59   243   242   ar
    60    77    79    1
    61    86    85    1
    62    86    87    1
    63    46    45    1
    64    54    56    1
    65   188   186   ar
    66   188   189   ar
    67     6     5    1
    68   186   185   ar
    69   100    97    1
    70     2     5    1
    71     2     3    1
    72   216   215    1
    73   205   203    1
    74    82    88   am
    75    82    83    2
    76    96    97    1
    77   218   215    1
    78   218   219    1
    79    88    89    1
    80   220   219    1
    81    97    98    1
    82    45    48    1
    83    45    44    1
    84   189   187   ar
    85   204   203    1
    86     3     4    2
    87   215   214    1
    88    39    38    2
    89   185   184    1
    90   185   187   ar
    91   203   200    1
    92   219   221    1
    93   184   181    1
    94    32    31    2
    95    89    90    1
    96    89    92    1
    97    94    93    1
    98    90    91    2
    99    92    93    1
   100   121   120    1
   101   182   183    2
   102   182   181    1
   103    38    44   am
   104    38    37    1
   105    93    95    1
   106    98   105   am
   107    98    99    2
   108   141   139    1
   109   181   180    1
   110   200   201    1
   111   200   199    1
   112   201   202    2
   113    31    30    1
   114   120   122    1
   115   120   119    2
   116   105   106    1
   117    37    36    1
   118    37    40    1
   119   199   192   am
   120    33    30    1
   121    33    34    1
   122    33    35    1
   123    30    29    1
   124   139   140    1
   125   139   138    1
   126   119   118    1
   127   110   109    1
   128   118   117    1
   129   106   109    1
   130   106   107    1
   131    40    41    1
   132   190   191    1
   133   171   169   ar
   134   171   170   ar
   135   109   111    1
   136   117   116    1
   137    21    20    2
   138   192   191    1
   139   192   193    2
   140   169   167   ar
   141   135   138    1
   142   135   134    1
   143   135   136    1
   144   212   211    1
   145   107   108    2
   146    29    20   am
   147    43    41    1
   148   134   125   am
   149   191   194    1
   150   194   195    1
   151   112   113    1
   152   170   168   ar
   153    20    19    1
   154   210   211    1
   155   210   207    1
   156    41    42    1
   157   136   137    2
   158   130   132   ar
   159   130   128   ar
   160   132   133   ar
   161   208   207    1
   162   208   209    2
   163   195   196    1
   164   167   166   ar
   165   116   113    1
   166   211   213    1
   167   206   207    1
   168    17    16   ar
   169    17    15   ar
   170    16    14   ar
   171   113   114    1
   172   125   124    1
   173   125   126    2
   174   168   166   ar
   175   127   124    1
   176   127   128    1
   177   124   123    1
   178   128   129   ar
   179   166   165    1
   180   133   131   ar
   181    19    18    1
   182    19    22    1
   183   177   179    1
   184   177   176    1
   185    15    13   ar
   186    10     9    2
   187   196   198   am
   188   196   197    2
   189    14    12   ar
   190   178   176    1
   191    22    23    1
   192   129   131   ar
   193   160   158    1
   194   114   115    2
   195   173   176    1
   196   173   172    1
   197   173   174    1
   198   165   162    1
   199   175   174    2
   200    13    12   ar
   201     9     8    1
   202    12    11    1
   203   159   158    1
   204   164   163    2
   205   162   163    1
   206   162   161    1
   207    25    23   ar
   208    25    27   ar
   209    23    24   ar
   210   158   157    1
   211   151   152   ar
   212   151   149   ar
   213     8    11    1
   214     8     7    1
   215    27    28   ar
   216   152   150   ar
   217    24    26   ar
   218   157   154    1
   219   149   147   ar
   220    28    26   ar
   221   154   153    1
   222   154   155    1
   223   150   148   ar
   224   147   148   ar
   225   147   146    1
   226   155   156    2
   227   146   143    1
   228   145   144    2
   229   143   144    1
   230   143   142    1
