@<TRIPOS>MOLECULE
tmp/3kfeB00.pdb
 199 187 0 0 0
SMALL
GASTEIGER

@<TRIPOS>ATOM
      1  N          1.3120   48.8910   84.7150 N.3    28  THR28      -0.1203
      2  CA         2.2180   48.1250   83.8670 C.3    28  THR28       0.1994
      3  C          3.6410   48.1100   84.4210 C.2    28  THR28       0.2618
      4  O          4.5540   47.4600   83.8850 O.2    28  THR28      -0.2717
      5  CB         2.2480   48.7150   82.4730 C.3    28  THR28       0.1784
      6  OG1        3.0910   49.8810   82.4590 O.3    28  THR28      -0.2211
      7  CG2        0.8600   49.0920   82.0650 C.3    28  THR28       0.0376
      8  N          3.8160   48.8260   85.5180 N.am   29  LEU29      -0.1965
      9  CA         5.1390   49.0690   86.0310 C.3    29  LEU29       0.1728
     10  C          5.7090   47.8420   86.7360 C.2    29  LEU29       0.2617
     11  O          5.1310   47.3230   87.6880 O.2    29  LEU29      -0.2715
     12  CB         5.1450   50.3140   86.9210 C.3    29  LEU29       0.0311
     13  CG         6.5330   50.9480   86.9290 C.3    29  LEU29       0.0022
     14  CD1        6.4660   52.4140   86.6750 C.3    29  LEU29       0.0001
     15  CD2        7.2000   50.6710   88.2310 C.3    29  LEU29       0.0001
     16  N          6.8500   47.3710   86.2500 N.am   30  GLY30      -0.1941
     17  CA         7.5050   46.2390   86.8680 C.3    30  GLY30       0.1998
     18  C          7.1820   44.9610   86.1350 C.2    30  GLY30       0.2480
     19  O          6.3500   44.9620   85.2150 O.2    30  GLY30      -0.2729
     20  N          7.8610   43.8730   86.5230 N.am   31  PRO31      -0.2726
     21  CA         7.6740   42.5130   86.0140 C.3    31  PRO31       0.1402
     22  C          6.3630   41.9260   86.4830 C.2    31  PRO31       0.2269
     23  O          5.7350   41.1930   85.7270 O.2    31  PRO31      -0.2865
     24  CB         8.8180   41.7330   86.6510 C.3    31  PRO31       0.0296
     25  CG         9.8020   42.7580   87.0380 C.3    31  PRO31       0.0237
     26  CD         9.0180   43.9600   87.4200 C.3    31  PRO31       0.0939
     27  N          2.3720   46.1950   77.1570 N.3    49  ASN49      -0.1240
     28  CA         2.7920   46.6300   78.4890 C.3    49  ASN49       0.1653
     29  C          3.6780   47.8500   78.2950 C.2    49  ASN49       0.2266
     30  O          4.0930   48.4890   79.2510 O.2    49  ASN49      -0.2867
     31  CB         3.5550   45.4900   79.2040 C.3    49  ASN49       0.1155
     32  CG         4.2340   45.9250   80.5160 C.2    49  ASN49       0.2627
     33  OD1        5.1360   46.7690   80.5270 O.2    49  ASN49      -0.2716
     34  ND2        3.8350   45.2940   81.6200 N.am   49  ASN49      -0.0877
     35  N          4.5810   51.3580   77.9450 N.3    51  GLY51      -0.1225
     36  CA         3.9840   52.6290   78.3190 C.3    51  GLY51       0.1811
     37  C          3.5630   53.5700   77.2070 C.2    51  GLY51       0.2280
     38  O          2.3940   53.8760   77.0990 O.2    51  GLY51      -0.2866
     39  N         13.4530   52.5970   76.8550 N.3    81  ASP81      -0.1225
     40  CA        12.7870   52.0300   78.0100 C.3    81  ASP81       0.1805
     41  C         12.4850   53.1600   78.9800 C.2    81  ASP81       0.2598
     42  O         12.9370   54.2710   78.8150 O.2    81  ASP81      -0.2718
     43  CB        13.6690   50.9520   78.6630 C.3    81  ASP81       0.1424
     44  CG        12.8790   49.9700   79.5570 C.2    81  ASP81       0.3668
     45  OD1       11.6680   49.7900   79.3370 O.co2  81  ASP81      -0.2456
     46  OD2       13.4660   49.3630   80.4880 O.co2  81  ASP81      -0.2456
     47  N         11.6980   52.8640   79.9980 N.am   82  GLY82      -0.1942
     48  CA        11.3810   53.8210   81.0330 C.3    82  GLY82       0.2014
     49  C         10.4610   54.9200   80.5610 C.2    82  GLY82       0.2640
     50  O         10.5910   56.0550   80.9810 O.2    82  GLY82      -0.2714
     51  N          9.5380   54.5950   79.6690 N.am   83  THR83      -0.1936
     52  CA         8.5180   55.5450   79.2560 C.3    83  THR83       0.2028
     53  C          7.4200   55.6020   80.3240 C.2    83  THR83       0.2643
     54  O          6.9620   56.6740   80.6900 O.2    83  THR83      -0.2714
     55  CB         7.9370   55.1770   77.8970 C.3    83  THR83       0.1808
     56  OG1        7.4790   53.8210   77.9350 O.3    83  THR83      -0.2208
     57  CG2        9.0010   55.3030   76.8370 C.3    83  THR83       0.0379
     58  N          7.0170   54.4510   80.8510 N.am   84  THR84      -0.1936
     59  CA         6.0480   54.4340   81.9370 C.3    84  THR84       0.2028
     60  C          6.5460   55.2140   83.1290 C.2    84  THR84       0.2642
     61  O          5.7940   56.0060   83.6690 O.2    84  THR84      -0.2714
     62  CB         5.6610   53.0130   82.4200 C.3    84  THR84       0.1808
     63  OG1        5.0040   52.2880   81.3810 O.3    84  THR84      -0.2208
     64  CG2        4.7090   53.1160   83.5610 C.3    84  THR84       0.0379
     65  N          7.8000   55.0060   83.5460 N.am   85  THR85      -0.1950
     66  CA         8.3090   55.6670   84.7650 C.3    85  THR85       0.1897
     67  C          8.4210   57.1730   84.6530 C.2    85  THR85       0.2313
     68  O          8.2940   57.8640   85.6480 O.2    85  THR85      -0.2863
     69  CB         9.6730   55.1350   85.2600 C.3    85  THR85       0.1794
     70  OG1       10.6320   55.2210   84.2120 O.3    85  THR85      -0.2208
     71  CG2        9.5830   53.7010   85.7340 C.3    85  THR85       0.0378
     72  N         17.4140   43.0940   81.9920 N.3   146  THR146     -0.1203
     73  CA        16.6170   43.8500   82.9530 C.3   146  THR146      0.1994
     74  C         15.5050   44.6250   82.2400 C.2   146  THR146      0.2618
     75  O         14.4620   44.9450   82.8270 O.2   146  THR146     -0.2717
     76  CB        17.4930   44.8100   83.7870 C.3   146  THR146      0.1784
     77  OG1       18.2750   44.0450   84.7070 O.3   146  THR146     -0.2211
     78  CG2       16.6280   45.8020   84.5780 C.3   146  THR146      0.0376
     79  N         15.7380   44.9170   80.9640 N.am  147  SER147     -0.1951
     80  CA        14.7860   45.6540   80.1470 C.3   147  SER147      0.1924
     81  C         13.6090   44.7850   79.7500 C.2   147  SER147      0.2314
     82  O         12.4670   45.1800   79.9320 O.2   147  SER147     -0.2863
     83  CB        15.4760   46.1810   78.9000 C.3   147  SER147      0.2116
     84  OG        14.5680   46.8780   78.0780 O.3   147  SER147     -0.2180
     85  N         12.5550   41.7860   81.0730 N.3   149  THR149     -0.1203
     86  CA        11.7560   41.6700   82.2800 C.3   149  THR149      0.1994
     87  C         11.0810   43.0260   82.4940 C.2   149  THR149      0.2618
     88  O         11.5310   44.0310   81.9440 O.2   149  THR149     -0.2717
     89  CB        12.6380   41.3440   83.4920 C.3   149  THR149      0.1784
     90  OG1       13.4670   40.2160   83.1880 O.3   149  THR149     -0.2211
     91  CG2       11.7920   41.0310   84.7170 C.3   149  THR149      0.0376
     92  N         10.0130   43.0760   83.2830 N.am  150  GLY150     -0.1942
     93  CA         9.2790   44.3210   83.4420 C.3   150  GLY150      0.2014
     94  C          8.2250   44.4450   82.3590 C.2   150  GLY150      0.2638
     95  O          7.2020   45.1250   82.5290 O.2   150  GLY150     -0.2714
     96  N          8.5090   43.7990   81.2290 N.am  151  LYS151     -0.1977
     97  CA         7.4980   43.4140   80.2630 C.3   151  LYS151      0.1596
     98  C          7.1140   41.9760   80.5750 C.2   151  LYS151      0.2287
     99  O          6.7150   41.2250   79.7020 O.2   151  LYS151     -0.2864
    100  CB         8.0500   43.4780   78.8490 C.3   151  LYS151      0.0298
    101  CG         8.0510   44.8410   78.2200 C.3   151  LYS151      0.0038
    102  CD         7.6010   44.7330   76.7790 C.3   151  LYS151      0.0206
    103  CE         7.7130   46.0590   76.0910 C.3   151  LYS151      0.1093
    104  NZ         7.8480   47.0800   77.1210 N.3   151  LYS151     -0.1314
    105  N         18.5330   49.0970   89.1880 N.3   371  GLY371     -0.1210
    106  CA        17.0810   49.1230   89.0930 C.3   371  GLY371      0.1956
    107  C         16.3580   48.7780   90.3880 C.2   371  GLY371      0.2612
    108  O         16.8940   48.9540   91.4830 O.2   371  GLY371     -0.2717
    109  N         15.1260   48.2990   90.2590 N.am  372  GLY372     -0.1942
    110  CA        14.3410   47.8720   91.4020 C.3   372  GLY372      0.2014
    111  C         13.7710   49.0100   92.2270 C.2   372  GLY372      0.2639
    112  O         13.2370   48.8090   93.3230 O.2   372  GLY372     -0.2714
    113  N         13.8750   50.2190   91.6960 N.am  373  GLY373     -0.1954
    114  CA        13.4750   51.3920   92.4410 C.3   373  GLY373      0.1869
    115  C         14.6030   51.8060   93.3610 C.2   373  GLY373      0.2309
    116  O         14.4420   52.6440   94.2420 O.2   373  GLY373     -0.2863
    117  N          8.1260   55.1620   92.4250 N.3   408  ILE408     -0.1245
    118  CA         8.5880   54.0160   91.6340 C.3   408  ILE408      0.1561
    119  C          8.8140   52.7800   92.4740 C.2   408  ILE408      0.2260
    120  O          8.3960   51.6840   92.1060 O.2   408  ILE408     -0.2867
    121  CB         9.8780   54.3110   90.8910 C.3   408  ILE408      0.0252
    122  CG1        9.6430   55.4620   89.9380 C.3   408  ILE408      0.0019
    123  CG2       10.3040   53.0980   90.1090 C.3   408  ILE408      0.0019
    124  CD1        8.5340   55.1830   88.9870 C.3   408  ILE408      0.0001
    125  N          6.0360   49.6640   92.2380 N.3   412  LEU412     -0.1245
    126  CA         6.6030   48.3640   91.9050 C.3   412  LEU412      0.1561
    127  C          6.1720   47.3210   92.9220 C.2   412  LEU412      0.2260
    128  O          5.8900   46.1850   92.5740 O.2   412  LEU412     -0.2867
    129  CB         8.1300   48.4420   91.8370 C.3   412  LEU412      0.0270
    130  CG         8.7150   49.3130   90.7230 C.3   412  LEU412      0.0019
    131  CD1       10.2260   49.4180   90.8630 C.3   412  LEU412      0.0001
    132  CD2        8.3350   48.7660   89.3560 C.3   412  LEU412      0.0001
    133  N         13.9910   46.6450   96.2230 N.3   441  LEU441     -0.1231
    134  CA        13.0230   45.5560   96.3760 C.3   441  LEU441      0.1693
    135  C         12.9990   44.5810   95.1970 C.2   441  LEU441      0.2592
    136  O         12.7060   44.9680   94.0570 O.2   441  LEU441     -0.2718
    137  CB        11.6120   46.1040   96.5950 C.3   441  LEU441      0.0284
    138  CG        10.5070   45.0910   96.2870 C.3   441  LEU441      0.0019
    139  CD1       10.6060   43.8500   97.1490 C.3   441  LEU441      0.0001
    140  CD2        9.1500   45.7370   96.4470 C.3   441  LEU441      0.0001
    141  N         13.3040   43.3140   95.4760 N.am  442  ASN442     -0.1960
    142  CA        13.1030   42.2650   94.4880 C.3   442  ASN442      0.1819
    143  C         11.6940   41.7400   94.6380 C.2   442  ASN442      0.2621
    144  O         11.3300   41.2070   95.6760 O.2   442  ASN442     -0.2715
    145  CB        14.1170   41.1370   94.6350 C.3   442  ASN442      0.1195
    146  CG        14.3110   40.3710   93.3470 C.2   442  ASN442      0.2630
    147  OD1       13.3510   40.0210   92.6800 O.2   442  ASN442     -0.2716
    148  ND2       15.5600   40.1170   92.9860 N.am  442  ASN442     -0.0877
    149  N         10.9020   41.9150   93.5880 N.am  443  VAL443     -0.1963
    150  CA         9.4830   41.5840   93.6070 C.3   443  VAL443      0.1727
    151  C          9.2230   40.0860   93.5160 C.2   443  VAL443      0.2616
    152  O          8.0850   39.6380   93.6310 O.2   443  VAL443     -0.2715
    153  CB         8.7400   42.2680   92.4520 C.3   443  VAL443      0.0290
    154  CG1        8.8280   43.7700   92.5760 C.3   443  VAL443      0.0023
    155  CG2        9.3140   41.8260   91.1370 C.3   443  VAL443      0.0023
    156  N         10.2740   39.3140   93.2850 N.am  444  PHE444     -0.1974
    157  CA        10.1680   37.8650   93.3560 C.3   444  PHE444      0.1639
    158  C         10.5650   37.4120   94.7660 C.2   444  PHE444      0.2290
    159  O          9.7590   36.8230   95.4820 O.2   444  PHE444     -0.2864
    160  CB        11.0580   37.2060   92.3120 C.3   444  PHE444      0.0560
    161  CG        10.9120   37.7810   90.9410 C.ar  444  PHE444     -0.0200
    162  CD1        9.6730   37.9000   90.3630 C.ar  444  PHE444     -0.0042
    163  CD2       12.0250   38.1940   90.2230 C.ar  444  PHE444     -0.0042
    164  CE1        9.5350   38.4200   89.0870 C.ar  444  PHE444     -0.0003
    165  CE2       11.8910   38.7230   88.9500 C.ar  444  PHE444     -0.0003
    166  CZ        10.6370   38.8310   88.3790 C.ar  444  PHE444     -0.0000
    167  N         20.6210   44.9830   94.3400 N.3   451  MET451     -0.1245
    168  CA        20.2390   44.9520   92.9400 C.3   451  MET451      0.1570
    169  C         21.4180   44.8770   91.9700 C.2   451  MET451      0.2261
    170  O         21.3080   44.2390   90.9210 O.2   451  MET451     -0.2867
    171  CB        19.3140   46.1280   92.6020 C.3   451  MET451      0.0387
    172  CG        17.9460   46.0950   93.3200 C.3   451  MET451      0.0595
    173  SD        16.6680   44.9090   92.7570 S.3   451  MET451     -0.1393
    174  CE        17.0980   43.4420   93.6640 C.3   451  MET451      0.0692
    175  N         20.3070   43.6560   88.2290 N.3   456  VAL456     -0.1245
    176  CA        19.2300   44.5560   87.8760 C.3   456  VAL456      0.1561
    177  C         19.7760   45.9410   87.5820 C.2   456  VAL456      0.2260
    178  O         19.9410   46.7430   88.4900 O.2   456  VAL456     -0.2867
    179  CB        18.2170   44.6680   89.0140 C.3   456  VAL456      0.0252
    180  CG1       17.1230   45.6160   88.6400 C.3   456  VAL456      0.0019
    181  CG2       17.6410   43.3360   89.3230 C.3   456  VAL456      0.0019
    182  N         20.2290   49.5450   84.7720 N.3   458  GLU458     -0.1245
    183  CA        19.5690   50.4010   83.8000 C.3   458  GLU458      0.1567
    184  C         20.4710   51.5470   83.3950 C.2   458  GLU458      0.2260
    185  O         21.0590   52.1960   84.2510 O.2   458  GLU458     -0.2867
    186  CB        18.3230   51.0030   84.4280 C.3   458  GLU458      0.0388
    187  CG        17.2600   50.0020   84.7640 C.3   458  GLU458      0.1160
    188  CD        16.3890   50.4570   85.9130 C.2   458  GLU458      0.3649
    189  OE1       16.7960   51.3710   86.6630 O.co2 458  GLU458     -0.2457
    190  OE2       15.2950   49.8900   86.0760 O.co2 458  GLU458     -0.2457
    191  N         17.0930   57.2490   83.9650 N.3   463  LYS463     -0.1245
    192  CA        16.6330   58.0080   85.1200 C.3   463  LYS463      0.1561
    193  C         16.8890   59.5040   84.9880 C.2   463  LYS463      0.2260
    194  O         16.1910   60.2940   85.5910 O.2   463  LYS463     -0.2867
    195  CB        17.2650   57.4640   86.3930 C.3   463  LYS463      0.0271
    196  CG        17.2110   55.9610   86.4820 C.3   463  LYS463      0.0035
    197  CD        15.9930   55.5110   87.2530 C.3   463  LYS463      0.0206
    198  CE        15.7250   54.0210   87.0250 C.3   463  LYS463      0.1093
    199  NZ        14.8710   53.3450   88.0640 N.3   463  LYS463     -0.1314
@<TRIPOS>BOND
     1   103   102    1
     2   103   104    1
     3   102   101    1
     4    57    55    1
     5    39    40    1
     6    38    37    2
     7    27    28    1
     8    37    36    1
     9    55    56    1
    10    55    52    1
    11    35    36    1
    12    40    43    1
    13    40    41    1
    14    84    83    1
    15   101   100    1
    16    29    28    1
    17    29    30    2
    18    28    31    1
    19    43    44    1
    20    42    41    2
    21   100    97    1
    22    83    80    1
    23    41    47   am
    24    31    32    1
    25    52    51    1
    26    52    53    1
    27    45    44   ar
    28    44    46   ar
    29    51    49   am
    30    99    98    2
    31    81    82    2
    32    81    80    1
    33    47    48    1
    34    80    79    1
    35    97    98    1
    36    97    96    1
    37    53    54    2
    38    53    58   am
    39    32    33    2
    40    32    34   am
    41    49    50    2
    42    49    48    1
    43    58    59    1
    44    79    74   am
    45    85    86    1
    46    96    94   am
    47    63    62    1
    48    59    62    1
    49    59    60    1
    50    88    87    2
    51    72    73    1
    52     7     5    1
    53    74    75    2
    54    74    73    1
    55    86    87    1
    56    86    89    1
    57    94    95    2
    58    94    93    1
    59    62    64    1
    60     6     5    1
    61     5     2    1
    62    87    92   am
    63    73    76    1
    64    60    65   am
    65    60    61    2
    66    90    89    1
    67    92    93    1
    68   184   183    1
    69   184   185    2
    70    89    91    1
    71    65    66    1
    72    76    78    1
    73    76    77    1
    74   183   186    1
    75   183   182    1
    76     2     3    1
    77     2     1    1
    78     4     3    2
    79   191   192    1
    80    70    69    1
    81     3     8   am
    82   186   187    1
    83    67    66    1
    84    67    68    2
    85   187   188    1
    86    66    69    1
    87   193   192    1
    88   193   194    2
    89   192   195    1
    90    19    18    2
    91    69    71    1
    92     8     9    1
    93    23    22    2
    94   188   190   ar
    95   188   189   ar
    96    21    22    1
    97    21    20    1
    98    21    24    1
    99     9    10    1
   100     9    12    1
   101    18    20   am
   102    18    17    1
   103    16    10   am
   104    16    17    1
   105   195   196    1
   106   196   197    1
   107    20    26    1
   108    24    25    1
   109    14    13    1
   110    10    11    2
   111    12    13    1
   112    13    15    1
   113   198   197    1
   114   198   199    1
   115    25    26    1
   116   177   176    1
   117   177   178    2
   118   176   175    1
   119   176   179    1
   120   166   165   ar
   121   166   164   ar
   122   180   179    1
   123   165   163   ar
   124   124   122    1
   125   179   181    1
   126   164   162   ar
   127   106   105    1
   128   106   107    1
   129   132   130    1
   130   122   121    1
   131   123   121    1
   132   163   161   ar
   133   109   107   am
   134   109   110    1
   135   162   161   ar
   136   107   108    2
   137   130   131    1
   138   130   129    1
   139   121   118    1
   140   170   169    2
   141   161   160    1
   142   155   153    1
   143   110   111    1
   144   118   117    1
   145   118   119    1
   146   113   111   am
   147   113   114    1
   148   129   126    1
   149   126   125    1
   150   126   127    1
   151   169   168    1
   152   120   119    2
   153   111   112    2
   154   160   157    1
   155   114   115    1
   156   153   154    1
   157   153   150    1
   158   128   127    2
   159   171   168    1
   160   171   172    1
   161   147   146    2
   162   173   172    1
   163   173   174    1
   164   168   167    1
   165   148   146   am
   166   156   157    1
   167   156   151   am
   168   146   145    1
   169   157   158    1
   170   115   116    2
   171   151   150    1
   172   151   152    2
   173   149   150    1
   174   149   143   am
   175   136   135    2
   176   142   145    1
   177   142   143    1
   178   142   141    1
   179   143   144    2
   180   158   159    2
   181   135   141   am
   182   135   134    1
   183   133   134    1
   184   138   140    1
   185   138   137    1
   186   138   139    1
   187   134   137    1
