@<TRIPOS>MOLECULE
tmp/3kffA00.pdb
 131 123 0 0 0
SMALL
GASTEIGER

@<TRIPOS>ATOM
      1  N          3.8750  -34.0660    4.0390 N.3    29  MET29      -0.1245
      2  CA         4.6850  -33.8580    5.2320 C.3    29  MET29       0.1570
      3  C          4.6690  -35.0690    6.1570 C.2    29  MET29       0.2261
      4  O          5.1930  -35.0040    7.2760 O.2    29  MET29      -0.2867
      5  CB         4.2630  -32.5910    5.9880 C.3    29  MET29       0.0387
      6  CG         4.3570  -31.3310    5.1250 C.3    29  MET29       0.0595
      7  SD         6.0990  -31.0080    4.7450 S.3    29  MET29      -0.1393
      8  CE         5.8780  -29.5500    3.7010 C.3    29  MET29       0.0692
      9  N          6.4370  -37.6580    6.8950 N.3    31  VAL31      -0.1245
     10  CA         7.8000  -38.1210    6.6980 C.3    31  VAL31       0.1561
     11  C          8.3880  -38.4600    8.0790 C.2    31  VAL31       0.2260
     12  O          7.9330  -37.9180    9.1070 O.2    31  VAL31      -0.2867
     13  CB         8.6500  -37.0770    5.9720 C.3    31  VAL31       0.0252
     14  CG1        8.0630  -36.8190    4.6000 C.3    31  VAL31       0.0019
     15  CG2        8.7710  -35.7960    6.8150 C.3    31  VAL31       0.0019
     16  N         19.2430  -33.6880    6.1910 N.3    45  PHE45      -0.1241
     17  CA        18.2820  -34.6130    6.7310 C.3    45  PHE45       0.1605
     18  C         18.1080  -35.8210    5.8050 C.2    45  PHE45       0.2264
     19  O         18.0690  -35.6640    4.5660 O.2    45  PHE45      -0.2867
     20  CB        16.8990  -33.9850    6.8730 C.3    45  PHE45       0.0534
     21  CG        16.7870  -32.8360    7.8410 C.ar   45  PHE45      -0.0203
     22  CD1       17.2020  -31.5760    7.4840 C.ar   45  PHE45      -0.0042
     23  CD2       16.2520  -33.0690    9.0910 C.ar   45  PHE45      -0.0042
     24  CE1       17.0300  -30.5420    8.3640 C.ar   45  PHE45      -0.0003
     25  CE2       16.1150  -32.0270   10.0030 C.ar   45  PHE45      -0.0003
     26  CZ        16.5710  -30.7700    9.6560 C.ar   45  PHE45      -0.0000
     27  N         15.0520  -38.6920    5.5560 N.3    47  PHE47      -0.1241
     28  CA        13.7130  -39.1420    5.9520 C.3    47  PHE47       0.1605
     29  C         13.3180  -40.3820    5.1780 C.2    47  PHE47       0.2264
     30  O         13.8330  -40.6490    4.0850 O.2    47  PHE47      -0.2867
     31  CB        12.6330  -38.0930    5.6360 C.3    47  PHE47       0.0534
     32  CG        12.7800  -36.7660    6.3420 C.ar   47  PHE47      -0.0203
     33  CD1       13.4950  -35.7120    5.8010 C.ar   47  PHE47      -0.0042
     34  CD2       12.1790  -36.5740    7.5880 C.ar   47  PHE47      -0.0042
     35  CE1       13.5950  -34.5160    6.4740 C.ar   47  PHE47      -0.0003
     36  CE2       12.2890  -35.3970    8.2910 C.ar   47  PHE47      -0.0003
     37  CZ        13.0560  -34.3980    7.7150 C.ar   47  PHE47      -0.0000
     38  N         17.0490  -34.0700    2.2100 N.3    60  LEU60      -0.1245
     39  CA        16.9260  -32.6100    2.1110 C.3    60  LEU60       0.1561
     40  C         18.1110  -31.9600    2.7860 C.2    60  LEU60       0.2260
     41  O         18.6150  -32.4700    3.7910 O.2    60  LEU60      -0.2867
     42  CB        15.6400  -32.1260    2.7610 C.3    60  LEU60       0.0270
     43  CG        14.3350  -32.6180    2.1240 C.3    60  LEU60       0.0019
     44  CD1       13.1150  -32.2690    2.9810 C.3    60  LEU60       0.0001
     45  CD2       14.1380  -32.0390    0.7500 C.3    60  LEU60       0.0001
     46  N         14.3380  -24.5820    3.2500 N.3    73  VAL73      -0.1245
     47  CA        14.4850  -25.7150    2.3420 C.3    73  VAL73       0.1561
     48  C         13.3010  -25.7630    1.4050 C.2    73  VAL73       0.2260
     49  O         12.1440  -25.4920    1.8490 O.2    73  VAL73      -0.2867
     50  CB        14.6580  -27.0540    3.1140 C.3    73  VAL73       0.0252
     51  CG1       13.4730  -27.3200    4.0200 C.3    73  VAL73       0.0019
     52  CG2       14.9550  -28.2010    2.1570 C.3    73  VAL73       0.0019
     53  N         10.6980  -27.9420   -0.5080 N.3    75  TYR75      -0.1241
     54  CA        10.0390  -29.2430   -0.4520 C.3    75  TYR75       0.1605
     55  C          8.5500  -28.9550   -0.4250 C.2    75  TYR75       0.2264
     56  O          8.0560  -28.3710    0.5230 O.2    75  TYR75      -0.2867
     57  CB        10.4980  -30.0570    0.7770 C.3    75  TYR75       0.0534
     58  CG         9.7580  -31.3790    0.8450 C.ar   75  TYR75      -0.0201
     59  CD1       10.1130  -32.4930    0.1000 C.ar   75  TYR75      -0.0009
     60  CD2        8.6570  -31.5250    1.6590 C.ar   75  TYR75      -0.0009
     61  CE1        9.4040  -33.6710    0.1830 C.ar   75  TYR75       0.0417
     62  CE2        7.9390  -32.6790    1.7680 C.ar   75  TYR75       0.0417
     63  CZ         8.3370  -33.7510    1.0090 C.ar   75  TYR75       0.1957
     64  OH         7.6290  -34.9510    1.0730 O.3    75  TYR75      -0.2866
     65  N          9.9360  -23.7560    2.5940 N.3    79  ASN79      -0.1240
     66  CA         9.8050  -23.9780    4.0130 C.3    79  ASN79       0.1653
     67  C         10.8760  -23.2070    4.7880 C.2    79  ASN79       0.2266
     68  O         12.0530  -23.2040    4.3800 O.2    79  ASN79      -0.2867
     69  CB         9.9570  -25.4450    4.3630 C.3    79  ASN79       0.1155
     70  CG         9.0310  -26.3250    3.5570 C.2    79  ASN79       0.2627
     71  OD1        7.8540  -26.4440    3.9210 O.2    79  ASN79      -0.2716
     72  ND2        9.5330  -26.9170    2.5090 N.am   79  ASN79      -0.0877
     73  N         12.1790  -23.0970    9.0010 N.3    81  PHE81      -0.1241
     74  CA        11.9580  -23.7110   10.2870 C.3    81  PHE81       0.1605
     75  C         12.9720  -23.2570   11.3010 C.2    81  PHE81       0.2264
     76  O         14.0610  -22.7750   10.9910 O.2    81  PHE81      -0.2867
     77  CB        11.9170  -25.2580   10.1770 C.3    81  PHE81       0.0534
     78  CG        13.2290  -25.8920    9.7830 C.ar   81  PHE81      -0.0203
     79  CD1       13.4360  -26.2780    8.4750 C.ar   81  PHE81      -0.0042
     80  CD2       14.2150  -26.1230   10.7320 C.ar   81  PHE81      -0.0042
     81  CE1       14.6100  -26.8980    8.0920 C.ar   81  PHE81      -0.0003
     82  CE2       15.3960  -26.7300   10.3550 C.ar   81  PHE81      -0.0003
     83  CZ        15.5730  -27.1350    9.0350 C.ar   81  PHE81      -0.0000
     84  N         10.6640  -29.1370   16.4990 N.3    94  PHE94      -0.1241
     85  CA        10.7860  -28.2280   15.3730 C.3    94  PHE94       0.1605
     86  C          9.4620  -27.5270   15.1100 C.2    94  PHE94       0.2264
     87  O          8.3870  -28.0870   15.2840 O.2    94  PHE94      -0.2867
     88  CB        11.1690  -28.9890   14.0960 C.3    94  PHE94       0.0534
     89  CG        12.6320  -29.4100   14.0560 C.ar   94  PHE94      -0.0203
     90  CD1       13.0380  -30.6540   14.4730 C.ar   94  PHE94      -0.0042
     91  CD2       13.5870  -28.5410   13.5430 C.ar   94  PHE94      -0.0042
     92  CE1       14.3840  -31.0470   14.4070 C.ar   94  PHE94      -0.0003
     93  CE2       14.9070  -28.9010   13.4590 C.ar   94  PHE94      -0.0003
     94  CZ        15.3070  -30.1440   13.8650 C.ar   94  PHE94      -0.0000
     95  N          7.9320  -25.3460   11.7350 N.3    96  LEU96      -0.1245
     96  CA         8.1260  -25.0960   10.3110 C.3    96  LEU96       0.1561
     97  C          6.9450  -24.3440    9.7480 C.2    96  LEU96       0.2260
     98  O          5.7980  -24.6150   10.1380 O.2    96  LEU96      -0.2867
     99  CB         8.3640  -26.4340    9.5970 C.3    96  LEU96       0.0270
    100  CG         8.5270  -26.4110    8.0920 C.3    96  LEU96       0.0019
    101  CD1        9.4290  -27.5520    7.6560 C.3    96  LEU96       0.0001
    102  CD2        7.1810  -26.5320    7.3560 C.3    96  LEU96       0.0001
    103  N          3.8790  -26.6230   10.5400 N.3   107  LEU107     -0.1245
    104  CA         4.1450  -27.9960   10.8780 C.3   107  LEU107      0.1561
    105  C          4.9440  -27.9670   12.1990 C.2   107  LEU107      0.2260
    106  O          5.8940  -27.1750   12.3090 O.2   107  LEU107     -0.2867
    107  CB         4.9940  -28.6720    9.8240 C.3   107  LEU107      0.0270
    108  CG         5.2090  -30.1930    9.9040 C.3   107  LEU107      0.0019
    109  CD1        3.9350  -30.9380    9.6150 C.3   107  LEU107      0.0001
    110  CD2        6.3350  -30.6350    8.9780 C.3   107  LEU107      0.0001
    111  N          7.0000  -30.8040   14.8340 N.3   109  GLU109     -0.1245
    112  CA         7.4820  -32.1540   14.9210 C.3   109  GLU109      0.1567
    113  C          8.2220  -32.3660   16.2220 C.2   109  GLU109      0.2260
    114  O          9.0520  -31.5350   16.6210 O.2   109  GLU109     -0.2867
    115  CB         8.4470  -32.4770   13.7750 C.3   109  GLU109      0.0388
    116  CG         7.7660  -32.3850   12.4170 C.3   109  GLU109      0.1160
    117  CD         8.7610  -32.4790   11.2750 C.2   109  GLU109      0.3649
    118  OE1        9.1250  -33.6070   10.8560 O.co2 109  GLU109     -0.2457
    119  OE2        9.1640  -31.3480   10.9120 O.co2 109  GLU109     -0.2457
    120  N         10.8110  -35.1560   17.6760 N.3   111  TYR111     -0.1241
    121  CA        11.6860  -36.2730   17.4120 C.3   111  TYR111      0.1605
    122  C         12.3010  -36.7380   18.7340 C.2   111  TYR111      0.2264
    123  O         12.5100  -35.9610   19.6460 O.2   111  TYR111     -0.2867
    124  CB        12.8310  -35.9260   16.4850 C.3   111  TYR111      0.0534
    125  CG        12.5170  -35.3390   15.1380 C.ar  111  TYR111     -0.0201
    126  CD1       11.2650  -35.4680   14.5050 C.ar  111  TYR111     -0.0009
    127  CD2       13.5020  -34.6460   14.4260 C.ar  111  TYR111     -0.0009
    128  CE1       11.0500  -34.9270   13.2530 C.ar  111  TYR111      0.0417
    129  CE2       13.2890  -34.1370   13.1650 C.ar  111  TYR111      0.0417
    130  CZ        12.0650  -34.2840   12.5800 C.ar  111  TYR111      0.1957
    131  OH        11.8460  -33.7440   11.3140 O.3   111  TYR111     -0.2866
@<TRIPOS>BOND
     1    53    54    1
     2    54    55    1
     3    54    57    1
     4    55    56    2
     5    59    61   ar
     6    59    58   ar
     7    61    63   ar
     8    45    43    1
     9    57    58    1
    10    58    60   ar
    11    63    64    1
    12    63    62   ar
    13    48    49    2
    14    48    47    1
    15    60    62   ar
    16    39    38    1
    17    39    42    1
    18    39    40    1
    19    43    42    1
    20    43    44    1
    21    52    50    1
    22    47    50    1
    23    47    46    1
    24    72    70   am
    25    65    66    1
    26    40    41    2
    27    50    51    1
    28    70    71    2
    29    70    69    1
    30     8     7    1
    31    66    69    1
    32    66    67    1
    33     1     2    1
    34    30    29    2
    35    68    67    2
    36    19    18    2
    37    14    13    1
    38     7     6    1
    39     6     5    1
    40    29    28    1
    41     2     5    1
    42     2     3    1
    43    27    28    1
    44    31    28    1
    45    31    32    1
    46    33    32   ar
    47    33    35   ar
    48    18    17    1
    49    13    10    1
    50    13    15    1
    51     3     4    2
    52    16    17    1
    53    32    34   ar
    54    35    37   ar
    55    10     9    1
    56    10    11    1
    57    17    20    1
    58    20    21    1
    59   102   100    1
    60    22    21   ar
    61    22    24   ar
    62    34    36   ar
    63   101   100    1
    64    37    36   ar
    65    21    23   ar
    66    11    12    2
    67   100    99    1
    68    81    79   ar
    69    81    83   ar
    70    24    26   ar
    71    79    78   ar
    72   110   108    1
    73    73    74    1
    74    83    82   ar
    75    23    25   ar
    76    99    96    1
    77   109   108    1
    78    26    25   ar
    79    97    98    2
    80    97    96    1
    81    78    77    1
    82    78    80   ar
    83   107   108    1
    84   107   104    1
    85    77    74    1
    86    74    75    1
    87    96    95    1
    88    82    80   ar
    89   103   104    1
    90   118   117   ar
    91   104   105    1
    92   119   117   ar
    93    76    75    2
    94   117   116    1
    95   131   130    1
    96   105   106    2
    97   116   115    1
    98   130   129   ar
    99   130   128   ar
   100   129   127   ar
   101   128   126   ar
   102    93    91   ar
   103    93    94   ar
   104    91    89   ar
   105   115   112    1
   106    94    92   ar
   107    89    88    1
   108    89    90   ar
   109    88    85    1
   110    92    90   ar
   111   127   125   ar
   112   126   125   ar
   113   111   112    1
   114   112   113    1
   115    86    87    2
   116    86    85    1
   117   125   124    1
   118    85    84    1
   119   113   114    2
   120   124   121    1
   121   121   120    1
   122   121   122    1
   123   122   123    2
