@<TRIPOS>MOLECULE
tmp/3kfgA01.pdb
 131 123 0 0 0
SMALL
GASTEIGER

@<TRIPOS>ATOM
      1  N          3.9040  -34.0670    4.0150 N.3    29  MET29      -0.1245
      2  CA         4.7390  -33.8010    5.1830 C.3    29  MET29       0.1570
      3  C          4.7300  -35.0240    6.1350 C.2    29  MET29       0.2261
      4  O          5.3080  -34.9200    7.2400 O.2    29  MET29      -0.2867
      5  CB         4.2330  -32.5580    5.9140 C.3    29  MET29       0.0387
      6  CG         4.3150  -31.3500    5.1010 C.3    29  MET29       0.0595
      7  SD         6.0480  -30.9500    4.6740 S.3    29  MET29      -0.1393
      8  CE         5.8720  -29.5300    3.6180 C.3    29  MET29       0.0692
      9  N          6.4900  -37.6220    6.9640 N.3    31  VAL31      -0.1245
     10  CA         7.8710  -38.0620    6.7530 C.3    31  VAL31       0.1561
     11  C          8.4650  -38.4450    8.0890 C.2    31  VAL31       0.2260
     12  O          7.9890  -37.9990    9.1530 O.2    31  VAL31      -0.2867
     13  CB         8.7390  -36.9760    6.1000 C.3    31  VAL31       0.0252
     14  CG1        8.1580  -36.6140    4.7270 C.3    31  VAL31       0.0019
     15  CG2        8.8420  -35.7530    6.9540 C.3    31  VAL31       0.0019
     16  N         19.2050  -33.5990    6.2560 N.3    45  PHE45      -0.1241
     17  CA        18.2500  -34.5330    6.8190 C.3    45  PHE45       0.1605
     18  C         18.1120  -35.7120    5.9030 C.2    45  PHE45       0.2264
     19  O         18.1110  -35.5140    4.6750 O.2    45  PHE45      -0.2867
     20  CB        16.8660  -33.8930    6.8870 C.3    45  PHE45       0.0534
     21  CG        16.7120  -32.8140    7.9320 C.ar   45  PHE45      -0.0203
     22  CD1       17.1850  -31.5320    7.7130 C.ar   45  PHE45      -0.0042
     23  CD2       16.0470  -33.0970    9.0900 C.ar   45  PHE45      -0.0042
     24  CE1       17.0190  -30.5520    8.6500 C.ar   45  PHE45      -0.0003
     25  CE2       15.8580  -32.1020   10.0490 C.ar   45  PHE45      -0.0003
     26  CZ        16.3490  -30.8770    9.8430 C.ar   45  PHE45      -0.0000
     27  N         15.0960  -38.6500    5.5090 N.3    47  PHE47      -0.1241
     28  CA        13.7810  -39.1330    5.9320 C.3    47  PHE47       0.1605
     29  C         13.4130  -40.4140    5.1810 C.2    47  PHE47       0.2264
     30  O         13.9960  -40.7200    4.1200 O.2    47  PHE47      -0.2867
     31  CB        12.6570  -38.1050    5.6200 C.3    47  PHE47       0.0534
     32  CG        12.8360  -36.7690    6.2920 C.ar   47  PHE47      -0.0203
     33  CD1       12.2740  -36.6010    7.5670 C.ar   47  PHE47      -0.0042
     34  CD2       13.5090  -35.6990    5.7160 C.ar   47  PHE47      -0.0042
     35  CE1       12.3820  -35.4000    8.2440 C.ar   47  PHE47      -0.0003
     36  CE2       13.6190  -34.4980    6.3980 C.ar   47  PHE47      -0.0003
     37  CZ        13.0680  -34.3800    7.6850 C.ar   47  PHE47      -0.0000
     38  N         17.1120  -33.9980    2.2760 N.3    60  LEU60      -0.1245
     39  CA        16.9170  -32.5620    2.1920 C.3    60  LEU60       0.1561
     40  C         18.0350  -31.8710    2.8900 C.2    60  LEU60       0.2260
     41  O         18.5080  -32.3660    3.9160 O.2    60  LEU60      -0.2867
     42  CB        15.6040  -32.1900    2.8680 C.3    60  LEU60       0.0270
     43  CG        14.3360  -32.6720    2.1730 C.3    60  LEU60       0.0019
     44  CD1       13.0800  -32.3260    3.0020 C.3    60  LEU60       0.0001
     45  CD2       14.1810  -32.0700    0.8010 C.3    60  LEU60       0.0001
     46  N         14.3090  -24.5410    3.4510 N.3    73  VAL73      -0.1245
     47  CA        14.4520  -25.6520    2.5400 C.3    73  VAL73       0.1561
     48  C         13.2660  -25.7280    1.6030 C.2    73  VAL73       0.2260
     49  O         12.1410  -25.4830    2.0320 O.2    73  VAL73      -0.2867
     50  CB        14.6520  -26.9790    3.3710 C.3    73  VAL73       0.0252
     51  CG1       13.4910  -27.1910    4.2490 C.3    73  VAL73       0.0019
     52  CG2       14.8960  -28.1930    2.4460 C.3    73  VAL73       0.0019
     53  N         10.6950  -27.8740   -0.3530 N.3    75  TYR75      -0.1241
     54  CA        10.0890  -29.1760   -0.3640 C.3    75  TYR75       0.1605
     55  C          8.6000  -28.9100   -0.3410 C.2    75  TYR75       0.2264
     56  O          8.0650  -28.3490    0.6450 O.2    75  TYR75      -0.2867
     57  CB        10.5220  -29.9830    0.8700 C.3    75  TYR75       0.0534
     58  CG         9.7880  -31.2780    0.9450 C.ar   75  TYR75      -0.0201
     59  CD1       10.1680  -32.3480    0.1240 C.ar   75  TYR75      -0.0009
     60  CD2        8.6800  -31.4320    1.7780 C.ar   75  TYR75      -0.0009
     61  CE1        9.4360  -33.5440    0.1150 C.ar   75  TYR75       0.0417
     62  CE2        7.9490  -32.6440    1.8100 C.ar   75  TYR75       0.0417
     63  CZ         8.3340  -33.6830    0.9850 C.ar   75  TYR75       0.1957
     64  OH         7.6130  -34.8790    1.0250 O.3    75  TYR75      -0.2866
     65  N          9.8640  -23.7530    2.7420 N.3    79  ASN79      -0.1240
     66  CA         9.7750  -23.9320    4.1990 C.3    79  ASN79       0.1653
     67  C         10.8270  -23.1780    4.9520 C.2    79  ASN79       0.2266
     68  O         11.9960  -23.1430    4.5600 O.2    79  ASN79      -0.2867
     69  CB         9.9470  -25.4090    4.5310 C.3    79  ASN79       0.1155
     70  CG         9.0120  -26.2740    3.7230 C.2    79  ASN79       0.2627
     71  OD1        7.8520  -26.4580    4.1000 O.2    79  ASN79      -0.2716
     72  ND2        9.5020  -26.8230    2.6090 N.am   79  ASN79      -0.0877
     73  N         12.1130  -23.0580    9.1200 N.3    81  PHE81      -0.1241
     74  CA        11.9170  -23.6610   10.4480 C.3    81  PHE81       0.1605
     75  C         12.9210  -23.2210   11.4430 C.2    81  PHE81       0.2264
     76  O         13.9850  -22.7450   11.1180 O.2    81  PHE81      -0.2867
     77  CB        11.8940  -25.1880   10.3970 C.3    81  PHE81       0.0534
     78  CG        13.1720  -25.8550    9.9440 C.ar   81  PHE81      -0.0203
     79  CD1       13.4060  -26.1930    8.6220 C.ar   81  PHE81      -0.0042
     80  CD2       14.1280  -26.2020   10.8770 C.ar   81  PHE81      -0.0042
     81  CE1       14.5590  -26.8330    8.2260 C.ar   81  PHE81      -0.0003
     82  CE2       15.2850  -26.8340   10.4820 C.ar   81  PHE81      -0.0003
     83  CZ        15.4990  -27.1100    9.1620 C.ar   81  PHE81      -0.0000
     84  N         10.6630  -29.1760   16.5660 N.3    94  PHE94      -0.1241
     85  CA        10.8240  -28.2370   15.4690 C.3    94  PHE94       0.1605
     86  C          9.4960  -27.5480   15.1730 C.2    94  PHE94       0.2264
     87  O          8.4020  -28.1770   15.3240 O.2    94  PHE94      -0.2867
     88  CB        11.2740  -28.9890   14.1850 C.3    94  PHE94       0.0534
     89  CG        12.7010  -29.3980   14.1760 C.ar   94  PHE94      -0.0203
     90  CD1       13.0670  -30.6710   14.4680 C.ar   94  PHE94      -0.0042
     91  CD2       13.6890  -28.5210   13.7140 C.ar   94  PHE94      -0.0042
     92  CE1       14.4120  -31.0510   14.4590 C.ar   94  PHE94      -0.0003
     93  CE2       14.9600  -28.9110   13.6290 C.ar   94  PHE94      -0.0003
     94  CZ        15.3550  -30.1710   14.0040 C.ar   94  PHE94      -0.0000
     95  N          7.8900  -25.3670   11.8860 N.3    96  LEU96      -0.1245
     96  CA         8.0910  -25.0820   10.4700 C.3    96  LEU96       0.1561
     97  C          6.8750  -24.3240    9.9040 C.2    96  LEU96       0.2260
     98  O          5.6990  -24.5890   10.2920 O.2    96  LEU96      -0.2867
     99  CB         8.3030  -26.4130    9.7340 C.3    96  LEU96       0.0270
    100  CG         8.4930  -26.3980    8.2240 C.3    96  LEU96       0.0019
    101  CD1        9.4160  -27.5480    7.8750 C.3    96  LEU96       0.0001
    102  CD2        7.1380  -26.5580    7.4490 C.3    96  LEU96       0.0001
    103  N          3.8150  -26.7370   10.6100 N.3   107  LEU107     -0.1245
    104  CA         4.1570  -28.1160   11.0270 C.3   107  LEU107      0.1561
    105  C          4.9310  -28.0430   12.3380 C.2   107  LEU107      0.2260
    106  O          5.8010  -27.1820   12.5110 O.2   107  LEU107     -0.2867
    107  CB         5.0860  -28.7580   10.0170 C.3   107  LEU107      0.0270
    108  CG         5.3160  -30.2590   10.0040 C.3   107  LEU107      0.0019
    109  CD1        4.0880  -31.1280    9.7840 C.3   107  LEU107      0.0001
    110  CD2        6.3950  -30.5900    8.9950 C.3   107  LEU107      0.0001
    111  N          7.0070  -30.8280   14.9440 N.3   109  GLU109     -0.1245
    112  CA         7.5390  -32.1680   14.9760 C.3   109  GLU109      0.1567
    113  C          8.2620  -32.4180   16.2890 C.2   109  GLU109      0.2260
    114  O          9.0750  -31.5790   16.7230 O.2   109  GLU109     -0.2867
    115  CB         8.5110  -32.3750   13.8160 C.3   109  GLU109      0.0388
    116  CG         7.9410  -32.0770   12.4410 C.3   109  GLU109      0.1160
    117  CD         9.0040  -32.2380   11.4000 C.2   109  GLU109      0.3649
    118  OE1        9.1630  -33.3580   10.8220 O.co2 109  GLU109     -0.2457
    119  OE2        9.7160  -31.2350   11.2080 O.co2 109  GLU109     -0.2457
    120  N         10.8580  -35.2080   17.7580 N.3   111  TYR111     -0.1241
    121  CA        11.6880  -36.3490   17.4450 C.3   111  TYR111      0.1605
    122  C         12.2960  -36.8430   18.7560 C.2   111  TYR111      0.2264
    123  O         12.5780  -36.0380   19.6850 O.2   111  TYR111     -0.2867
    124  CB        12.8490  -35.9930   16.5160 C.3   111  TYR111      0.0534
    125  CG        12.5410  -35.3880   15.1640 C.ar  111  TYR111     -0.0201
    126  CD1       11.2890  -35.5190   14.5570 C.ar  111  TYR111     -0.0009
    127  CD2       13.5190  -34.7260   14.4840 C.ar  111  TYR111     -0.0009
    128  CE1       11.0710  -35.0280   13.3140 C.ar  111  TYR111      0.0417
    129  CE2       13.2760  -34.2410   13.2130 C.ar  111  TYR111      0.0417
    130  CZ        12.0790  -34.3760   12.6850 C.ar  111  TYR111      0.1957
    131  OH        11.8870  -33.8610   11.4090 O.3   111  TYR111     -0.2866
@<TRIPOS>BOND
     1    54    53    1
     2    54    55    1
     3    54    57    1
     4    55    56    2
     5    61    59   ar
     6    61    63   ar
     7    59    58   ar
     8    45    43    1
     9    57    58    1
    10    58    60   ar
    11    63    64    1
    12    63    62   ar
    13    48    49    2
    14    48    47    1
    15    60    62   ar
    16    43    42    1
    17    43    44    1
    18    39    38    1
    19    39    42    1
    20    39    40    1
    21    52    50    1
    22    47    50    1
    23    47    46    1
    24    72    70   am
    25    65    66    1
    26    40    41    2
    27    50    51    1
    28     8     7    1
    29    70    71    2
    30    70    69    1
    31     1     2    1
    32    30    29    2
    33    66    69    1
    34    66    67    1
    35    68    67    2
    36     7     6    1
    37    19    18    2
    38    14    13    1
    39     6     5    1
    40    29    28    1
    41     2     5    1
    42     2     3    1
    43    27    28    1
    44    31    28    1
    45    31    32    1
    46    34    32   ar
    47    34    36   ar
    48    18    17    1
    49    13    10    1
    50    13    15    1
    51     3     4    2
    52    16    17    1
    53    32    33   ar
    54    36    37   ar
    55    10     9    1
    56    10    11    1
    57    17    20    1
    58    20    21    1
    59   102   100    1
    60    33    35   ar
    61    37    35   ar
    62    22    21   ar
    63    22    24   ar
    64   101   100    1
    65    21    23   ar
    66    11    12    2
    67   100    99    1
    68    81    79   ar
    69    81    83   ar
    70    79    78   ar
    71    24    26   ar
    72   110   108    1
    73    23    25   ar
    74    73    74    1
    75    83    82   ar
    76    99    96    1
    77   109   108    1
    78    26    25   ar
    79    97    98    2
    80    97    96    1
    81    78    77    1
    82    78    80   ar
    83   108   107    1
    84   107   104    1
    85    77    74    1
    86    74    75    1
    87    96    95    1
    88    82    80   ar
    89   103   104    1
    90   118   117   ar
    91   104   105    1
    92    76    75    2
    93   119   117   ar
    94   117   116    1
    95   131   130    1
    96   105   106    2
    97   116   115    1
    98   130   129   ar
    99   130   128   ar
   100   129   127   ar
   101   128   126   ar
   102    93    91   ar
   103    93    94   ar
   104    91    89   ar
   105   115   112    1
   106    94    92   ar
   107    89    88    1
   108    89    90   ar
   109    88    85    1
   110    92    90   ar
   111   127   125   ar
   112   126   125   ar
   113   111   112    1
   114   112   113    1
   115   125   124    1
   116    86    87    2
   117    86    85    1
   118    85    84    1
   119   113   114    2
   120   124   121    1
   121   121   120    1
   122   121   122    1
   123   122   123    2
