@<TRIPOS>MOLECULE
tmp/3kfhA00.pdb
 139 130 0 0 0
SMALL
GASTEIGER

@<TRIPOS>ATOM
      1  N          3.7230  -35.7740   15.0120 N.3    15  LEU15      -0.1245
      2  CA         3.6630  -34.9190   13.8300 C.3    15  LEU15       0.1561
      3  C          2.3870  -34.1200   13.9150 C.2    15  LEU15       0.2260
      4  O          1.3150  -34.6940   14.1020 O.2    15  LEU15      -0.2867
      5  CB         3.7360  -35.8250   12.5990 C.3    15  LEU15       0.0270
      6  CG         3.6790  -35.1600   11.2590 C.3    15  LEU15       0.0019
      7  CD1        4.8220  -34.2200   11.0370 C.3    15  LEU15       0.0001
      8  CD2        3.6810  -36.2280   10.1760 C.3    15  LEU15       0.0001
      9  N          3.9180  -34.2780    3.8390 N.3    29  MET29      -0.1245
     10  CA         4.7490  -34.0350    5.0040 C.3    29  MET29       0.1570
     11  C          4.8100  -35.1980    5.9410 C.2    29  MET29       0.2261
     12  O          5.4500  -35.1030    6.9890 O.2    29  MET29      -0.2867
     13  CB         4.3300  -32.7460    5.6950 C.3    29  MET29       0.0387
     14  CG         4.3410  -31.5140    4.8110 C.3    29  MET29       0.0595
     15  SD         5.9950  -31.1270    4.2170 S.3    29  MET29      -0.1393
     16  CE         5.6830  -29.6400    3.3110 C.3    29  MET29       0.0692
     17  N          6.5620  -37.9030    6.7060 N.3    31  VAL31      -0.1245
     18  CA         7.9050  -38.4840    6.5380 C.3    31  VAL31       0.1561
     19  C          8.4430  -38.7730    7.9060 C.2    31  VAL31       0.2260
     20  O          8.0050  -38.2260    8.9210 O.2    31  VAL31      -0.2867
     21  CB         8.8030  -37.5300    5.7260 C.3    31  VAL31       0.0252
     22  CG1        8.2000  -37.2330    4.3670 C.3    31  VAL31       0.0019
     23  CG2        9.1000  -36.2240    6.4570 C.3    31  VAL31       0.0019
     24  N         19.2000  -34.0220    6.1900 N.3    45  PHE45      -0.1241
     25  CA        18.2670  -34.9500    6.7200 C.3    45  PHE45       0.1605
     26  C         18.0980  -36.1550    5.7830 C.2    45  PHE45       0.2264
     27  O         18.0510  -36.0060    4.5630 O.2    45  PHE45      -0.2867
     28  CB        16.8610  -34.3460    6.8320 C.3    45  PHE45       0.0534
     29  CG        16.7050  -33.2020    7.8160 C.ar   45  PHE45      -0.0203
     30  CD1       17.1940  -31.9290    7.4830 C.ar   45  PHE45      -0.0042
     31  CD2       16.0820  -33.4330    9.0100 C.ar   45  PHE45      -0.0042
     32  CE1       16.9860  -30.8940    8.3950 C.ar   45  PHE45      -0.0003
     33  CE2       15.8570  -32.3940    9.9210 C.ar   45  PHE45      -0.0003
     34  CZ        16.3570  -31.1270    9.5930 C.ar   45  PHE45      -0.0000
     35  N         15.0940  -39.1060    5.5330 N.3    47  PHE47      -0.1241
     36  CA        13.7910  -39.5650    5.9290 C.3    47  PHE47       0.1605
     37  C         13.4040  -40.8300    5.1370 C.2    47  PHE47       0.2264
     38  O         13.9070  -41.0960    4.0650 O.2    47  PHE47      -0.2867
     39  CB        12.7040  -38.5530    5.6140 C.3    47  PHE47       0.0534
     40  CG        12.8860  -37.1880    6.1920 C.ar   47  PHE47      -0.0203
     41  CD1       13.5120  -36.2100    5.4510 C.ar   47  PHE47      -0.0042
     42  CD2       12.4170  -36.8550    7.4540 C.ar   47  PHE47      -0.0042
     43  CE1       13.6790  -34.9450    5.9100 C.ar   47  PHE47      -0.0003
     44  CE2       12.5980  -35.5840    7.9560 C.ar   47  PHE47      -0.0003
     45  CZ        13.2230  -34.6390    7.1790 C.ar   47  PHE47      -0.0000
     46  N         16.9870  -34.4170    2.1980 N.3    60  LEU60      -0.1245
     47  CA        16.8630  -32.9740    2.0740 C.3    60  LEU60       0.1561
     48  C         18.0260  -32.2920    2.7740 C.2    60  LEU60       0.2260
     49  O         18.5020  -32.7950    3.7820 O.2    60  LEU60      -0.2867
     50  CB        15.5550  -32.4970    2.6940 C.3    60  LEU60       0.0270
     51  CG        14.2810  -32.9210    1.9840 C.3    60  LEU60       0.0019
     52  CD1       13.0510  -32.5240    2.7980 C.3    60  LEU60       0.0001
     53  CD2       14.1500  -32.3130    0.6070 C.3    60  LEU60       0.0001
     54  N         14.4220  -24.8390    3.1300 N.3    73  VAL73      -0.1245
     55  CA        14.5400  -25.9410    2.2010 C.3    73  VAL73       0.1561
     56  C         13.3260  -25.9460    1.2940 C.2    73  VAL73       0.2260
     57  O         12.1970  -25.6900    1.7290 O.2    73  VAL73      -0.2867
     58  CB        14.6850  -27.2890    2.9720 C.3    73  VAL73       0.0252
     59  CG1       13.5000  -27.5870    3.9020 C.3    73  VAL73       0.0019
     60  CG2       14.9420  -28.4110    1.9800 C.3    73  VAL73       0.0019
     61  N         10.7120  -28.1070   -0.6180 N.3    75  TYR75      -0.1241
     62  CA        10.0580  -29.3900   -0.5640 C.3    75  TYR75       0.1605
     63  C          8.5730  -29.1000   -0.5260 C.2    75  TYR75       0.2264
     64  O          8.0740  -28.5360    0.4380 O.2    75  TYR75      -0.2867
     65  CB        10.5130  -30.2310    0.6460 C.3    75  TYR75       0.0534
     66  CG         9.7890  -31.5650    0.6850 C.ar   75  TYR75      -0.0201
     67  CD1       10.1830  -32.6620   -0.0220 C.ar   75  TYR75      -0.0009
     68  CD2        8.6800  -31.7400    1.5070 C.ar   75  TYR75      -0.0009
     69  CE1        9.4810  -33.8760    0.0480 C.ar   75  TYR75       0.0417
     70  CE2        7.9540  -32.8950    1.5890 C.ar   75  TYR75       0.0417
     71  CZ         8.3720  -33.9590    0.8570 C.ar   75  TYR75       0.1957
     72  OH         7.7180  -35.1790    0.8890 O.3    75  TYR75      -0.2866
     73  N          9.9950  -23.8940    2.5190 N.3    79  ASN79      -0.1240
     74  CA         9.8900  -24.1460    3.9320 C.3    79  ASN79       0.1653
     75  C         10.9620  -23.3990    4.7320 C.2    79  ASN79       0.2266
     76  O         12.1400  -23.3990    4.3060 O.2    79  ASN79      -0.2867
     77  CB        10.0530  -25.6180    4.2650 C.3    79  ASN79       0.1155
     78  CG         9.0890  -26.4750    3.4880 C.2    79  ASN79       0.2627
     79  OD1        7.9050  -26.5950    3.8510 O.2    79  ASN79      -0.2716
     80  ND2        9.5700  -27.0610    2.3930 N.am   79  ASN79      -0.0877
     81  N         12.2860  -23.3010    8.9240 N.3    81  PHE81      -0.1241
     82  CA        12.0630  -23.9120   10.1970 C.3    81  PHE81       0.1605
     83  C         13.0800  -23.4770   11.2360 C.2    81  PHE81       0.2264
     84  O         14.1810  -23.0060   10.8950 O.2    81  PHE81      -0.2867
     85  CB        11.9930  -25.4500   10.1020 C.3    81  PHE81       0.0534
     86  CG        13.2610  -26.1330    9.6940 C.ar   81  PHE81      -0.0203
     87  CD1       13.4630  -26.5090    8.3970 C.ar   81  PHE81      -0.0042
     88  CD2       14.2510  -26.3900   10.6520 C.ar   81  PHE81      -0.0042
     89  CE1       14.5920  -27.1600    7.9980 C.ar   81  PHE81      -0.0003
     90  CE2       15.4360  -27.0230   10.2690 C.ar   81  PHE81      -0.0003
     91  CZ        15.5590  -27.4120    8.9460 C.ar   81  PHE81      -0.0000
     92  N         10.7530  -29.3050   16.4270 N.3    94  PHE94      -0.1241
     93  CA        10.8960  -28.4070   15.2840 C.3    94  PHE94       0.1605
     94  C          9.5630  -27.6640   15.0130 C.2    94  PHE94       0.2264
     95  O          8.4930  -28.2720   15.1610 O.2    94  PHE94      -0.2867
     96  CB        11.2830  -29.1610   14.0240 C.3    94  PHE94       0.0534
     97  CG        12.7360  -29.6150   14.0070 C.ar   94  PHE94      -0.0203
     98  CD1       13.1010  -30.8860   14.3680 C.ar   94  PHE94      -0.0042
     99  CD2       13.7400  -28.7600   13.5720 C.ar   94  PHE94      -0.0042
    100  CE1       14.4230  -31.3010   14.3200 C.ar   94  PHE94      -0.0003
    101  CE2       15.0540  -29.1730   13.5050 C.ar   94  PHE94      -0.0003
    102  CZ        15.3600  -30.4280   13.8450 C.ar   94  PHE94      -0.0000
    103  N          8.0160  -25.5330   11.6670 N.3    96  LEU96      -0.1245
    104  CA         8.2120  -25.2360   10.2660 C.3    96  LEU96       0.1561
    105  C          7.0420  -24.4770    9.6870 C.2    96  LEU96       0.2260
    106  O          5.8860  -24.6960   10.0930 O.2    96  LEU96      -0.2867
    107  CB         8.4110  -26.5910    9.5130 C.3    96  LEU96       0.0270
    108  CG         8.5800  -26.5360    7.9930 C.3    96  LEU96       0.0019
    109  CD1        9.4730  -27.6750    7.5430 C.3    96  LEU96       0.0001
    110  CD2        7.2330  -26.6200    7.2830 C.3    96  LEU96       0.0001
    111  N          3.9560  -26.7590   10.5210 N.3   107  LEU107     -0.1245
    112  CA         4.2160  -28.1200   10.9260 C.3   107  LEU107      0.1561
    113  C          4.9670  -28.0470   12.2080 C.2   107  LEU107      0.2260
    114  O          5.8270  -27.1790   12.3900 O.2   107  LEU107     -0.2867
    115  CB         5.1000  -28.9160    9.9850 C.3   107  LEU107      0.0270
    116  CG         4.6660  -29.2700    8.5940 C.3   107  LEU107      0.0019
    117  CD1        5.7970  -30.0920    7.9590 C.3   107  LEU107      0.0001
    118  CD2        3.3610  -30.0510    8.6370 C.3   107  LEU107      0.0001
    119  N          7.0580  -30.9050   14.8230 N.3   109  GLU109     -0.1245
    120  CA         7.5390  -32.2740   14.8620 C.3   109  GLU109      0.1567
    121  C          8.2980  -32.5220   16.1420 C.2   109  GLU109      0.2260
    122  O          9.1020  -31.6820   16.5660 O.2   109  GLU109     -0.2867
    123  CB         8.3820  -32.6230   13.6430 C.3   109  GLU109      0.0388
    124  CG         7.6920  -32.1580   12.3600 C.3   109  GLU109      0.1160
    125  CD         8.0490  -32.8260   11.0780 C.2   109  GLU109      0.3649
    126  OE1        8.8340  -33.7760   10.9930 O.co2 109  GLU109     -0.2457
    127  OE2        7.4650  -32.2940   10.0720 O.co2 109  GLU109     -0.2457
    128  N         10.8260  -35.3530   17.6320 N.3   111  TYR111     -0.1241
    129  CA        11.6850  -36.4620   17.3470 C.3   111  TYR111      0.1605
    130  C         12.3150  -36.9280   18.6730 C.2   111  TYR111      0.2264
    131  O         12.5320  -36.1580   19.5850 O.2   111  TYR111     -0.2867
    132  CB        12.8170  -36.1330   16.3830 C.3   111  TYR111      0.0534
    133  CG        12.4560  -35.5710   15.0360 C.ar  111  TYR111     -0.0201
    134  CD1       11.2130  -35.7120   14.4580 C.ar  111  TYR111     -0.0009
    135  CD2       13.4290  -34.9040   14.2880 C.ar  111  TYR111     -0.0009
    136  CE1       10.9360  -35.2030   13.2100 C.ar  111  TYR111      0.0417
    137  CE2       13.1480  -34.4140   13.0120 C.ar  111  TYR111      0.0417
    138  CZ        11.8940  -34.5640   12.4900 C.ar  111  TYR111      0.1957
    139  OH        11.6450  -34.0700   11.2280 O.3   111  TYR111     -0.2866
@<TRIPOS>BOND
     1    61    62    1
     2    62    63    1
     3    62    65    1
     4    63    64    2
     5    67    69   ar
     6    67    66   ar
     7    69    71   ar
     8    53    51    1
     9    65    66    1
    10    66    68   ar
    11    71    72    1
    12    71    70   ar
    13    56    57    2
    14    56    55    1
    15    68    70   ar
    16    60    58    1
    17    51    50    1
    18    51    52    1
    19    47    46    1
    20    47    50    1
    21    47    48    1
    22    55    58    1
    23    55    54    1
    24    80    78   am
    25    73    74    1
    26    48    49    2
    27    58    59    1
    28    16    15    1
    29    78    79    2
    30    78    77    1
    31     9    10    1
    32    74    77    1
    33    74    75    1
    34    38    37    2
    35    15    14    1
    36    76    75    2
    37    22    21    1
    38    27    26    2
    39    14    13    1
    40    10    13    1
    41    10    11    1
    42    37    36    1
    43    41    43   ar
    44    41    40   ar
    45    35    36    1
    46    39    36    1
    47    39    40    1
    48    21    23    1
    49    21    18    1
    50    26    25    1
    51    43    45   ar
    52    11    12    2
    53    24    25    1
    54    40    42   ar
    55    18    17    1
    56    18    19    1
    57    25    28    1
    58    28    29    1
    59    45    44   ar
    60   110   108    1
    61    42    44   ar
    62    30    29   ar
    63    30    32   ar
    64   109   108    1
    65    29    31   ar
    66    19    20    2
    67   117   116    1
    68   108   107    1
    69    89    87   ar
    70    89    91   ar
    71    32    34   ar
    72    87    86   ar
    73   116   118    1
    74   116   115    1
    75    81    82    1
    76    91    90   ar
    77    31    33   ar
    78   107   104    1
    79    34    33   ar
    80   105   106    2
    81   105   104    1
    82    86    85    1
    83    86    88   ar
    84   115   112    1
    85   127   125   ar
    86    85    82    1
    87     8     6    1
    88    82    83    1
    89   104   103    1
    90    90    88   ar
    91   111   112    1
    92    84    83    2
    93   112   113    1
    94   126   125   ar
    95     7     6    1
    96   125   124    1
    97   139   138    1
    98     6     5    1
    99   113   114    2
   100   124   123    1
   101   138   137   ar
   102   138   136   ar
   103     5     2    1
   104   137   135   ar
   105   136   134   ar
   106   101    99   ar
   107   101   102   ar
   108    99    97   ar
   109   123   120    1
   110     2     3    1
   111     2     1    1
   112   102   100   ar
   113     3     4    2
   114    97    96    1
   115    97    98   ar
   116    96    93    1
   117   135   133   ar
   118   100    98   ar
   119   134   133   ar
   120   119   120    1
   121   120   121    1
   122    94    95    2
   123    94    93    1
   124   133   132    1
   125    93    92    1
   126   121   122    2
   127   132   129    1
   128   129   128    1
   129   129   130    1
   130   130   131    2
