@<TRIPOS>MOLECULE
tmp/3kfiA00.pdb
 131 123 0 0 0
SMALL
GASTEIGER

@<TRIPOS>ATOM
      1  N          3.9380  -33.9300    4.1910 N.3    29  MET29      -0.1245
      2  CA         4.7130  -33.7440    5.4300 C.3    29  MET29       0.1570
      3  C          4.6220  -34.9290    6.3760 C.2    29  MET29       0.2261
      4  O          5.1230  -34.8460    7.4980 O.2    29  MET29      -0.2867
      5  CB         4.3030  -32.4540    6.1430 C.3    29  MET29       0.0387
      6  CG         4.4970  -31.2450    5.3100 C.3    29  MET29       0.0595
      7  SD         6.2780  -30.9230    5.0230 S.3    29  MET29      -0.1393
      8  CE         6.1170  -29.4990    3.9300 C.3    29  MET29       0.0692
      9  N          6.4650  -37.4460    7.0320 N.3    31  VAL31      -0.1245
     10  CA         7.8380  -37.8320    6.8360 C.3    31  VAL31       0.1561
     11  C          8.4410  -38.1990    8.1940 C.2    31  VAL31       0.2260
     12  O          7.9790  -37.7250    9.2490 O.2    31  VAL31      -0.2867
     13  CB         8.6280  -36.6810    6.1800 C.3    31  VAL31       0.0252
     14  CG1        8.0860  -36.3180    4.7940 C.3    31  VAL31       0.0019
     15  CG2        8.6670  -35.4340    7.0520 C.3    31  VAL31       0.0019
     16  N         19.1730  -33.3610    6.1990 N.3    45  PHE45      -0.1241
     17  CA        18.2400  -34.3240    6.7270 C.3    45  PHE45       0.1605
     18  C         18.0880  -35.5140    5.8180 C.2    45  PHE45       0.2264
     19  O         18.0510  -35.3570    4.6000 O.2    45  PHE45      -0.2867
     20  CB        16.8490  -33.6910    6.7960 C.3    45  PHE45       0.0534
     21  CG        16.7050  -32.5920    7.8130 C.ar   45  PHE45      -0.0203
     22  CD1       17.1550  -31.3080    7.5750 C.ar   45  PHE45      -0.0042
     23  CD2       16.0920  -32.8500    9.0180 C.ar   45  PHE45      -0.0042
     24  CE1       16.9860  -30.3100    8.5120 C.ar   45  PHE45      -0.0003
     25  CE2       15.9420  -31.8460    9.9780 C.ar   45  PHE45      -0.0003
     26  CZ        16.4080  -30.5920    9.7340 C.ar   45  PHE45      -0.0000
     27  N         15.0710  -38.3680    5.5050 N.3    47  PHE47      -0.1241
     28  CA        13.7340  -38.8060    5.9100 C.3    47  PHE47       0.1605
     29  C         13.3530  -40.0770    5.1650 C.2    47  PHE47       0.2264
     30  O         13.8630  -40.3420    4.0930 O.2    47  PHE47      -0.2867
     31  CB        12.6550  -37.7470    5.5580 C.3    47  PHE47       0.0534
     32  CG        12.7570  -36.4700    6.3170 C.ar   47  PHE47      -0.0203
     33  CD1       13.4120  -35.3660    5.7830 C.ar   47  PHE47      -0.0042
     34  CD2       12.1570  -36.3460    7.5550 C.ar   47  PHE47      -0.0042
     35  CE1       13.4810  -34.1890    6.4750 C.ar   47  PHE47      -0.0003
     36  CE2       12.2460  -35.1540    8.2310 C.ar   47  PHE47      -0.0003
     37  CZ        12.9030  -34.0940    7.6980 C.ar   47  PHE47      -0.0000
     38  N         17.1040  -33.8500    2.1790 N.3    60  LEU60      -0.1245
     39  CA        16.9580  -32.4000    2.0900 C.3    60  LEU60       0.1561
     40  C         18.1420  -31.7100    2.7340 C.2    60  LEU60       0.2260
     41  O         18.6650  -32.1990    3.7150 O.2    60  LEU60      -0.2867
     42  CB        15.6730  -31.9650    2.7710 C.3    60  LEU60       0.0270
     43  CG        14.3730  -32.4680    2.1560 C.3    60  LEU60       0.0019
     44  CD1       13.1410  -32.1070    2.9820 C.3    60  LEU60       0.0001
     45  CD2       14.1880  -31.9290    0.7130 C.3    60  LEU60       0.0001
     46  N         14.2970  -24.4220    3.2200 N.3    73  VAL73      -0.1245
     47  CA        14.4660  -25.5640    2.3590 C.3    73  VAL73       0.1561
     48  C         13.2790  -25.6300    1.4210 C.2    73  VAL73       0.2260
     49  O         12.1670  -25.3500    1.8240 O.2    73  VAL73      -0.2867
     50  CB        14.6120  -26.8700    3.1800 C.3    73  VAL73       0.0252
     51  CG1       13.4320  -27.0720    4.1760 C.3    73  VAL73       0.0019
     52  CG2       14.8310  -28.0680    2.2640 C.3    73  VAL73       0.0019
     53  N         10.7310  -27.8930   -0.4360 N.3    75  TYR75      -0.1241
     54  CA        10.1290  -29.1950   -0.4010 C.3    75  TYR75       0.1605
     55  C          8.6270  -28.9530   -0.3760 C.2    75  TYR75       0.2264
     56  O          8.0980  -28.3430    0.5470 O.2    75  TYR75      -0.2867
     57  CB        10.5930  -29.9940    0.8430 C.3    75  TYR75       0.0534
     58  CG         9.8520  -31.2880    0.9810 C.ar   75  TYR75      -0.0201
     59  CD1       10.1350  -32.3450    0.1420 C.ar   75  TYR75      -0.0009
     60  CD2        8.8120  -31.4370    1.8760 C.ar   75  TYR75      -0.0009
     61  CE1        9.3920  -33.5030    0.2050 C.ar   75  TYR75       0.0417
     62  CE2        8.0740  -32.6150    1.9670 C.ar   75  TYR75       0.0417
     63  CZ         8.3680  -33.6370    1.1270 C.ar   75  TYR75       0.1957
     64  OH         7.6610  -34.8070    1.1970 O.3    75  TYR75      -0.2866
     65  N          9.9370  -23.6700    2.5290 N.3    79  ASN79      -0.1240
     66  CA         9.7890  -23.8410    3.9720 C.3    79  ASN79       0.1653
     67  C         10.8500  -23.0710    4.7460 C.2    79  ASN79       0.2266
     68  O         12.0100  -23.0220    4.3200 O.2    79  ASN79      -0.2867
     69  CB         9.9590  -25.2920    4.3420 C.3    79  ASN79       0.1155
     70  CG         9.0270  -26.1930    3.5720 C.2    79  ASN79       0.2627
     71  OD1        7.8250  -26.3210    3.8990 O.2    79  ASN79      -0.2716
     72  ND2        9.5630  -26.7990    2.5100 N.am   79  ASN79      -0.0877
     73  N         12.1780  -22.9900    8.9930 N.3    81  PHE81      -0.1241
     74  CA        11.9280  -23.5750   10.3120 C.3    81  PHE81       0.1605
     75  C         12.9170  -23.1090   11.3380 C.2    81  PHE81       0.2264
     76  O         14.0120  -22.6310   11.0080 O.2    81  PHE81      -0.2867
     77  CB        11.9110  -25.1140   10.2280 C.3    81  PHE81       0.0534
     78  CG        13.2100  -25.7430    9.8650 C.ar   81  PHE81      -0.0203
     79  CD1       13.4410  -26.1980    8.5680 C.ar   81  PHE81      -0.0042
     80  CD2       14.2020  -25.8940   10.7990 C.ar   81  PHE81      -0.0042
     81  CE1       14.6180  -26.7970    8.2310 C.ar   81  PHE81      -0.0003
     82  CE2       15.4180  -26.4850   10.4440 C.ar   81  PHE81      -0.0003
     83  CZ        15.6150  -26.9340    9.1330 C.ar   81  PHE81      -0.0000
     84  N         10.6310  -28.9700   16.5150 N.3    94  PHE94      -0.1241
     85  CA        10.7560  -28.0350   15.4140 C.3    94  PHE94       0.1605
     86  C          9.4280  -27.3610   15.1040 C.2    94  PHE94       0.2264
     87  O          8.3540  -27.9570   15.2900 O.2    94  PHE94      -0.2867
     88  CB        11.1700  -28.8140   14.1500 C.3    94  PHE94       0.0534
     89  CG        12.6160  -29.1880   14.1170 C.ar   94  PHE94      -0.0203
     90  CD1       13.0550  -30.4400   14.5320 C.ar   94  PHE94      -0.0042
     91  CD2       13.5550  -28.2970   13.6240 C.ar   94  PHE94      -0.0042
     92  CE1       14.4030  -30.7580   14.4720 C.ar   94  PHE94      -0.0003
     93  CE2       14.8950  -28.6240   13.5270 C.ar   94  PHE94      -0.0003
     94  CZ        15.3250  -29.8660   13.9370 C.ar   94  PHE94      -0.0000
     95  N          7.9320  -25.3710   11.6970 N.3    96  LEU96      -0.1245
     96  CA         8.1950  -25.0830   10.2990 C.3    96  LEU96       0.1561
     97  C          6.9620  -24.3970    9.6890 C.2    96  LEU96       0.2260
     98  O          5.8090  -24.6520   10.0950 O.2    96  LEU96      -0.2867
     99  CB         8.4260  -26.4230    9.5850 C.3    96  LEU96       0.0270
    100  CG         8.6140  -26.4890    8.0620 C.3    96  LEU96       0.0019
    101  CD1        9.6080  -27.6020    7.6800 C.3    96  LEU96       0.0001
    102  CD2        7.2620  -26.6490    7.3360 C.3    96  LEU96       0.0001
    103  N          3.8840  -26.6470   10.5080 N.3   107  LEU107     -0.1245
    104  CA         4.1750  -28.0310   10.8740 C.3   107  LEU107      0.1561
    105  C          4.9840  -27.9840   12.1520 C.2   107  LEU107      0.2260
    106  O          5.9330  -27.2370   12.2370 O.2   107  LEU107     -0.2867
    107  CB         5.0390  -28.6570    9.7790 C.3   107  LEU107      0.0270
    108  CG         5.2710  -30.1700    9.9340 C.3   107  LEU107      0.0019
    109  CD1        3.9870  -30.9420    9.6530 C.3   107  LEU107      0.0001
    110  CD2        6.4230  -30.6140    9.0620 C.3   107  LEU107      0.0001
    111  N          7.0100  -30.6860   14.8840 N.3   109  GLU109     -0.1245
    112  CA         7.5150  -32.0490   14.9690 C.3   109  GLU109      0.1567
    113  C          8.2490  -32.2410   16.2970 C.2   109  GLU109      0.2260
    114  O          9.0180  -31.3520   16.7210 O.2   109  GLU109     -0.2867
    115  CB         8.4990  -32.3410   13.8430 C.3   109  GLU109      0.0388
    116  CG         7.8930  -32.3200   12.5060 C.3   109  GLU109      0.1160
    117  CD         8.9420  -32.2630   11.4290 C.2   109  GLU109      0.3649
    118  OE1        9.2220  -33.3640   10.9090 O.co2 109  GLU109     -0.2457
    119  OE2        9.4590  -31.1570   11.1270 O.co2 109  GLU109     -0.2457
    120  N         10.9040  -34.9510   17.7120 N.3   111  TYR111     -0.1241
    121  CA        11.7840  -36.0790   17.4310 C.3   111  TYR111      0.1605
    122  C         12.3970  -36.5620   18.7470 C.2   111  TYR111      0.2264
    123  O         12.6300  -35.7590   19.6720 O.2   111  TYR111     -0.2867
    124  CB        12.9650  -35.6890   16.5260 C.3   111  TYR111      0.0534
    125  CG        12.6470  -35.0970   15.1610 C.ar  111  TYR111     -0.0201
    126  CD1       11.4130  -35.2100   14.5430 C.ar  111  TYR111     -0.0009
    127  CD2       13.6410  -34.4350   14.4660 C.ar  111  TYR111     -0.0009
    128  CE1       11.2100  -34.6640   13.2640 C.ar  111  TYR111      0.0417
    129  CE2       13.4320  -33.8990   13.2190 C.ar  111  TYR111      0.0417
    130  CZ        12.2200  -34.0410   12.6180 C.ar  111  TYR111      0.1957
    131  OH        12.0430  -33.4910   11.3470 O.3   111  TYR111     -0.2866
@<TRIPOS>BOND
     1    53    54    1
     2    54    55    1
     3    54    57    1
     4    55    56    2
     5    59    61   ar
     6    59    58   ar
     7    61    63   ar
     8    45    43    1
     9    57    58    1
    10    58    60   ar
    11    63    64    1
    12    63    62   ar
    13    48    49    2
    14    48    47    1
    15    60    62   ar
    16    39    38    1
    17    39    40    1
    18    39    42    1
    19    43    42    1
    20    43    44    1
    21    52    50    1
    22    47    50    1
    23    47    46    1
    24    72    70   am
    25    65    66    1
    26    40    41    2
    27    50    51    1
    28    70    71    2
    29    70    69    1
    30     8     7    1
    31    66    69    1
    32    66    67    1
    33    30    29    2
    34     1     2    1
    35    68    67    2
    36    19    18    2
    37    14    13    1
    38     7     6    1
    39    29    28    1
    40     6     5    1
    41     2     5    1
    42     2     3    1
    43    27    28    1
    44    31    28    1
    45    31    32    1
    46    33    32   ar
    47    33    35   ar
    48    18    17    1
    49    13    10    1
    50    13    15    1
    51    16    17    1
    52    32    34   ar
    53     3     4    2
    54    35    37   ar
    55    17    20    1
    56    20    21    1
    57    10     9    1
    58    10    11    1
    59   102   100    1
    60    34    36   ar
    61    22    21   ar
    62    22    24   ar
    63   101   100    1
    64    37    36   ar
    65    21    23   ar
    66   100    99    1
    67    11    12    2
    68    81    79   ar
    69    81    83   ar
    70    24    26   ar
    71    79    78   ar
    72    73    74    1
    73    23    25   ar
    74   110   108    1
    75    83    82   ar
    76    99    96    1
    77   109   108    1
    78    97    98    2
    79    97    96    1
    80    26    25   ar
    81   107   108    1
    82   107   104    1
    83    78    77    1
    84    78    80   ar
    85    77    74    1
    86    96    95    1
    87    74    75    1
    88    82    80   ar
    89   103   104    1
    90   104   105    1
    91   118   117   ar
    92    76    75    2
    93   119   117   ar
    94   131   130    1
    95   117   116    1
    96   105   106    2
    97   116   115    1
    98   130   129   ar
    99   130   128   ar
   100   129   127   ar
   101   128   126   ar
   102    93    91   ar
   103    93    94   ar
   104    91    89   ar
   105   115   112    1
   106    94    92   ar
   107    89    88    1
   108    89    90   ar
   109    88    85    1
   110   127   125   ar
   111    92    90   ar
   112   126   125   ar
   113   111   112    1
   114   112   113    1
   115    86    87    2
   116    86    85    1
   117   125   124    1
   118    85    84    1
   119   113   114    2
   120   124   121    1
   121   121   120    1
   122   121   122    1
   123   122   123    2
