@<TRIPOS>MOLECULE
tmp/3kfjA00.pdb
 132 127 0 0 0
SMALL
GASTEIGER

@<TRIPOS>ATOM
      1  N         16.5970   -7.3240    8.7740 N.3    12  ARG12      -0.1245
      2  CA        15.8750   -6.5670    7.7450 C.3    12  ARG12       0.1563
      3  C         16.0700   -5.0610    7.9420 C.2    12  ARG12       0.2260
      4  O         16.3010   -4.3110    6.9900 O.2    12  ARG12      -0.2867
      5  CB        14.3820   -6.9200    7.8200 C.3    12  ARG12       0.0307
      6  CG        13.4660   -6.1680    6.8600 C.3    12  ARG12       0.0489
      7  CD        12.0110   -6.4600    7.1510 C.3    12  ARG12       0.2205
      8  NE        11.1180   -5.6380    6.3370 N.pl3  12  ARG12      -0.0865
      9  CZ        10.3790   -6.0830    5.3220 C.cat  12  ARG12       0.5346
     10  NH1       10.4110   -7.3610    4.9610 N.pl3  12  ARG12       0.1354
     11  NH2        9.6080   -5.2300    4.6570 N.pl3  12  ARG12       0.1354
     12  N         20.7150  -10.9530    1.7760 N.3    31  ARG31      -0.1245
     13  CA        20.8380  -11.3090    3.1780 C.3    31  ARG31       0.1563
     14  C         20.1210  -12.6210    3.4310 C.2    31  ARG31       0.2260
     15  O         19.3420  -13.0880    2.6010 O.2    31  ARG31      -0.2867
     16  CB        20.2610  -10.2100    4.0870 C.3    31  ARG31       0.0307
     17  CG        18.8630   -9.7380    3.7220 C.3    31  ARG31       0.0489
     18  CD        18.3640   -8.6580    4.6610 C.3    31  ARG31       0.2205
     19  NE        17.0570   -8.1480    4.2430 N.pl3  31  ARG31      -0.0865
     20  CZ        15.8880   -8.6630    4.6190 C.cat  31  ARG31       0.5346
     21  NH1       15.8470   -9.7060    5.4390 N.pl3  31  ARG31       0.1354
     22  NH2       14.7570   -8.1750    4.1260 N.pl3  31  ARG31       0.1354
     23  N         17.4460  -14.3230    5.5700 N.3    33  SER33      -0.1202
     24  CA        16.2590  -13.9960    6.3620 C.3    33  SER33       0.2020
     25  C         16.2500  -14.5650    7.7740 C.2    33  SER33       0.2619
     26  O         16.6570  -15.7070    8.0060 O.2    33  SER33      -0.2717
     27  CB        14.9840  -14.4280    5.6190 C.3    33  SER33       0.2103
     28  OG        13.8080  -14.1120    6.3540 O.3    33  SER33      -0.2182
     29  N         15.8140  -13.7250    8.7080 N.am   34  GLU34      -0.1965
     30  CA        15.7000  -14.0870   10.1150 C.3    34  GLU34       0.1733
     31  C         14.2950  -14.6060   10.4060 C.2    34  GLU34       0.2617
     32  O         14.1300  -15.5070   11.2300 O.2    34  GLU34      -0.2715
     33  CB        16.0080  -12.8900   11.0140 C.3    34  GLU34       0.0429
     34  CG        17.4480  -12.4120   10.9470 C.3    34  GLU34       0.1163
     35  CD        17.8210  -11.5320   12.1280 C.2    34  GLU34       0.3649
     36  OE1       17.0930  -10.5590   12.4050 O.co2  34  GLU34      -0.2457
     37  OE2       18.8460  -11.8110   12.7770 O.co2  34  GLU34      -0.2457
     38  N         13.2990  -14.0490    9.7060 N.am   35  SER35      -0.1950
     39  CA        11.8920  -14.4420    9.8590 C.3    35  SER35       0.1924
     40  C         11.5900  -15.8010    9.2070 C.2    35  SER35       0.2314
     41  O         10.6560  -16.5040    9.6140 O.2    35  SER35      -0.2863
     42  CB        10.9590  -13.3500    9.3060 C.3    35  SER35       0.2116
     43  OG        11.1250  -13.1540    7.9090 O.3    35  SER35      -0.2180
     44  N         16.8650  -13.1170    1.1650 N.3    41  SER41      -0.1217
     45  CA        16.0900  -11.9160    0.8830 C.3    41  SER41       0.1889
     46  C         16.9490  -10.8860    0.1670 C.2    41  SER41       0.2288
     47  O         18.1470  -10.7630    0.4360 O.2    41  SER41      -0.2866
     48  CB        15.5130  -11.3160    2.1650 C.3    41  SER41       0.2089
     49  OG        14.5790  -12.1850    2.7770 O.3    41  SER41      -0.2183
     50  N         13.2250   -1.3560   -0.7030 N.3    51  GLN51      -0.1231
     51  CA        12.3130   -2.4330   -1.0760 C.3    51  GLN51       0.1698
     52  C         12.9140   -3.7960   -0.7880 C.2    51  GLN51       0.2592
     53  O         14.1120   -4.0150   -1.0050 O.2    51  GLN51      -0.2718
     54  CB        11.9380   -2.3270   -2.5600 C.3    51  GLN51       0.0381
     55  CG        10.9930   -1.1690   -2.8820 C.3    51  GLN51       0.0905
     56  CD        10.5930   -1.0830   -4.3480 C.2    51  GLN51       0.2608
     57  OE1       10.2660   -0.0010   -4.8430 O.2    51  GLN51      -0.2717
     58  NE2       10.5920   -2.2170   -5.0430 N.am   51  GLN51      -0.0878
     59  N         12.0770   -4.6970   -0.2720 N.am   52  HIS52      -0.1962
     60  CA        12.4930   -6.0590    0.0640 C.3    52  HIS52       0.1787
     61  C         11.7890   -7.1080   -0.7850 C.2    52  HIS52       0.2620
     62  O         10.5730   -7.0530   -0.9890 O.2    52  HIS52      -0.2715
     63  CB        12.2440   -6.3550    1.5450 C.3    52  HIS52       0.0785
     64  CG        12.9510   -5.4180    2.4710 C.ar   52  HIS52       0.0821
     65  ND1       14.2810   -5.5620    2.8000 N.ar   52  HIS52      -0.2267
     66  CD2       12.5170   -4.3190    3.1280 C.ar   52  HIS52       0.1154
     67  CE1       14.6330   -4.5940    3.6230 C.ar   52  HIS52       0.1986
     68  NE2       13.5810   -3.8260    3.8390 N.ar   52  HIS52      -0.2212
     69  N         12.5760   -8.0500   -1.2980 N.am   53  PHE53      -0.1960
     70  CA        12.0580   -9.1310   -2.1300 C.3    53  PHE53       0.1771
     71  C         12.4990  -10.4610   -1.5590 C.2    53  PHE53       0.2619
     72  O         13.6500  -10.6220   -1.1600 O.2    53  PHE53      -0.2715
     73  CB        12.5920   -9.0450   -3.5680 C.3    53  PHE53       0.0574
     74  CG        12.2780   -7.7580   -4.2740 C.ar   53  PHE53      -0.0200
     75  CD1       13.1220   -6.6370   -4.1280 C.ar   53  PHE53      -0.0042
     76  CD2       11.1450   -7.6540   -5.0990 C.ar   53  PHE53      -0.0042
     77  CE1       12.8400   -5.4180   -4.7980 C.ar   53  PHE53      -0.0003
     78  CE2       10.8530   -6.4460   -5.7740 C.ar   53  PHE53      -0.0003
     79  CZ        11.7020   -5.3250   -5.6230 C.ar   53  PHE53      -0.0000
     80  N         11.5870  -11.4230   -1.5260 N.am   54  LYS54      -0.1977
     81  CA        11.9340  -12.7500   -1.0430 C.3    54  LYS54       0.1596
     82  C         12.4950  -13.5660   -2.2160 C.2    54  LYS54       0.2287
     83  O         11.9600  -13.5030   -3.3310 O.2    54  LYS54      -0.2864
     84  CB        10.7190  -13.4370   -0.3890 C.3    54  LYS54       0.0298
     85  CG         9.3990  -13.3050   -1.1180 C.3    54  LYS54       0.0038
     86  CD         8.2560  -13.9440   -0.3360 C.3    54  LYS54       0.0206
     87  CE         6.9660  -13.8460   -1.1290 C.3    54  LYS54       0.1093
     88  NZ         5.8740  -14.6730   -0.5620 N.3    54  LYS54      -0.1314
     89  N         12.6430  -16.6340   -3.9160 N.3    56  LEU56      -0.1245
     90  CA        11.8240  -17.8380   -3.9890 C.3    56  LEU56       0.1561
     91  C         12.5440  -19.0330   -4.5970 C.2    56  LEU56       0.2260
     92  O         13.5200  -18.8750   -5.3370 O.2    56  LEU56      -0.2867
     93  CB        10.5440  -17.5240   -4.7680 C.3    56  LEU56       0.0270
     94  CG         9.7170  -16.3590   -4.2130 C.3    56  LEU56       0.0019
     95  CD1        8.6650  -15.9110   -5.1910 C.3    56  LEU56       0.0001
     96  CD2        9.1070  -16.7650   -2.8900 C.3    56  LEU56       0.0001
     97  N         12.7850  -14.4540   -8.3760 N.3    65  LEU65      -0.1231
     98  CA        12.0680  -13.3680   -7.7340 C.3    65  LEU65       0.1693
     99  C         10.6350  -13.3330   -8.2520 C.2    65  LEU65       0.2592
    100  O          9.6950  -13.1850   -7.4680 O.2    65  LEU65      -0.2718
    101  CB        12.7390  -12.0190   -7.9910 C.3    65  LEU65       0.0284
    102  CG        14.1360  -11.7150   -7.4540 C.3    65  LEU65       0.0019
    103  CD1       14.4400  -10.2870   -7.8120 C.3    65  LEU65       0.0001
    104  CD2       14.2300  -11.9240   -5.9360 C.3    65  LEU65       0.0001
    105  N         10.4840  -13.4560   -9.5750 N.am   66  TRP66      -0.1976
    106  CA         9.1720  -13.4350  -10.2220 C.3    66  TRP66       0.1640
    107  C          8.8970  -14.6540  -11.1070 C.2    66  TRP66       0.2290
    108  O          8.1040  -15.5200  -10.7340 O.2    66  TRP66      -0.2864
    109  CB         8.9710  -12.1470  -11.0410 C.3    66  TRP66       0.0576
    110  CG         9.0500  -10.8570  -10.2450 C.ar   66  TRP66       0.0006
    111  CD1       10.1220  -10.0090  -10.1740 C.ar   66  TRP66       0.0946
    112  CD2        8.0220  -10.2740   -9.4270 C.ar   66  TRP66       0.0152
    113  NE1        9.8290   -8.9370   -9.3670 N.ar   66  TRP66      -0.2442
    114  CE2        8.5500   -9.0660   -8.8950 C.ar   66  TRP66       0.0810
    115  CE3        6.7010  -10.6480   -9.0910 C.ar   66  TRP66       0.0012
    116  CZ2        7.7990   -8.2190   -8.0420 C.ar   66  TRP66       0.0191
    117  CZ3        5.9470   -9.7990   -8.2370 C.ar   66  TRP66       0.0001
    118  CH2        6.5070   -8.5990   -7.7290 C.ar   66  TRP66       0.0015
    119  N         11.5690   -4.9070   -9.8190 N.3    86  SER86      -0.1217
    120  CA        10.2430   -4.4110   -9.4880 C.3    86  SER86       0.1889
    121  C          9.2750   -4.4080  -10.6600 C.2    86  SER86       0.2288
    122  O          9.6760   -4.2210  -11.8110 O.2    86  SER86      -0.2866
    123  CB        10.3740   -2.9970   -8.9200 C.3    86  SER86       0.2089
    124  OG         9.1210   -2.4070   -8.6440 O.3    86  SER86      -0.2183
    125  N          6.6660   -2.3770  -10.4320 N.3    88  ASN88      -0.1240
    126  CA         6.1060   -1.0310  -10.3230 C.3    88  ASN88       0.1653
    127  C          7.0650    0.0490  -10.8200 C.2    88  ASN88       0.2266
    128  O          6.6330    1.1070  -11.2900 O.2    88  ASN88      -0.2867
    129  CB         5.6680   -0.7550   -8.8790 C.3    88  ASN88       0.1155
    130  CG         4.4800   -1.6020   -8.4580 C.2    88  ASN88       0.2627
    131  OD1        4.4850   -2.2080   -7.3880 O.2    88  ASN88      -0.2716
    132  ND2        3.4500   -1.6420   -9.2990 N.am   88  ASN88      -0.0877
@<TRIPOS>BOND
     1   122   121    2
     2   128   127    2
     3   107   108    2
     4   107   106    1
     5   109   110    1
     6   109   106    1
     7   127   126    1
     8   121   120    1
     9   125   126    1
    10   126   129    1
    11   110   111   ar
    12   110   112   ar
    13   106   105    1
    14   111   113   ar
    15   119   120    1
    16   105    99   am
    17   120   123    1
    18   112   115   ar
    19   112   114   ar
    20   113   114   ar
    21   132   130   am
    22   115   117   ar
    23   123   124    1
    24   114   116   ar
    25   129   130    1
    26   130   131    2
    27    97    98    1
    28    99    98    1
    29    99   100    2
    30   117   118   ar
    31   116   118   ar
    32   101    98    1
    33   101   102    1
    34   103   102    1
    35   102   104    1
    36    78    79   ar
    37    78    76   ar
    38    79    77   ar
    39    92    91    2
    40    95    94    1
    41    76    74   ar
    42    58    56   am
    43    57    56    2
    44    77    75   ar
    45    93    94    1
    46    93    90    1
    47    91    90    1
    48    56    55    1
    49    74    75   ar
    50    74    73    1
    51    94    96    1
    52    90    89    1
    53    73    70    1
    54    83    82    2
    55    55    54    1
    56    54    51    1
    57    82    81    1
    58    70    71    1
    59    70    69    1
    60    71    80   am
    61    71    72    2
    62    80    81    1
    63    69    61   am
    64    87    88    1
    65    87    86    1
    66    85    84    1
    67    85    86    1
    68    51    52    1
    69    51    50    1
    70    81    84    1
    71    53    52    2
    72    62    61    2
    73    52    59   am
    74    61    60    1
    75    59    60    1
    76    60    63    1
    77    46    47    2
    78    46    45    1
    79    45    44    1
    80    45    48    1
    81    63    64    1
    82    12    13    1
    83    48    49    1
    84    64    65   ar
    85    64    66   ar
    86    15    14    2
    87    65    67   ar
    88    66    68   ar
    89    13    14    1
    90    13    16    1
    91    67    68   ar
    92    17    16    1
    93    17    18    1
    94    22    20    1
    95    19    20    2
    96    19    18    1
    97    20    21    1
    98    11     9    1
    99    10     9    1
   100     9     8    2
   101    23    24    1
   102    27    28    1
   103    27    24    1
   104     8     7    1
   105    24    25    1
   106     6     7    1
   107     6     5    1
   108     4     3    2
   109     2     5    1
   110     2     3    1
   111     2     1    1
   112    25    26    2
   113    25    29   am
   114    43    42    1
   115    29    30    1
   116    40    41    2
   117    40    39    1
   118    42    39    1
   119    38    39    1
   120    38    31   am
   121    30    31    1
   122    30    33    1
   123    31    32    2
   124    34    33    1
   125    34    35    1
   126    35    36   ar
   127    35    37   ar
