@<TRIPOS>MOLECULE
tmp/3kflA01.pdb
 111 105 0 0 0
SMALL
GASTEIGER

@<TRIPOS>ATOM
      1  N         31.8440   40.8000  -10.3690 N.3    13  TYR13      -0.1241
      2  CA        31.9730   40.7710  -11.8320 C.3    13  TYR13       0.1605
      3  C         33.1300   39.8540  -12.1940 C.2    13  TYR13       0.2264
      4  O         34.1590   39.8820  -11.5270 O.2    13  TYR13      -0.2867
      5  CB        32.2450   42.1680  -12.3930 C.3    13  TYR13       0.0534
      6  CG        31.0760   43.1520  -12.3550 C.ar   13  TYR13      -0.0201
      7  CD1       29.8540   42.8740  -12.9710 C.ar   13  TYR13      -0.0009
      8  CD2       31.2280   44.3860  -11.7530 C.ar   13  TYR13      -0.0009
      9  CE1       28.8080   43.8050  -12.9400 C.ar   13  TYR13       0.0417
     10  CE2       30.2070   45.3190  -11.7370 C.ar   13  TYR13       0.0417
     11  CZ        29.0110   45.0370  -12.3280 C.ar   13  TYR13       0.1957
     12  OH        28.0230   45.9970  -12.2580 O.3    13  TYR13      -0.2866
     13  N         35.2010   39.8500  -14.7740 N.3    15  ASN15      -0.1240
     14  CA        36.0500   40.4790  -15.7850 C.3    15  ASN15       0.1653
     15  C         37.5320   40.1800  -15.5880 C.2    15  ASN15       0.2266
     16  O         38.3170   40.3970  -16.5000 O.2    15  ASN15      -0.2867
     17  CB        35.8490   42.0150  -15.8180 C.3    15  ASN15       0.1155
     18  CG        36.0690   42.6790  -14.4540 C.2    15  ASN15       0.2627
     19  OD1       35.4010   42.3440  -13.4800 O.2    15  ASN15      -0.2716
     20  ND2       36.9790   43.6370  -14.3950 N.am   15  ASN15      -0.0877
     21  N         40.8420   39.2720   -6.1330 N.3    19  HIS19      -0.1241
     22  CA        41.9270   39.8580   -5.3670 C.3    19  HIS19       0.1621
     23  C         41.5170   40.0150   -3.8910 C.2    19  HIS19       0.2264
     24  O         40.4830   39.4870   -3.4680 O.2    19  HIS19      -0.2867
     25  CB        42.4450   41.1520   -6.0210 C.3    19  HIS19       0.0745
     26  CG        41.4250   42.2380   -6.1470 C.ar   19  HIS19       0.0817
     27  ND1       40.6890   42.6900   -5.0770 N.ar   19  HIS19      -0.2268
     28  CD2       41.0170   42.9600   -7.2190 C.ar   19  HIS19       0.1154
     29  CE1       39.8640   43.6400   -5.4830 C.ar   19  HIS19       0.1986
     30  NE2       40.0460   43.8270   -6.7790 N.ar   19  HIS19      -0.2212
     31  N         37.8480   41.0510   -2.7790 N.3    22  HIS22      -0.1241
     32  CA        36.7780   40.0510   -2.7950 C.3    22  HIS22       0.1621
     33  C         36.9440   39.0190   -1.6700 C.2    22  HIS22       0.2264
     34  O         35.9650   38.5950   -1.0550 O.2    22  HIS22      -0.2867
     35  CB        36.7010   39.3860   -4.1540 C.3    22  HIS22       0.0745
     36  CG        36.8870   40.3460   -5.2760 C.ar   22  HIS22       0.0817
     37  ND1       38.0060   40.3360   -6.0780 N.ar   22  HIS22      -0.2268
     38  CD2       36.1460   41.4080   -5.6690 C.ar   22  HIS22       0.1154
     39  CE1       37.9270   41.3320   -6.9390 C.ar   22  HIS22       0.1986
     40  NE2       36.8050   41.9920   -6.7130 N.ar   22  HIS22      -0.2212
     41  N         30.3710   45.1710  -19.4320 N.3    55  LYS55      -0.1245
     42  CA        31.6880   45.1060  -18.7930 C.3    55  LYS55       0.1561
     43  C         32.2860   43.7060  -18.9260 C.2    55  LYS55       0.2260
     44  O         33.4400   43.5470  -19.3260 O.2    55  LYS55      -0.2867
     45  CB        31.5710   45.4980  -17.3200 C.3    55  LYS55       0.0271
     46  CG        32.8560   45.4420  -16.5010 C.3    55  LYS55       0.0035
     47  CD        32.5240   45.5950  -15.0040 C.3    55  LYS55       0.0206
     48  CE        33.7570   45.4100  -14.1020 C.3    55  LYS55       0.1093
     49  NZ        34.7560   46.5000  -14.3010 N.3    55  LYS55      -0.1314
     50  N         32.6970   50.4490  -16.8010 N.3   129  SER129     -0.1202
     51  CA        33.4460   49.7120  -15.7720 C.3   129  SER129      0.2020
     52  C         32.6490   49.5160  -14.4640 C.2   129  SER129      0.2618
     53  O         32.7990   48.4980  -13.7880 O.2   129  SER129     -0.2717
     54  CB        34.7720   50.3950  -15.4760 C.3   129  SER129      0.2103
     55  OG        35.6170   49.5260  -14.7400 O.3   129  SER129     -0.2182
     56  N         31.7960   50.4850  -14.1350 N.am  130  ASP130     -0.1973
     57  CA        30.9250   50.4270  -12.9410 C.3   130  ASP130      0.1709
     58  C         29.4940   50.0270  -13.2370 C.2   130  ASP130      0.2293
     59  O         28.7030   49.8510  -12.3040 O.2   130  ASP130     -0.2864
     60  CB        30.8840   51.8020  -12.2840 C.3   130  ASP130      0.1436
     61  CG        32.2560   52.3680  -12.0690 C.2   130  ASP130      0.3671
     62  OD1       33.0800   51.6140  -11.5090 O.co2 130  ASP130     -0.2456
     63  OD2       32.5060   53.5410  -12.4670 O.co2 130  ASP130     -0.2456
     64  N         36.6370   56.5370  -13.5440 N.3   158  HIS158     -0.1241
     65  CA        36.6320   55.9010  -14.8720 C.3   158  HIS158      0.1621
     66  C         36.0650   56.7910  -15.9850 C.2   158  HIS158      0.2264
     67  O         35.2660   57.6950  -15.7410 O.2   158  HIS158     -0.2867
     68  CB        35.8750   54.5710  -14.8580 C.3   158  HIS158      0.0745
     69  CG        36.6790   53.4300  -14.3280 C.ar  158  HIS158      0.0817
     70  ND1       37.7800   52.9300  -14.9880 N.ar  158  HIS158     -0.2268
     71  CD2       36.5420   52.6870  -13.2050 C.ar  158  HIS158      0.1154
     72  CE1       38.2960   51.9350  -14.2870 C.ar  158  HIS158      0.1986
     73  NE2       37.5610   51.7630  -13.2040 N.ar  158  HIS158     -0.2212
     74  N         31.8410   51.4150   -2.9600 N.3   280  ASP280     -0.1239
     75  CA        31.7110   51.5540   -4.4100 C.3   280  ASP280      0.1674
     76  C         30.3000   51.2350   -4.9310 C.2   280  ASP280      0.2266
     77  O         29.8870   51.7650   -5.9820 O.2   280  ASP280     -0.2867
     78  CB        32.7570   50.6630   -5.1050 C.3   280  ASP280      0.1410
     79  CG        32.8020   49.2520   -4.5170 C.2   280  ASP280      0.3668
     80  OD1       33.3630   49.0720   -3.4040 O.co2 280  ASP280     -0.2456
     81  OD2       32.2620   48.3330   -5.1580 O.co2 280  ASP280     -0.2456
     82  N         42.5080   52.3550   -4.6080 N.3   316  LYS316     -0.1245
     83  CA        41.7120   51.1420   -4.4740 C.3   316  LYS316      0.1561
     84  C         42.3360   49.9940   -5.2760 C.2   316  LYS316      0.2260
     85  O         42.5900   50.1370   -6.4770 O.2   316  LYS316     -0.2867
     86  CB        40.2960   51.4100   -4.9900 C.3   316  LYS316      0.0271
     87  CG        39.3760   50.2100   -4.9570 C.3   316  LYS316      0.0035
     88  CD        38.0320   50.4900   -5.6260 C.3   316  LYS316      0.0206
     89  CE        37.1690   49.2040   -5.6810 C.3   316  LYS316      0.1093
     90  NZ        37.8050   48.1000   -6.5140 N.3   316  LYS316     -0.1314
     91  N         41.9920   47.1200   -7.4290 N.3   318  SER318     -0.1202
     92  CA        40.9130   47.0700   -8.4070 C.3   318  SER318      0.2020
     93  C         41.2710   46.1650   -9.5700 C.2   318  SER318      0.2619
     94  O         42.3820   46.2640  -10.1030 O.2   318  SER318     -0.2717
     95  CB        40.6530   48.4800   -8.9610 C.3   318  SER318      0.2103
     96  OG        40.2820   49.3730   -7.9360 O.3   318  SER318     -0.2182
     97  N         40.3290   45.3040   -9.9730 N.am  319  LYS319     -0.1965
     98  CA        40.5100   44.4430  -11.1550 C.3   319  LYS319      0.1728
     99  C         40.7910   45.3040  -12.3900 C.2   319  LYS319      0.2616
    100  O         41.6620   44.9680  -13.1860 O.2   319  LYS319     -0.2715
    101  CB        39.2700   43.5590  -11.4200 C.3   319  LYS319      0.0311
    102  CG        38.9680   42.4900  -10.3590 C.3   319  LYS319      0.0038
    103  CD        37.9870   41.4110  -10.8670 C.3   319  LYS319      0.0206
    104  CE        36.6100   41.4440  -10.1960 C.3   319  LYS319      0.1093
    105  NZ        35.7760   42.6840  -10.4090 N.3   319  LYS319     -0.1314
    106  N         40.0680   46.4200  -12.5320 N.am  320  SER320     -0.1950
    107  CA        40.2000   47.2900  -13.7110 C.3   320  SER320      0.1924
    108  C         41.5190   48.0570  -13.7570 C.2   320  SER320      0.2314
    109  O         41.8910   48.5570  -14.8060 O.2   320  SER320     -0.2863
    110  CB        39.0230   48.2730  -13.8280 C.3   320  SER320      0.2116
    111  OG        38.9160   49.1270  -12.6980 O.3   320  SER320     -0.2180
@<TRIPOS>BOND
     1    41    42    1
     2    44    43    2
     3    43    42    1
     4    42    45    1
     5    45    46    1
     6    50    51    1
     7    46    47    1
     8    16    15    2
     9    66    67    2
    10    66    65    1
    11    17    14    1
    12    17    18    1
    13    14    15    1
    14    14    13    1
    15    51    54    1
    16    51    52    1
    17    54    55    1
    18    47    48    1
    19    70    69   ar
    20    70    72   ar
    21    65    68    1
    22    65    64    1
    23    68    69    1
    24   109   108    2
    25    52    56   am
    26    52    53    2
    27    18    20   am
    28    18    19    2
    29    69    71   ar
    30    49    48    1
    31    72    73   ar
    32    56    57    1
    33   110   107    1
    34   110   111    1
    35   108   107    1
    36   107   106    1
    37    58    57    1
    38    58    59    2
    39    71    73   ar
    40   100    99    2
    41     7     9   ar
    42     7     6   ar
    43    57    60    1
    44     9    11   ar
    45   106    99   am
    46    63    61   ar
    47     5     6    1
    48     5     2    1
    49    99    98    1
    50     6     8   ar
    51    11    12    1
    52    11    10   ar
    53    60    61    1
    54     3     2    1
    55     3     4    2
    56    61    62   ar
    57     2     1    1
    58     8    10   ar
    59   101    98    1
    60   101   102    1
    61    98    97    1
    62   103   102    1
    63   103   104    1
    64   105   104    1
    65    94    93    2
    66    97    93   am
    67    93    92    1
    68    95    92    1
    69    95    96    1
    70    92    91    1
    71    28    30   ar
    72    28    26   ar
    73    39    40   ar
    74    39    37   ar
    75    30    29   ar
    76    40    38   ar
    77    90    89    1
    78    85    84    2
    79    26    25    1
    80    26    27   ar
    81    21    22    1
    82    37    36   ar
    83    25    22    1
    84    77    76    2
    85    89    88    1
    86    38    36   ar
    87    88    87    1
    88    29    27   ar
    89    22    23    1
    90    84    83    1
    91    36    35    1
    92    81    79   ar
    93    78    79    1
    94    78    75    1
    95    86    87    1
    96    86    83    1
    97    76    75    1
    98    82    83    1
    99    79    80   ar
   100    75    74    1
   101    35    32    1
   102    23    24    2
   103    32    31    1
   104    32    33    1
   105    33    34    2
