@<TRIPOS>MOLECULE
tmp/3kflA00.pdb
 243 243 0 0 0
SMALL
GASTEIGER

@<TRIPOS>ATOM
      1  N         28.6370   40.7690   -2.0240 N.3    10  PRO10      -0.2102
      2  CA        28.2670   41.1240   -3.3810 C.3    10  PRO10       0.1504
      3  C         28.5440   39.9300   -4.3100 C.2    10  PRO10       0.2576
      4  O         29.3810   39.0840   -3.9750 O.2    10  PRO10      -0.2718
      5  CB        29.2250   42.2690   -3.7160 C.3    10  PRO10       0.0282
      6  CG        29.7360   42.7660   -2.4120 C.3    10  PRO10       0.0208
      7  CD        29.8290   41.5130   -1.5930 C.3    10  PRO10       0.0893
      8  N         27.8580   39.8630   -5.4440 N.am   11  ILE11      -0.1966
      9  CA        28.2790   38.9620   -6.5090 C.3    11  ILE11       0.1727
     10  C         29.2400   39.7090   -7.4300 C.2    11  ILE11       0.2616
     11  O         28.9790   40.8250   -7.9010 O.2    11  ILE11      -0.2715
     12  CB        27.1120   38.2750   -7.2470 C.3    11  ILE11       0.0290
     13  CG1       26.0610   39.2850   -7.7250 C.3    11  ILE11       0.0022
     14  CG2       26.4900   37.2410   -6.3400 C.3    11  ILE11       0.0023
     15  CD1       25.1200   38.7030   -8.7630 C.3    11  ILE11       0.0001
     16  N         30.4060   39.1090   -7.5930 N.am   12  TYR12      -0.1960
     17  CA        31.5550   39.7820   -8.1700 C.3    12  TYR12       0.1771
     18  C         31.5220   39.6990   -9.6990 C.2    12  TYR12       0.2619
     19  O         31.1710   38.6690  -10.2630 O.2    12  TYR12      -0.2715
     20  CB        32.8340   39.1540   -7.5910 C.3    12  TYR12       0.0574
     21  CG        32.8360   39.1790   -6.0720 C.ar   12  TYR12      -0.0198
     22  CD1       32.9360   40.3870   -5.3910 C.ar   12  TYR12      -0.0009
     23  CD2       32.6940   38.0140   -5.3270 C.ar   12  TYR12      -0.0009
     24  CE1       32.9030   40.4440   -4.0100 C.ar   12  TYR12       0.0417
     25  CE2       32.6570   38.0550   -3.9340 C.ar   12  TYR12       0.0417
     26  CZ        32.7720   39.2750   -3.2820 C.ar   12  TYR12       0.1957
     27  OH        32.7400   39.3450   -1.9050 O.3    12  TYR12      -0.2866
     28  N         31.8440   40.8000  -10.3690 N.am   13  TYR13      -0.1974
     29  CA        31.9730   40.7710  -11.8320 C.3    13  TYR13       0.1639
     30  C         33.1300   39.8540  -12.1940 C.2    13  TYR13       0.2290
     31  O         34.1590   39.8820  -11.5270 O.2    13  TYR13      -0.2864
     32  CB        32.2450   42.1680  -12.3930 C.3    13  TYR13       0.0560
     33  CG        31.0760   43.1520  -12.3550 C.ar   13  TYR13      -0.0198
     34  CD1       29.8540   42.8740  -12.9710 C.ar   13  TYR13      -0.0009
     35  CD2       31.2280   44.3860  -11.7530 C.ar   13  TYR13      -0.0009
     36  CE1       28.8080   43.8050  -12.9400 C.ar   13  TYR13       0.0417
     37  CE2       30.2070   45.3190  -11.7370 C.ar   13  TYR13       0.0417
     38  CZ        29.0110   45.0370  -12.3280 C.ar   13  TYR13       0.1957
     39  OH        28.0230   45.9970  -12.2580 O.3    13  TYR13      -0.2866
     40  N         40.8420   39.2720   -6.1330 N.3    19  HIS19      -0.1241
     41  CA        41.9270   39.8580   -5.3670 C.3    19  HIS19       0.1621
     42  C         41.5170   40.0150   -3.8910 C.2    19  HIS19       0.2264
     43  O         40.4830   39.4870   -3.4680 O.2    19  HIS19      -0.2867
     44  CB        42.4450   41.1520   -6.0210 C.3    19  HIS19       0.0745
     45  CG        41.4250   42.2380   -6.1470 C.ar   19  HIS19       0.0817
     46  ND1       40.6890   42.6900   -5.0770 N.ar   19  HIS19      -0.2268
     47  CD2       41.0170   42.9600   -7.2190 C.ar   19  HIS19       0.1154
     48  CE1       39.8640   43.6400   -5.4830 C.ar   19  HIS19       0.1986
     49  NE2       40.0460   43.8270   -6.7790 N.ar   19  HIS19      -0.2212
     50  N         40.3220   42.3320   -2.0980 N.3    21  GLY21      -0.1210
     51  CA        39.0320   42.9640   -1.8730 C.3    21  GLY21       0.1956
     52  C         37.8610   42.0030   -1.8530 C.2    21  GLY21       0.2611
     53  O         36.9800   42.1070   -0.9950 O.2    21  GLY21      -0.2717
     54  N         37.8480   41.0510   -2.7790 N.am   22  HIS22      -0.1975
     55  CA        36.7780   40.0510   -2.7950 C.3    22  HIS22       0.1656
     56  C         36.9440   39.0190   -1.6700 C.2    22  HIS22       0.2291
     57  O         35.9650   38.5950   -1.0550 O.2    22  HIS22      -0.2864
     58  CB        36.7010   39.3860   -4.1540 C.3    22  HIS22       0.0771
     59  CG        36.8870   40.3460   -5.2760 C.ar   22  HIS22       0.0820
     60  ND1       38.0060   40.3360   -6.0780 N.ar   22  HIS22      -0.2267
     61  CD2       36.1460   41.4080   -5.6690 C.ar   22  HIS22       0.1154
     62  CE1       37.9270   41.3320   -6.9390 C.ar   22  HIS22       0.1986
     63  NE2       36.8050   41.9920   -6.7130 N.ar   22  HIS22      -0.2212
     64  N         38.2750   39.8360    1.1530 N.3    24  TYR24      -0.1227
     65  CA        37.8660   40.6370    2.3210 C.3    24  TYR24       0.1736
     66  C         36.3440   40.6700    2.5630 C.2    24  TYR24       0.2596
     67  O         35.8930   40.3010    3.6540 O.2    24  TYR24      -0.2718
     68  CB        38.4140   42.0680    2.2050 C.3    24  TYR24       0.0548
     69  CG        37.9920   42.9980    3.3160 C.ar   24  TYR24      -0.0200
     70  CD1       38.4590   42.8230    4.6120 C.ar   24  TYR24      -0.0009
     71  CD2       37.1330   44.0570    3.0630 C.ar   24  TYR24      -0.0009
     72  CE1       38.0890   43.6840    5.6290 C.ar   24  TYR24       0.0417
     73  CE2       36.7550   44.9200    4.0590 C.ar   24  TYR24       0.0417
     74  CZ        37.2420   44.7260    5.3500 C.ar   24  TYR24       0.1957
     75  OH        36.8710   45.5870    6.3430 O.3    24  TYR24      -0.2866
     76  N         35.5550   41.1050    1.5730 N.am   25  SER25      -0.1952
     77  CA        34.0920   41.1130    1.7350 C.3    25  SER25       0.1924
     78  C         33.5430   39.7110    2.0050 C.2    25  SER25       0.2314
     79  O         32.6410   39.5410    2.8210 O.2    25  SER25      -0.2863
     80  CB        33.3750   41.7250    0.5360 C.3    25  SER25       0.2116
     81  OG        33.7880   43.0660    0.3000 O.3    25  SER25      -0.2180
     82  N         28.6890   37.7420  -10.8170 N.3    50  ASP50      -0.1239
     83  CA        27.8080   38.5930  -11.5890 C.3    50  ASP50       0.1674
     84  C         28.3420   38.5220  -13.0280 C.2    50  ASP50       0.2266
     85  O         29.3930   39.0850  -13.3270 O.2    50  ASP50      -0.2867
     86  CB        27.9390   40.0160  -11.0210 C.3    50  ASP50       0.1410
     87  CG        26.8340   40.9650  -11.4840 C.2    50  ASP50       0.3668
     88  OD1       25.9730   40.5610  -12.2850 O.co2  50  ASP50      -0.2456
     89  OD2       26.8510   42.1220  -11.0210 O.co2  50  ASP50      -0.2456
     90  N         30.3710   45.1710  -19.4320 N.3    55  LYS55      -0.1245
     91  CA        31.6880   45.1060  -18.7930 C.3    55  LYS55       0.1561
     92  C         32.2860   43.7060  -18.9260 C.2    55  LYS55       0.2260
     93  O         33.4400   43.5470  -19.3260 O.2    55  LYS55      -0.2867
     94  CB        31.5710   45.4980  -17.3200 C.3    55  LYS55       0.0271
     95  CG        32.8560   45.4420  -16.5010 C.3    55  LYS55       0.0035
     96  CD        32.5240   45.5950  -15.0040 C.3    55  LYS55       0.0206
     97  CE        33.7570   45.4100  -14.1020 C.3    55  LYS55       0.1093
     98  NZ        34.7560   46.5000  -14.3010 N.3    55  LYS55      -0.1314
     99  N         22.4540   45.3730  -13.2500 N.3   237  TRP237     -0.1241
    100  CA        22.2670   45.6320  -11.8110 C.3   237  TRP237      0.1605
    101  C         20.9220   45.1850  -11.2510 C.2   237  TRP237      0.2264
    102  O         20.8580   44.7520  -10.0930 O.2   237  TRP237     -0.2867
    103  CB        22.5470   47.1140  -11.4910 C.3   237  TRP237      0.0550
    104  CG        23.9920   47.3660  -11.1640 C.ar  237  TRP237      0.0003
    105  CD1       24.9300   47.9900  -11.9460 C.ar  237  TRP237      0.0946
    106  CD2       24.6640   47.0020   -9.9500 C.ar  237  TRP237      0.0152
    107  NE1       26.1370   48.0520  -11.2840 N.ar  237  TRP237     -0.2442
    108  CE2       25.9980   47.4570  -10.0540 C.ar  237  TRP237      0.0810
    109  CE3       24.2550   46.3650   -8.7700 C.ar  237  TRP237      0.0012
    110  CZ2       26.9450   47.2480   -9.0380 C.ar  237  TRP237      0.0191
    111  CZ3       25.1940   46.1760   -7.7500 C.ar  237  TRP237      0.0001
    112  CH2       26.5290   46.6160   -7.8980 C.ar  237  TRP237      0.0015
    113  N         21.4440   41.4660  -11.0800 N.3   240  ALA240     -0.1231
    114  CA        22.4530   41.1230  -10.0820 C.3   240  ALA240      0.1694
    115  C         21.8990   41.2470   -8.6630 C.2   240  ALA240      0.2591
    116  O         22.0450   40.3300   -7.8500 O.2   240  ALA240     -0.2718
    117  CB        23.7130   42.0150  -10.2500 C.3   240  ALA240      0.0304
    118  N         21.2260   42.3640   -8.3930 N.am  241  LEU241     -0.1980
    119  CA        20.7270   42.6650   -7.0550 C.3   241  LEU241      0.1596
    120  C         19.7920   41.5320   -6.6040 C.2   241  LEU241      0.2287
    121  O         19.8410   41.0940   -5.4630 O.2   241  LEU241     -0.2864
    122  CB        20.0260   44.0520   -7.0140 C.3   241  LEU241      0.0297
    123  CG        20.9000   45.3220   -6.9030 C.3   241  LEU241      0.0022
    124  CD1       20.1010   46.6300   -7.1170 C.3   241  LEU241      0.0001
    125  CD2       21.6160   45.4200   -5.5290 C.3   241  LEU241      0.0001
    126  N         19.9500   38.4740   -7.0960 N.3   243  ASN243     -0.1225
    127  CA        20.6650   37.2420   -6.7230 C.3   243  ASN243      0.1785
    128  C         20.3820   36.8700   -5.2650 C.2   243  ASN243      0.2597
    129  O         20.3000   35.6970   -4.9200 O.2   243  ASN243     -0.2718
    130  CB        22.1920   37.3690   -6.9570 C.3   243  ASN243      0.1169
    131  CG        22.9610   37.8570   -5.7170 C.2   243  ASN243      0.2627
    132  OD1       23.3930   37.0420   -4.9070 O.2   243  ASN243     -0.2716
    133  ND2       23.1720   39.1890   -5.5910 N.am  243  ASN243     -0.0877
    134  N         20.2410   37.8820   -4.4120 N.am  244  TYR244     -0.1976
    135  CA        20.0060   37.6530   -2.9700 C.3   244  TYR244      0.1639
    136  C         18.6610   36.9360   -2.7470 C.2   244  TYR244      0.2290
    137  O         18.5190   36.0390   -1.8750 O.2   244  TYR244     -0.2864
    138  CB        20.0250   38.9970   -2.2160 C.3   244  TYR244      0.0560
    139  CG        21.2780   39.8340   -2.4190 C.ar  244  TYR244     -0.0198
    140  CD1       22.5350   39.2830   -2.2830 C.ar  244  TYR244     -0.0009
    141  CD2       21.1970   41.1970   -2.7230 C.ar  244  TYR244     -0.0009
    142  CE1       23.6690   40.0390   -2.4520 C.ar  244  TYR244      0.0417
    143  CE2       22.3270   41.9600   -2.8830 C.ar  244  TYR244      0.0417
    144  CZ        23.5610   41.3870   -2.7430 C.ar  244  TYR244      0.1957
    145  OH        24.6870   42.1450   -2.9170 O.3   244  TYR244     -0.2866
    146  N         31.0200   46.8870   -0.5920 N.3   278  GLY278     -0.1225
    147  CA        32.0020   47.9390   -0.5830 C.3   278  GLY278      0.1811
    148  C         31.2550   49.2190   -0.8760 C.2   278  GLY278      0.2280
    149  O         30.1760   49.2080   -1.4740 O.2   278  GLY278     -0.2866
    150  N         31.8410   51.4150   -2.9600 N.3   280  ASP280     -0.1225
    151  CA        31.7110   51.5540   -4.4100 C.3   280  ASP280      0.1805
    152  C         30.3000   51.2350   -4.9310 C.2   280  ASP280      0.2597
    153  O         29.8870   51.7650   -5.9820 O.2   280  ASP280     -0.2718
    154  CB        32.7570   50.6630   -5.1050 C.3   280  ASP280      0.1424
    155  CG        32.8020   49.2520   -4.5170 C.2   280  ASP280      0.3668
    156  OD1       33.3630   49.0720   -3.4040 O.co2 280  ASP280     -0.2456
    157  OD2       32.2620   48.3330   -5.1580 O.co2 280  ASP280     -0.2456
    158  N         29.5630   50.3730   -4.2230 N.am  281  ILE281     -0.1980
    159  CA        28.2250   49.9700   -4.6750 C.3   281  ILE281      0.1595
    160  C         27.1160   50.3030   -3.6710 C.2   281  ILE281      0.2287
    161  O         26.0840   49.6350   -3.5990 O.2   281  ILE281     -0.2864
    162  CB        28.2070   48.4890   -5.1270 C.3   281  ILE281      0.0276
    163  CG1       28.5730   47.5560   -3.9640 C.3   281  ILE281      0.0022
    164  CG2       29.1300   48.3300   -6.3400 C.3   281  ILE281      0.0022
    165  CD1       28.6440   46.0580   -4.3410 C.3   281  ILE281      0.0001
    166  N         22.6760   49.3060   -3.5890 N.3   285  HIS285     -0.1241
    167  CA        22.1190   48.5410   -2.4560 C.3   285  HIS285      0.1621
    168  C         21.2670   49.3560   -1.4780 C.2   285  HIS285      0.2264
    169  O         20.4240   48.8010   -0.7990 O.2   285  HIS285     -0.2867
    170  CB        23.2590   47.8660   -1.6930 C.3   285  HIS285      0.0745
    171  CG        23.8260   46.6800   -2.4030 C.ar  285  HIS285      0.0817
    172  ND1       24.7680   46.7960   -3.4000 N.ar  285  HIS285     -0.2268
    173  CD2       23.5570   45.3580   -2.2810 C.ar  285  HIS285      0.1154
    174  CE1       25.0700   45.5880   -3.8490 C.ar  285  HIS285      0.1986
    175  NE2       24.3430   44.6980   -3.1910 N.ar  285  HIS285     -0.2212
    176  N         31.4840   48.9490    3.5410 N.3   307  HIS307     -0.1226
    177  CA        32.8440   49.1770    4.0330 C.3   307  HIS307      0.1752
    178  C         33.7450   49.8670    3.0190 C.2   307  HIS307      0.2597
    179  O         33.3560   50.0970    1.8610 O.2   307  HIS307     -0.2718
    180  CB        33.4740   47.8340    4.4460 C.3   307  HIS307      0.0759
    181  CG        33.6420   46.8650    3.3230 C.ar  307  HIS307      0.0818
    182  ND1       34.5110   47.0810    2.2790 N.ar  307  HIS307     -0.2268
    183  CD2       33.0950   45.6400    3.1100 C.ar  307  HIS307      0.1154
    184  CE1       34.4810   46.0420    1.4600 C.ar  307  HIS307      0.1986
    185  NE2       33.6210   45.1600    1.9350 N.ar  307  HIS307     -0.2212
    186  N         34.9610   50.1700    3.4670 N.am  308  GLY308     -0.1942
    187  CA        35.9280   50.9410    2.6950 C.3   308  GLY308      0.2014
    188  C         36.8000   50.0400    1.8480 C.2   308  GLY308      0.2639
    189  O         36.4860   48.8490    1.6330 O.2   308  GLY308     -0.2714
    190  N         37.8900   50.6040    1.3550 N.am  309  TRP309     -0.1959
    191  CA        38.7520   49.9020    0.4130 C.3   309  TRP309      0.1771
    192  C         40.1410   49.6420    0.9570 C.2   309  TRP309      0.2619
    193  O         40.7740   50.5140    1.5740 O.2   309  TRP309     -0.2715
    194  CB        38.9280   50.7160   -0.8700 C.3   309  TRP309      0.0590
    195  CG        37.6870   50.9890   -1.6410 C.ar  309  TRP309      0.0006
    196  CD1       36.6490   50.1410   -1.8700 C.ar  309  TRP309      0.0946
    197  CD2       37.3870   52.1940   -2.3450 C.ar  309  TRP309      0.0152
    198  NE1       35.6960   50.7540   -2.6460 N.ar  309  TRP309     -0.2442
    199  CE2       36.1270   52.0210   -2.9530 C.ar  309  TRP309      0.0810
    200  CE3       38.0520   53.4120   -2.5010 C.ar  309  TRP309      0.0012
    201  CZ2       35.5210   53.0180   -3.7170 C.ar  309  TRP309      0.0191
    202  CZ3       37.4460   54.4160   -3.2570 C.ar  309  TRP309      0.0001
    203  CH2       36.2020   54.2170   -3.8570 C.ar  309  TRP309      0.0015
    204  N         40.6200   48.4400    0.6810 N.am  310  TRP310     -0.1974
    205  CA        42.0340   48.1370    0.7660 C.3   310  TRP310      0.1640
    206  C         42.7200   48.7450   -0.4440 C.2   310  TRP310      0.2290
    207  O         42.2860   48.5270   -1.5900 O.2   310  TRP310     -0.2864
    208  CB        42.2500   46.6260    0.8070 C.3   310  TRP310      0.0576
    209  CG        41.8270   46.0570    2.0970 C.ar  310  TRP310      0.0006
    210  CD1       40.6670   45.3850    2.3600 C.ar  310  TRP310      0.0946
    211  CD2       42.5420   46.1270    3.3290 C.ar  310  TRP310      0.0152
    212  NE1       40.6250   45.0230    3.6730 N.ar  310  TRP310     -0.2442
    213  CE2       41.7630   45.4700    4.2970 C.ar  310  TRP310      0.0810
    214  CE3       43.7740   46.6740    3.7070 C.ar  310  TRP310      0.0012
    215  CZ2       42.1730   45.3370    5.6260 C.ar  310  TRP310      0.0191
    216  CZ3       44.1820   46.5470    5.0370 C.ar  310  TRP310      0.0001
    217  CH2       43.3810   45.8840    5.9750 C.ar  310  TRP310      0.0015
    218  N         42.5080   52.3550   -4.6080 N.3   316  LYS316     -0.1231
    219  CA        41.7120   51.1420   -4.4740 C.3   316  LYS316      0.1693
    220  C         42.3360   49.9940   -5.2760 C.2   316  LYS316      0.2591
    221  O         42.5900   50.1370   -6.4770 O.2   316  LYS316     -0.2718
    222  CB        40.2960   51.4100   -4.9900 C.3   316  LYS316      0.0285
    223  CG        39.3760   50.2100   -4.9570 C.3   316  LYS316      0.0035
    224  CD        38.0320   50.4900   -5.6260 C.3   316  LYS316      0.0206
    225  CE        37.1690   49.2040   -5.6810 C.3   316  LYS316      0.1093
    226  NZ        37.8050   48.1000   -6.5140 N.3   316  LYS316     -0.1314
    227  N         42.5960   48.8740   -4.6080 N.am  317  ILE317     -0.1980
    228  CA        42.9880   47.6480   -5.2870 C.3   317  ILE317      0.1595
    229  C         41.7780   47.2540   -6.1210 C.2   317  ILE317      0.2287
    230  O         40.6710   47.1300   -5.5950 O.2   317  ILE317     -0.2864
    231  CB        43.4300   46.5410   -4.2780 C.3   317  ILE317      0.0276
    232  CG1       44.7420   46.9480   -3.6010 C.3   317  ILE317      0.0022
    233  CG2       43.6210   45.1880   -4.9550 C.3   317  ILE317      0.0022
    234  CD1       45.2340   45.9460   -2.5370 C.3   317  ILE317      0.0001
    235  N         40.3290   45.3040   -9.9730 N.3   319  LYS319     -0.1245
    236  CA        40.5100   44.4430  -11.1550 C.3   319  LYS319      0.1561
    237  C         40.7910   45.3040  -12.3900 C.2   319  LYS319      0.2260
    238  O         41.6620   44.9680  -13.1860 O.2   319  LYS319     -0.2867
    239  CB        39.2700   43.5590  -11.4200 C.3   319  LYS319      0.0271
    240  CG        38.9680   42.4900  -10.3590 C.3   319  LYS319      0.0035
    241  CD        37.9870   41.4110  -10.8670 C.3   319  LYS319      0.0206
    242  CE        36.6100   41.4440  -10.1960 C.3   319  LYS319      0.1093
    243  NZ        35.7760   42.6840  -10.4090 N.3   319  LYS319     -0.1314
@<TRIPOS>BOND
     1    90    91    1
     2    93    92    2
     3    92    91    1
     4    91    94    1
     5    94    95    1
     6    95    96    1
     7    96    97    1
     8    98    97    1
     9    85    84    2
    10    99   100    1
    11   238   237    2
    12    84    83    1
    13    34    36   ar
    14    34    33   ar
    15    36    38   ar
    16    32    33    1
    17    32    29    1
    18   237   236    1
    19    33    35   ar
    20    38    39    1
    21    38    37   ar
    22    88    87   ar
    23    30    29    1
    24    30    31    2
    25   105   107   ar
    26   105   104   ar
    27    29    28    1
    28   100   103    1
    29   100   101    1
    30    35    37   ar
    31    83    86    1
    32    83    82    1
    33   103   104    1
    34    87    89   ar
    35    87    86    1
    36   239   236    1
    37   239   240    1
    38   107   108   ar
    39   101   102    2
    40   104   106   ar
    41   236   235    1
    42   113   114    1
    43   241   240    1
    44   241   242    1
    45   243   242    1
    46    28    18   am
    47    19    18    2
    48   117   114    1
    49   114   115    1
    50   108   106   ar
    51   108   110   ar
    52   106   109   ar
    53    18    17    1
    54   110   112   ar
    55   109   111   ar
    56    15    13    1
    57   115   118   am
    58   115   116    2
    59   118   119    1
    60    17    16    1
    61    17    20    1
    62    11    10    2
    63   112   111   ar
    64    13    12    1
    65    16    10   am
    66    20    21    1
    67    10     9    1
    68    12     9    1
    69    12    14    1
    70    47    49   ar
    71    47    45   ar
    72   124   123    1
    73   126   127    1
    74   119   122    1
    75   119   120    1
    76   122   123    1
    77   130   127    1
    78   130   131    1
    79    62    63   ar
    80    62    60   ar
    81   123   125    1
    82    49    48   ar
    83   127   128    1
    84    63    61   ar
    85   120   121    2
    86   226   225    1
    87     9     8    1
    88   221   220    2
    89   164   162    1
    90    45    44    1
    91    45    46   ar
    92    40    41    1
    93   229   230    2
    94   229   228    1
    95    60    59   ar
    96    21    22   ar
    97    21    23   ar
    98    44    41    1
    99   153   152    2
   100   131   133   am
   101   131   132    2
   102   225   224    1
   103    61    59   ar
   104   224   223    1
   105    48    46   ar
   106     8     3   am
   107    22    24   ar
   108    41    42    1
   109    23    25   ar
   110   228   227    1
   111   228   231    1
   112    59    58    1
   113   220   227   am
   114   220   219    1
   115   128   129    2
   116   128   134   am
   117   157   155   ar
   118   162   159    1
   119   162   163    1
   120   154   155    1
   121   154   151    1
   122   222   223    1
   123   222   219    1
   124   233   231    1
   125   152   151    1
   126   152   158   am
   127   159   158    1
   128   159   160    1
   129   218   219    1
   130   155   156   ar
   131   134   135    1
   132   151   150    1
   133   165   163    1
   134     3     4    2
   135     3     2    1
   136   231   232    1
   137    58    55    1
   138    24    26   ar
   139    25    26   ar
   140    42    43    2
   141   203   201   ar
   142   203   202   ar
   143   174   172   ar
   144   174   175   ar
   145   201   199   ar
   146     5     2    1
   147     5     6    1
   148   160   161    2
   149   232   234    1
   150   166   167    1
   151   172   171   ar
   152     2     1    1
   153    26    27    1
   154   202   200   ar
   155   175   173   ar
   156   135   136    1
   157   135   138    1
   158   199   198   ar
   159   199   197   ar
   160   145   144    1
   161   143   144   ar
   162   143   141   ar
   163    55    54    1
   164    55    56    1
   165    54    52   am
   166   136   137    2
   167   144   142   ar
   168   141   139   ar
   169   198   196   ar
   170   200   197   ar
   171   167   170    1
   172   167   168    1
   173   142   140   ar
   174   139   140   ar
   175   139   138    1
   176     6     7    1
   177   171   173   ar
   178   171   170    1
   179   197   195   ar
   180    50    51    1
   181     1     7    1
   182    51    52    1
   183   196   195   ar
   184    52    53    2
   185    56    57    2
   186   195   194    1
   187   207   206    2
   188   168   169    2
   189   149   148    2
   190   148   147    1
   191   194   191    1
   192   146   147    1
   193   206   205    1
   194    81    80    1
   195   191   192    1
   196   191   190    1
   197    80    77    1
   198   204   205    1
   199   204   192   am
   200   205   208    1
   201   208   209    1
   202   192   193    2
   203    64    65    1
   204   190   188   am
   205   184   185   ar
   206   184   182   ar
   207    76    77    1
   208    76    66   am
   209   189   188    2
   210    77    78    1
   211   188   187    1
   212   179   178    2
   213   185   183   ar
   214    78    79    2
   215   209   210   ar
   216   209   211   ar
   217    68    65    1
   218    68    69    1
   219   182   181   ar
   220    65    66    1
   221   210   212   ar
   222    66    67    2
   223   187   186    1
   224   178   186   am
   225   178   177    1
   226    71    69   ar
   227    71    73   ar
   228   183   181   ar
   229    69    70   ar
   230   181   180    1
   231   211   214   ar
   232   211   213   ar
   233   176   177    1
   234   212   213   ar
   235   214   216   ar
   236   177   180    1
   237    73    74   ar
   238   213   215   ar
   239    70    72   ar
   240   216   217   ar
   241    74    72   ar
   242    74    75    1
   243   215   217   ar
