@<TRIPOS>MOLECULE
tmp/3kfnB00.pdb
 129 121 0 0 0
SMALL
GASTEIGER

@<TRIPOS>ATOM
      1  N          8.8460    9.0860   24.3710 N.3     8  ARG8       -0.1245
      2  CA         9.7280   10.3170   24.4850 C.3     8  ARG8        0.1563
      3  C         10.6120   10.1720   25.7190 C.2     8  ARG8        0.2260
      4  O         10.1650    9.6340   26.7530 O.2     8  ARG8       -0.2867
      5  CB         8.8180   11.5520   24.6240 C.3     8  ARG8        0.0307
      6  CG         7.9700   11.7980   23.4260 C.3     8  ARG8        0.0489
      7  CD         7.1650   13.1020   23.6820 C.3     8  ARG8        0.2205
      8  NE         6.4980   13.4820   22.4550 N.pl3   8  ARG8       -0.0865
      9  CZ         5.2610   13.9740   22.3730 C.cat   8  ARG8        0.5346
     10  NH1        4.5210   14.1960   23.4620 N.pl3   8  ARG8        0.1354
     11  NH2        4.7450   14.2660   21.1750 N.pl3   8  ARG8        0.1354
     12  N         12.3690   17.0370   28.3370 N.3    23  LEU23      -0.1245
     13  CA        12.7250   16.1460   27.2240 C.3    23  LEU23       0.1561
     14  C         14.2110   16.1910   27.0270 C.2    23  LEU23       0.2260
     15  O         14.8130   17.3090   26.8690 O.2    23  LEU23      -0.2867
     16  CB        11.9360   16.6130   25.9750 C.3    23  LEU23       0.0270
     17  CG        11.9720   15.8610   24.6450 C.3    23  LEU23       0.0019
     18  CD1       11.3230   14.4720   24.7350 C.3    23  LEU23       0.0001
     19  CD2       11.2470   16.7030   23.4710 C.3    23  LEU23       0.0001
     20  N         17.0040   16.0200   24.7030 N.3    25  ASP25      -0.1239
     21  CA        16.8430   16.3520   23.2980 C.3    25  ASP25       0.1674
     22  C         18.1810   16.5880   22.6100 C.2    25  ASP25       0.2266
     23  O         18.7950   17.6770   22.6930 O.2    25  ASP25      -0.2867
     24  CB        15.8700   17.5350   23.1420 C.3    25  ASP25       0.1410
     25  CG        15.5940   17.8580   21.7220 C.2    25  ASP25       0.3668
     26  OD1       16.0080   17.1230   20.8000 O.co2  25  ASP25      -0.2456
     27  OD2       14.9800   18.8900   21.5030 O.co2  25  ASP25      -0.2456
     28  N         18.6560   16.9490   19.5200 N.3    27  GLY27      -0.1210
     29  CA        18.5010   17.8860   18.4180 C.3    27  GLY27       0.1956
     30  C         18.3130   19.3510   18.8260 C.2    27  GLY27       0.2612
     31  O         17.8450   20.1820   18.0030 O.2    27  GLY27      -0.2717
     32  N         18.6650   19.6610   20.0680 N.am   28  ALA28      -0.1965
     33  CA        18.6210   21.0360   20.5770 C.3    28  ALA28       0.1728
     34  C         20.0160   21.4540   21.0200 C.2    28  ALA28       0.2616
     35  O         20.6220   20.7880   21.8690 O.2    28  ALA28      -0.2715
     36  CB        17.5580   21.1780   21.6850 C.3    28  ALA28       0.0334
     37  N         20.5640   22.5000   20.3910 N.am   29  ASP29      -0.1957
     38  CA        21.8460   23.0970   20.8680 C.3    29  ASP29       0.1840
     39  C         21.7260   23.6080   22.3160 C.2    29  ASP29       0.2622
     40  O         22.6350   23.4860   23.0790 O.2    29  ASP29      -0.2715
     41  CB        22.2860   24.2870   19.9720 C.3    29  ASP29       0.1450
     42  CG        22.3690   23.9480   18.4500 C.2    29  ASP29       0.3671
     43  OD1       22.3220   22.7310   17.9980 O.co2  29  ASP29      -0.2456
     44  OD2       22.4460   24.9620   17.6980 O.co2  29  ASP29      -0.2456
     45  N         20.5610   24.1720   22.6640 N.am   30  ASP30      -0.1971
     46  CA        20.3690   24.8680   23.9230 C.3    30  ASP30       0.1709
     47  C         19.2210   24.2010   24.7410 C.2    30  ASP30       0.2293
     48  O         18.4970   23.3680   24.2310 O.2    30  ASP30      -0.2864
     49  CB        19.8950   26.3480   23.6100 C.3    30  ASP30       0.1436
     50  CG        20.7880   27.0520   22.4760 C.2    30  ASP30       0.3671
     51  OD1       22.0020   27.1650   22.6900 O.co2  30  ASP30      -0.2456
     52  OD2       20.3260   27.3970   21.3440 O.co2  30  ASP30      -0.2456
     53  N         15.7220   24.8740   26.6770 N.3    32  VAL32      -0.1245
     54  CA        14.7080   25.8780   26.6510 C.3    32  VAL32       0.1561
     55  C         13.5680   25.4090   27.5520 C.2    32  VAL32       0.2260
     56  O         12.9870   24.3440   27.3250 O.2    32  VAL32      -0.2867
     57  CB        14.0300   26.0540   25.2470 C.3    32  VAL32       0.0252
     58  CG1       13.2880   27.4170   25.2820 C.3    32  VAL32       0.0019
     59  CG2       15.0680   26.0090   24.1070 C.3    32  VAL32       0.0019
     60  N         17.6610   36.2850   22.9170 N.3    45  LYS45      -0.1245
     61  CA        18.2310   35.2870   22.0550 C.3    45  LYS45       0.1561
     62  C         17.1040   34.8430   21.1660 C.2    45  LYS45       0.2260
     63  O         15.9640   34.8810   21.5930 O.2    45  LYS45      -0.2867
     64  CB        18.9100   34.0790   22.8070 C.3    45  LYS45       0.0271
     65  CG        19.5380   33.0700   21.8230 C.3    45  LYS45       0.0035
     66  CD        20.6380   32.1770   22.3600 C.3    45  LYS45       0.0206
     67  CE        21.0900   31.1700   21.3150 C.3    45  LYS45       0.1093
     68  NZ        22.3630   31.5340   20.7200 N.3    45  LYS45      -0.1314
     69  N         15.8540   31.6570   18.6850 N.3    47  ILE47      -0.1231
     70  CA        16.2080   30.2740   18.3260 C.3    47  ILE47       0.1692
     71  C         15.2720   29.8140   17.2720 C.2    47  ILE47       0.2593
     72  O         14.1130   30.2270   17.2510 O.2    47  ILE47      -0.2718
     73  CB        16.1780   29.2790   19.4970 C.3    47  ILE47       0.0266
     74  CG1       14.8960   29.3920   20.2950 C.3    47  ILE47       0.0019
     75  CG2       17.4340   29.4810   20.3850 C.3    47  ILE47       0.0020
     76  CD1       14.5370   28.1620   21.2650 C.3    47  ILE47       0.0001
     77  N         15.7610   28.9410   16.4040 N.am   48  GLY48      -0.1942
     78  CA        14.9770   28.4730   15.2940 C.3    48  GLY48       0.2014
     79  C         14.6400   27.0190   15.4920 C.2    48  GLY48       0.2639
     80  O         15.4180   26.2630   16.0750 O.2    48  GLY48      -0.2714
     81  N         13.4800   26.6280   14.9950 N.am   49  GLY49      -0.1939
     82  CA        13.0590   25.2370   15.0780 C.3    49  GLY49       0.2014
     83  C         12.2600   24.9610   13.8320 C.2    49  GLY49       0.2638
     84  O         12.3680   25.7060   12.8140 O.2    49  GLY49      -0.2714
     85  N         11.4440   23.9190   13.8940 N.am   50  ILE50      -0.1977
     86  CA        10.7690   23.4370   12.7240 C.3    50  ILE50       0.1596
     87  C          9.8460   24.4710   12.1150 C.2    50  ILE50       0.2287
     88  O          9.7240   24.5490   10.8940 O.2    50  ILE50      -0.2864
     89  CB         9.9770   22.1170   13.0520 C.3    50  ILE50       0.0276
     90  CG1        9.7610   21.2810   11.7860 C.3    50  ILE50       0.0022
     91  CG2        8.6760   22.4310   13.6760 C.3    50  ILE50       0.0022
     92  CD1       11.0690   20.9560   11.0180 C.3    50  ILE50       0.0001
     93  N          9.9290   27.7920   12.4180 N.3    52  GLY52      -0.1210
     94  CA        10.4340   29.1810   12.3780 C.3    52  GLY52       0.1956
     95  C         11.1570   29.5730   13.6540 C.2    52  GLY52       0.2611
     96  O         11.7440   28.7300   14.3170 O.2    52  GLY52      -0.2717
     97  N         11.0990   30.8610   13.9890 N.am   53  PHE53      -0.1976
     98  CA        11.9230   31.4330   15.0440 C.3    53  PHE53       0.1639
     99  C         11.1070   31.9950   16.1520 C.2    53  PHE53       0.2290
    100  O         10.0160   32.5020   15.9370 O.2    53  PHE53      -0.2864
    101  CB        12.8050   32.5300   14.4700 C.3    53  PHE53       0.0560
    102  CG        13.8910   32.0250   13.6250 C.ar   53  PHE53      -0.0200
    103  CD1       13.6560   31.7040   12.3030 C.ar   53  PHE53      -0.0042
    104  CD2       15.1530   31.8680   14.1230 C.ar   53  PHE53      -0.0042
    105  CE1       14.6700   31.2260   11.5030 C.ar   53  PHE53      -0.0003
    106  CE2       16.1700   31.3750   13.3000 C.ar   53  PHE53      -0.0003
    107  CZ        15.9110   31.0670   12.0030 C.ar   53  PHE53      -0.0000
    108  N          6.6460   24.7900   23.9390 N.3    81  PRO81      -0.2102
    109  CA         5.6030   23.8990   24.5190 C.3    81  PRO81       0.1504
    110  C          6.0810   22.8300   25.5130 C.2    81  PRO81       0.2575
    111  O          5.3000   22.2460   26.2970 O.2    81  PRO81      -0.2718
    112  CB         5.0160   23.1820   23.2970 C.3    81  PRO81       0.0282
    113  CG         5.9090   23.4100   22.1720 C.3    81  PRO81       0.0208
    114  CD         6.9880   24.4500   22.5480 C.3    81  PRO81       0.0893
    115  N          7.3690   22.5360   25.4880 N.am   82  VAL82      -0.1980
    116  CA         7.8550   21.4690   26.3280 C.3    82  VAL82       0.1595
    117  C          9.1920   21.9270   26.8340 C.2    82  VAL82       0.2287
    118  O          9.9210   22.5900   26.1190 O.2    82  VAL82      -0.2864
    119  CB         7.9610   20.1010   25.5510 C.3    82  VAL82       0.0276
    120  CG1        9.0830   20.1390   24.6040 C.3    82  VAL82       0.0022
    121  CG2        8.1250   18.9240   26.5160 C.3    82  VAL82       0.0022
    122  N         12.8940   21.5190   27.4010 N.3    84  ILE84      -0.1245
    123  CA        13.7850   20.8130   26.5250 C.3    84  ILE84       0.1561
    124  C         15.1520   20.9450   27.1710 C.2    84  ILE84       0.2260
    125  O         15.6370   22.0740   27.4160 O.2    84  ILE84      -0.2867
    126  CB        13.8400   21.4530   25.0780 C.3    84  ILE84       0.0252
    127  CG1       12.5540   21.1130   24.3110 C.3    84  ILE84       0.0019
    128  CG2       15.1540   20.9590   24.2840 C.3    84  ILE84       0.0019
    129  CD1       12.1270   22.2080   23.3730 C.3    84  ILE84       0.0001
@<TRIPOS>BOND
     1    88    87    2
     2    92    90    1
     3   105   107   ar
     4   105   103   ar
     5    90    89    1
     6   107   106   ar
     7    87    86    1
     8   103   102   ar
     9    94    93    1
    10    94    95    1
    11    86    89    1
    12    86    85    1
    13    84    83    2
    14    89    91    1
    15   106   104   ar
    16   102   104   ar
    17   102   101    1
    18    95    97   am
    19    95    96    2
    20    83    85   am
    21    83    82    1
    22    97    98    1
    23   101    98    1
    24    81    82    1
    25    81    79   am
    26    98    99    1
    27    78    79    1
    28    78    77    1
    29    79    80    2
    30   100    99    2
    31    77    71   am
    32    72    71    2
    33    71    70    1
    34    44    42   ar
    35    43    42   ar
    36    31    30    2
    37    70    69    1
    38    70    73    1
    39    29    30    1
    40    29    28    1
    41    42    41    1
    42    30    32   am
    43    73    74    1
    44    73    75    1
    45    41    38    1
    46    32    33    1
    47    74    76    1
    48    37    38    1
    49    37    34   am
    50    33    34    1
    51    33    36    1
    52    68    67    1
    53    26    25   ar
    54    38    39    1
    55    34    35    2
    56    62    63    2
    57    62    61    1
    58    11     9    1
    59    67    66    1
    60    52    50   ar
    61    27    25   ar
    62    25    24    1
    63    65    66    1
    64    65    64    1
    65    61    64    1
    66    61    60    1
    67   113   114    1
    68   113   112    1
    69    39    45   am
    70    39    40    2
    71     9     8    2
    72     9    10    1
    73     8     7    1
    74    50    51   ar
    75    50    49    1
    76   114   108    1
    77    22    23    2
    78    22    21    1
    79    45    46    1
    80    24    21    1
    81   112   109    1
    82    21    20    1
    83   129   127    1
    84     6     7    1
    85     6     5    1
    86    19    17    1
    87    49    46    1
    88    46    47    1
    89   108   109    1
    90    59    57    1
    91    48    47    2
    92   128   126    1
    93   127   126    1
    94     1     2    1
    95     2     5    1
    96     2     3    1
    97   109   110    1
    98   120   119    1
    99    17    18    1
   100    17    16    1
   101   126   123    1
   102    57    58    1
   103    57    54    1
   104   115   110   am
   105   115   116    1
   106   110   111    2
   107   119   116    1
   108   119   121    1
   109     3     4    2
   110    16    13    1
   111   118   117    2
   112   116   117    1
   113   123   124    1
   114   123   122    1
   115    54    53    1
   116    54    55    1
   117    15    14    2
   118    14    13    1
   119   124   125    2
   120    13    12    1
   121    56    55    2
