@<TRIPOS>MOLECULE
tmp/3kftB02.pdb
 177 172 0 0 0
SMALL
GASTEIGER

@<TRIPOS>ATOM
      1  N         -4.0580   22.8210  -65.4380 N.3    22  PRO22      -0.2116
      2  CA        -2.7580   22.1680  -65.3190 C.3    22  PRO22       0.1372
      3  C         -2.7660   21.2410  -64.0870 C.2    22  PRO22       0.2244
      4  O         -3.1730   21.6430  -62.9770 O.2    22  PRO22      -0.2868
      5  CB        -1.7940   23.3250  -65.0950 C.3    22  PRO22       0.0268
      6  CG        -2.5680   24.4580  -64.6810 C.3    22  PRO22       0.0207
      7  CD        -4.0440   24.1920  -64.9190 C.3    22  PRO22       0.0892
      8  N         -0.1810   18.5550  -62.1450 N.3    24  THR24      -0.1218
      9  CA         1.0700   17.8180  -61.9030 C.3    24  THR24       0.1862
     10  C          0.8200   16.3390  -61.5490 C.2    24  THR24       0.2287
     11  O          0.1620   16.0710  -60.5740 O.2    24  THR24      -0.2866
     12  CB         1.8040   18.4420  -60.6950 C.3    24  THR24       0.1770
     13  OG1        2.2390   19.7760  -61.0090 O.3    24  THR24      -0.2211
     14  CG2        2.9820   17.5840  -60.2830 C.3    24  THR24       0.0375
     15  N          2.4860   21.4120  -64.9330 N.3    56  ALA56      -0.1245
     16  CA         3.6980   22.2260  -64.8340 C.3    56  ALA56       0.1562
     17  C          4.9320   21.5130  -65.3990 C.2    56  ALA56       0.2260
     18  O          5.1810   20.3590  -65.0750 O.2    56  ALA56      -0.2867
     19  CB         3.9740   22.6540  -63.3580 C.3    56  ALA56       0.0290
     20  N         10.2390   18.6980  -58.2110 N.3    66  TYR66      -0.1241
     21  CA         9.5270   17.4610  -57.9210 C.3    66  TYR66       0.1605
     22  C         10.1060   16.3890  -58.8010 C.2    66  TYR66       0.2264
     23  O         10.2620   16.6080  -59.9910 O.2    66  TYR66      -0.2867
     24  CB         8.0450   17.5930  -58.2900 C.3    66  TYR66       0.0534
     25  CG         7.2850   18.6300  -57.5090 C.ar   66  TYR66      -0.0201
     26  CD1        6.2700   18.2520  -56.6240 C.ar   66  TYR66      -0.0009
     27  CD2        7.5650   19.9860  -57.6430 C.ar   66  TYR66      -0.0009
     28  CE1        5.5550   19.1880  -55.8870 C.ar   66  TYR66       0.0417
     29  CE2        6.8410   20.9460  -56.8940 C.ar   66  TYR66       0.0417
     30  CZ         5.8210   20.5350  -56.0240 C.ar   66  TYR66       0.1957
     31  OH         5.1060   21.4480  -55.2470 O.3    66  TYR66      -0.2866
     32  N          2.0460   24.5280  -69.6020 N.3    98  GLN98      -0.1245
     33  CA         2.3540   25.3860  -68.4450 C.3    98  GLN98       0.1566
     34  C          3.8460   25.2970  -68.1130 C.2    98  GLN98       0.2260
     35  O          4.3980   24.1930  -67.9600 O.2    98  GLN98      -0.2867
     36  CB         1.5440   24.9860  -67.1920 C.3    98  GLN98       0.0367
     37  CG         1.7010   26.0390  -66.0910 C.3    98  GLN98       0.0905
     38  CD         1.1540   25.6310  -64.7180 C.2    98  GLN98       0.2608
     39  OE1        1.5920   24.6710  -64.1380 O.2    98  GLN98      -0.2717
     40  NE2        0.2400   26.3980  -64.2010 N.am   98  GLN98      -0.0878
     41  N          6.9920   26.3460  -65.5150 N.3   100  TRP100     -0.1241
     42  CA         7.3910   26.9000  -64.2140 C.3   100  TRP100      0.1605
     43  C          8.8600   26.8070  -63.9530 C.2   100  TRP100      0.2264
     44  O          9.6260   26.1090  -64.6490 O.2   100  TRP100     -0.2867
     45  CB         6.7060   26.1760  -63.0200 C.3   100  TRP100      0.0550
     46  CG         7.0380   24.6980  -62.8700 C.ar  100  TRP100      0.0003
     47  CD1        7.8050   23.9410  -63.6990 C.ar  100  TRP100      0.0946
     48  CD2        6.5180   23.7900  -61.8610 C.ar  100  TRP100      0.0152
     49  NE1        7.8010   22.6170  -63.2880 N.ar  100  TRP100     -0.2442
     50  CE2        7.0370   22.5020  -62.1510 C.ar  100  TRP100      0.0810
     51  CE3        5.6550   23.9500  -60.7510 C.ar  100  TRP100      0.0012
     52  CZ2        6.7280   21.3610  -61.3700 C.ar  100  TRP100      0.0191
     53  CZ3        5.3540   22.8250  -59.9660 C.ar  100  TRP100      0.0001
     54  CH2        5.8830   21.5500  -60.2860 C.ar  100  TRP100      0.0015
     55  N          7.4030   12.1330  -49.8410 N.3   140  ARG140     -0.1245
     56  CA         7.3500   13.5350  -49.4770 C.3   140  ARG140      0.1563
     57  C          8.5210   13.9330  -48.5960 C.2   140  ARG140      0.2260
     58  O          9.0320   13.1250  -47.8410 O.2   140  ARG140     -0.2867
     59  CB         6.0040   13.8440  -48.8280 C.3   140  ARG140      0.0307
     60  CG         4.8340   13.4180  -49.7450 C.3   140  ARG140      0.0489
     61  CD         4.5630   14.4610  -50.8300 C.3   140  ARG140      0.2205
     62  NE         4.2430   15.7650  -50.2510 N.pl3 140  ARG140     -0.0865
     63  CZ         3.9730   16.8490  -50.9760 C.cat 140  ARG140      0.5346
     64  NH1        4.0180   16.7950  -52.3160 N.pl3 140  ARG140      0.1354
     65  NH2        3.6740   17.9930  -50.3710 N.pl3 140  ARG140      0.1354
     66  N          3.5000   29.8470  -65.2310 N.3   179  HIS179     -0.1241
     67  CA         3.1370   29.5410  -63.8460 C.3   179  HIS179      0.1621
     68  C          3.6340   30.6420  -62.9160 C.2   179  HIS179      0.2264
     69  O          4.7810   30.6220  -62.4680 O.2   179  HIS179     -0.2867
     70  CB         3.7040   28.1870  -63.3800 C.3   179  HIS179      0.0745
     71  CG         2.9180   27.5950  -62.2450 C.ar  179  HIS179      0.0817
     72  ND1        2.2180   28.3890  -61.3470 N.ar  179  HIS179     -0.2268
     73  CD2        2.6940   26.3070  -61.8780 C.ar  179  HIS179      0.1154
     74  CE1        1.5950   27.6040  -60.4810 C.ar  179  HIS179      0.1986
     75  NE2        1.8660   26.3420  -60.7860 N.ar  179  HIS179     -0.2212
     76  N          0.7870   29.7650  -57.0040 N.3   182  HIS182     -0.1241
     77  CA         0.9890   28.6110  -56.1330 C.3   182  HIS182      0.1621
     78  C          2.3170   28.5430  -55.3810 C.2   182  HIS182      0.2264
     79  O          2.7760   27.4560  -55.0010 O.2   182  HIS182     -0.2867
     80  CB         0.7420   27.3130  -56.9050 C.3   182  HIS182      0.0745
     81  CG        -0.6590   27.2070  -57.4000 C.ar  182  HIS182      0.0817
     82  ND1       -1.0560   26.2760  -58.3300 N.ar  182  HIS182     -0.2268
     83  CD2       -1.7520   27.9490  -57.1180 C.ar  182  HIS182      0.1154
     84  CE1       -2.3470   26.4130  -58.5540 C.ar  182  HIS182      0.1986
     85  NE2       -2.7870   27.4370  -57.8510 N.ar  182  HIS182     -0.2212
     86  N          5.3570   29.2100  -56.4400 N.3   184  TYR184     -0.1241
     87  CA         6.5500   28.8560  -57.1820 C.3   184  TYR184      0.1605
     88  C          7.3250   30.1340  -57.4140 C.2   184  TYR184      0.2264
     89  O          6.9290   31.1680  -56.8570 O.2   184  TYR184     -0.2867
     90  CB         6.1860   28.0510  -58.4290 C.3   184  TYR184      0.0534
     91  CG         5.5400   26.7610  -57.9490 C.ar  184  TYR184     -0.0201
     92  CD1        6.2890   25.8110  -57.2730 C.ar  184  TYR184     -0.0009
     93  CD2        4.1790   26.5280  -58.0970 C.ar  184  TYR184     -0.0009
     94  CE1        5.7050   24.6440  -56.7840 C.ar  184  TYR184      0.0417
     95  CE2        3.5870   25.3580  -57.6310 C.ar  184  TYR184      0.0417
     96  CZ         4.3500   24.4240  -56.9740 C.ar  184  TYR184      0.1957
     97  OH         3.7860   23.2670  -56.5120 O.3   184  TYR184     -0.2866
     98  N         -0.7610   32.0990  -65.3920 N.3   231  ARG231     -0.1245
     99  CA        -1.5450   31.6960  -64.2320 C.3   231  ARG231      0.1563
    100  C         -1.0950   32.3840  -62.9250 C.2   231  ARG231      0.2260
    101  O          0.0830   32.4220  -62.5940 O.2   231  ARG231     -0.2867
    102  CB        -1.5360   30.1760  -64.0730 C.3   231  ARG231      0.0307
    103  CG        -2.6360   29.7470  -63.1640 C.3   231  ARG231      0.0489
    104  CD        -2.8060   28.2680  -63.1700 C.3   231  ARG231      0.2205
    105  NE        -4.2080   27.9240  -62.9660 N.pl3 231  ARG231     -0.0865
    106  CZ        -4.6470   26.8510  -62.3140 C.cat 231  ARG231      0.5346
    107  NH1       -3.7920   26.0220  -61.7340 N.pl3 231  ARG231      0.1354
    108  NH2       -5.9480   26.5900  -62.2660 N.pl3 231  ARG231      0.1354
    109  N         -1.2520   30.2330  -50.6460 N.3   238  PHE238     -0.1227
    110  CA        -1.0570   29.0190  -51.4220 C.3   238  PHE238      0.1736
    111  C          0.2920   28.4490  -51.0470 C.2   238  PHE238      0.2595
    112  O          1.3140   29.1180  -51.2140 O.2   238  PHE238     -0.2718
    113  CB        -1.1490   29.3270  -52.9440 C.3   238  PHE238      0.0547
    114  CG        -2.5140   29.7970  -53.3730 C.ar  238  PHE238     -0.0202
    115  CD1       -2.8980   31.1210  -53.2000 C.ar  238  PHE238     -0.0042
    116  CD2       -3.4290   28.9070  -53.8980 C.ar  238  PHE238     -0.0042
    117  CE1       -4.1620   31.5470  -53.5770 C.ar  238  PHE238     -0.0003
    118  CE2       -4.6810   29.3250  -54.2520 C.ar  238  PHE238     -0.0003
    119  CZ        -5.0540   30.6430  -54.0950 C.ar  238  PHE238     -0.0000
    120  N          0.3010   27.2280  -50.5170 N.am  239  GLN239     -0.1979
    121  CA         1.5560   26.5750  -50.1240 C.3   239  GLN239      0.1601
    122  C          2.4100   27.5040  -49.3410 C.2   239  GLN239      0.2287
    123  O          3.5800   27.7590  -49.6800 O.2   239  GLN239     -0.2864
    124  CB         2.2950   26.0940  -51.3610 C.3   239  GLN239      0.0394
    125  CG         1.3540   25.2700  -52.1990 C.3   239  GLN239      0.0908
    126  CD         2.0610   24.2880  -53.0490 C.2   239  GLN239      0.2608
    127  OE1        2.2740   24.5340  -54.2440 O.2   239  GLN239     -0.2717
    128  NE2        2.4240   23.1450  -52.4630 N.am  239  GLN239     -0.0878
    129  N         -8.7260   29.3380  -55.3760 N.3   271  THR271     -0.1203
    130  CA        -8.6350   28.7490  -54.0330 C.3   271  THR271      0.1994
    131  C         -7.6230   27.6270  -53.8700 C.2   271  THR271      0.2617
    132  O         -7.4360   26.8030  -54.7880 O.2   271  THR271     -0.2717
    133  CB        -9.9610   28.1390  -53.5880 C.3   271  THR271      0.1784
    134  OG1       -9.7540   27.4720  -52.3370 O.3   271  THR271     -0.2211
    135  CG2      -10.4290   27.1200  -54.5970 C.3   271  THR271      0.0376
    136  N         -7.0160   27.5940  -52.6780 N.am  272  ASP272     -0.1973
    137  CA        -6.1060   26.5260  -52.2310 C.3   272  ASP272      0.1709
    138  C         -6.8130   25.1620  -52.3040 C.2   272  ASP272      0.2293
    139  O         -6.8630   24.5210  -53.3630 O.2   272  ASP272     -0.2864
    140  CB        -5.6060   26.7950  -50.7740 C.3   272  ASP272      0.1436
    141  CG        -4.1200   26.3530  -50.5410 C.2   272  ASP272      0.3671
    142  OD1       -3.3920   26.0910  -51.5350 O.co2 272  ASP272     -0.2456
    143  OD2       -3.6670   26.2810  -49.3660 O.co2 272  ASP272     -0.2456
    144  N         -9.5280   18.3470  -60.7680 N.3   318  ARG318     -0.1245
    145  CA        -9.7440   16.9650  -60.3300 C.3   318  ARG318      0.1563
    146  C        -10.8440   16.2380  -61.0970 C.2   318  ARG318      0.2260
    147  O        -10.7010   15.0700  -61.3970 O.2   318  ARG318     -0.2867
    148  CB        -9.9660   16.9320  -58.8090 C.3   318  ARG318      0.0307
    149  CG        -8.8100   17.6270  -58.0730 C.3   318  ARG318      0.0489
    150  CD        -8.9030   17.5280  -56.5840 C.3   318  ARG318      0.2205
    151  NE        -9.9920   18.3180  -56.0580 N.pl3 318  ARG318     -0.0865
    152  CZ        -9.9030   19.6100  -55.7740 C.cat 318  ARG318      0.5346
    153  NH1       -8.7640   20.2620  -55.9950 N.pl3 318  ARG318      0.1354
    154  NH2      -10.9570   20.2460  -55.2730 N.pl3 318  ARG318      0.1354
    155  N         -3.2220   10.4700  -57.6030 N.3   344  PHE344     -0.1227
    156  CA        -2.9680   11.7390  -58.2700 C.3   344  PHE344      0.1736
    157  C         -1.4700   11.8520  -58.6240 C.2   344  PHE344      0.2595
    158  O         -1.1230   12.1640  -59.7640 O.2   344  PHE344     -0.2718
    159  CB        -3.4150   12.9000  -57.3970 C.3   344  PHE344      0.0547
    160  CG        -4.9120   13.0920  -57.3400 C.ar  344  PHE344     -0.0202
    161  CD1       -5.7610   12.2420  -58.0120 C.ar  344  PHE344     -0.0042
    162  CD2       -5.4610   14.0800  -56.5450 C.ar  344  PHE344     -0.0042
    163  CE1       -7.1200   12.4130  -57.9390 C.ar  344  PHE344     -0.0003
    164  CE2       -6.8350   14.2580  -56.4840 C.ar  344  PHE344     -0.0003
    165  CZ        -7.6570   13.4180  -57.1880 C.ar  344  PHE344     -0.0000
    166  N         -0.5930   11.5470  -57.6570 N.am  345  TYR345     -0.1976
    167  CA         0.8620   11.6930  -57.8100 C.3   345  TYR345      0.1639
    168  C          1.6020   10.3820  -57.9890 C.2   345  TYR345      0.2290
    169  O          1.4790    9.4810  -57.1720 O.2   345  TYR345     -0.2864
    170  CB         1.4560   12.4340  -56.6020 C.3   345  TYR345      0.0560
    171  CG         0.7900   13.7810  -56.3410 C.ar  345  TYR345     -0.0198
    172  CD1        0.9020   14.8100  -57.2580 C.ar  345  TYR345     -0.0009
    173  CD2        0.0660   14.0160  -55.1960 C.ar  345  TYR345     -0.0009
    174  CE1        0.3060   16.0320  -57.0500 C.ar  345  TYR345      0.0417
    175  CE2       -0.5440   15.2420  -54.9660 C.ar  345  TYR345      0.0417
    176  CZ        -0.4150   16.2500  -55.9010 C.ar  345  TYR345      0.1957
    177  OH        -0.9830   17.4890  -55.7160 O.3   345  TYR345     -0.2866
@<TRIPOS>BOND
     1    32    33    1
     2    33    34    1
     3    33    36    1
     4    34    35    2
     5    36    37    1
     6    37    38    1
     7    41    42    1
     8     1     2    1
     9     1     7    1
    10    17    18    2
    11    17    16    1
    12    98    99    1
    13     2     5    1
    14     2     3    1
    15    66    67    1
    16     5     6    1
    17    15    16    1
    18     7     6    1
    19    16    19    1
    20    38    40   am
    21    38    39    2
    22    44    43    2
    23    99   102    1
    24    99   100    1
    25    42    43    1
    26    42    45    1
    27     3     4    2
    28   102   103    1
    29    67    70    1
    30    67    68    1
    31    47    49   ar
    32    47    46   ar
    33    70    71    1
    34    49    50   ar
    35   104   103    1
    36   104   105    1
    37    45    46    1
    38   105   106    2
    39   100   101    2
    40    68    69    2
    41    46    48   ar
    42   106   108    1
    43   106   107    1
    44    71    73   ar
    45    71    72   ar
    46    50    48   ar
    47    50    52   ar
    48     8     9    1
    49     9    10    1
    50     9    12    1
    51    73    75   ar
    52    48    51   ar
    53    10    11    2
    54   147   146    2
    55    52    54   ar
    56    72    74   ar
    57   146   145    1
    58    13    12    1
    59    75    74   ar
    60   144   145    1
    61    51    53   ar
    62    12    14    1
    63   145   148    1
    64    54    53   ar
    65    23    22    2
    66   158   157    2
    67   148   149    1
    68    22    21    1
    69   157   156    1
    70   157   166   am
    71    84    82   ar
    72    84    85   ar
    73    90    91    1
    74    90    87    1
    75    82    81   ar
    76    24    21    1
    77    24    25    1
    78   156   155    1
    79   156   159    1
    80    20    21    1
    81    93    91   ar
    82    93    95   ar
    83   149   150    1
    84   161   163   ar
    85   161   160   ar
    86   168   167    1
    87   168   169    2
    88    91    92   ar
    89   163   165   ar
    90    85    83   ar
    91   167   166    1
    92   167   170    1
    93    27    25   ar
    94    27    29   ar
    95    95    96   ar
    96    25    26   ar
    97    88    87    1
    98    88    89    2
    99    81    83   ar
   100    81    80    1
   101   159   160    1
   102   160   162   ar
   103    92    94   ar
   104   172   174   ar
   105   172   171   ar
   106   165   164   ar
   107    87    86    1
   108   174   176   ar
   109    76    77    1
   110    96    94   ar
   111    96    97    1
   112    80    77    1
   113    29    30   ar
   114    26    28   ar
   115   170   171    1
   116   150   151    1
   117   162   164   ar
   118   171   173   ar
   119    77    78    1
   120   151   152    2
   121    30    28   ar
   122    30    31    1
   123   153   152    1
   124   176   177    1
   125   176   175   ar
   126   152   154    1
   127    78    79    2
   128   129   130    1
   129   173   175   ar
   130   132   131    2
   131   135   133    1
   132   118   119   ar
   133   118   116   ar
   134   127   126    2
   135   119   117   ar
   136   130   131    1
   137   130   133    1
   138   116   114   ar
   139   131   136   am
   140   133   134    1
   141   117   115   ar
   142   114   115   ar
   143   114   113    1
   144   139   138    2
   145   126   128   am
   146   126   125    1
   147   113   110    1
   148   136   137    1
   149    64    63    1
   150   138   137    1
   151   137   140    1
   152   125   124    1
   153   142   141   ar
   154   110   111    1
   155   110   109    1
   156   124   121    1
   157   112   111    2
   158   111   120   am
   159    63    65    1
   160    63    62    2
   161    61    62    1
   162    61    60    1
   163   140   141    1
   164   141   143   ar
   165   120   121    1
   166   121   122    1
   167    55    56    1
   168    60    59    1
   169   123   122    2
   170    56    59    1
   171    56    57    1
   172    57    58    2
