@<TRIPOS>MOLECULE
tmp/3kfyA01.pdb
 133 126 0 0 0
SMALL
GASTEIGER

@<TRIPOS>ATOM
      1  N          9.6370   -3.5500  -13.4880 N.3     5  ILE5       -0.1231
      2  CA         8.5820   -4.4920  -13.2110 C.3     5  ILE5        0.1692
      3  C          7.2810   -3.8720  -13.7330 C.2     5  ILE5        0.2592
      4  O          6.9570   -2.7280  -13.3950 O.2     5  ILE5       -0.2718
      5  CB         8.5590   -5.0040  -11.7300 C.3     5  ILE5        0.0266
      6  CG1        7.4720   -6.1060  -11.5250 C.3     5  ILE5        0.0019
      7  CG2        8.4380   -3.8400  -10.7120 C.3     5  ILE5        0.0020
      8  CD1        7.6640   -6.9880  -10.2040 C.3     5  ILE5        0.0001
      9  N          6.5470   -4.6280  -14.5770 N.am    6  ALA6       -0.1966
     10  CA         5.3350   -4.1250  -15.2290 C.3     6  ALA6        0.1728
     11  C          4.3090   -5.2200  -15.5770 C.2     6  ALA6        0.2616
     12  O          4.6870   -6.3670  -15.8230 O.2     6  ALA6       -0.2715
     13  CB         5.7310   -3.3720  -16.5020 C.3     6  ALA6        0.0334
     14  N          3.0220   -4.8490  -15.6310 N.am    7  ALA7       -0.1977
     15  CA         1.9170   -5.7510  -16.0260 C.3     7  ALA7        0.1597
     16  C          1.3950   -5.2600  -17.3880 C.2     7  ALA7        0.2287
     17  O          0.9660   -4.1140  -17.5180 O.2     7  ALA7       -0.2864
     18  CB         0.8190   -5.7480  -14.9760 C.3     7  ALA7        0.0319
     19  N         -0.2790   -0.7430  -20.6280 N.3    14  ILE14      -0.1245
     20  CA        -0.0120   -0.7970  -19.1760 C.3    14  ILE14       0.1561
     21  C         -1.0040   -0.0050  -18.3310 C.2    14  ILE14       0.2260
     22  O         -1.0730   -0.2150  -17.1260 O.2    14  ILE14      -0.2867
     23  CB         1.4500   -0.3840  -18.8160 C.3    14  ILE14       0.0252
     24  CG1        1.7870    1.0310  -19.3580 C.3    14  ILE14       0.0019
     25  CG2        2.4500   -1.4480  -19.2570 C.3    14  ILE14       0.0019
     26  CD1        3.2180    1.5450  -19.0310 C.3    14  ILE14       0.0001
     27  N         -5.0110    0.7250  -13.6080 N.3    20  MET20      -0.1245
     28  CA        -4.8880   -0.5580  -14.3140 C.3    20  MET20       0.1570
     29  C         -6.3290   -1.0820  -14.4710 C.2    20  MET20       0.2261
     30  O         -7.0090   -1.2420  -13.4500 O.2    20  MET20      -0.2867
     31  CB        -4.0250   -1.5690  -13.5270 C.3    20  MET20       0.0387
     32  CG        -2.5340   -1.3150  -13.6330 C.3    20  MET20       0.0595
     33  SD        -1.5480   -2.4810  -12.6480 S.3    20  MET20      -0.1393
     34  CE        -2.0000   -1.9490  -10.9820 C.3    20  MET20       0.0692
     35  N         -1.2130  -11.0820   -9.7270 N.3    27  ASP27      -0.1225
     36  CA        -0.1710  -10.1500  -10.1670 C.3    27  ASP27       0.1805
     37  C          0.2050   -9.2130   -8.9970 C.2    27  ASP27       0.2597
     38  O          1.3840   -8.9190   -8.8090 O.2    27  ASP27      -0.2718
     39  CB        -0.6050   -9.3450  -11.4100 C.3    27  ASP27       0.1424
     40  CG         0.4060   -8.2910  -11.8330 C.2    27  ASP27       0.3668
     41  OD1        1.5620   -8.6670  -12.1690 O.co2  27  ASP27      -0.2456
     42  OD2        0.0840   -7.0990  -11.7410 O.co2  27  ASP27      -0.2456
     43  N         -0.7850   -8.7870   -8.1910 N.am   28  LEU28      -0.1979
     44  CA        -0.5550   -7.9720   -6.9920 C.3    28  LEU28       0.1596
     45  C          0.4010   -8.7090   -6.0220 C.2    28  LEU28       0.2287
     46  O          1.3290   -8.0820   -5.5110 O.2    28  LEU28      -0.2864
     47  CB        -1.8850   -7.6360   -6.2760 C.3    28  LEU28       0.0297
     48  CG        -2.9580   -6.8530   -7.0780 C.3    28  LEU28       0.0022
     49  CD1       -4.2510   -6.7260   -6.2630 C.3    28  LEU28       0.0001
     50  CD2       -2.4750   -5.4360   -7.4620 C.3    28  LEU28       0.0001
     51  N          2.5850  -11.2060   -6.9120 N.3    30  TRP30      -0.1227
     52  CA         3.8730  -11.3100   -7.5990 C.3    30  TRP30       0.1737
     53  C          4.6250   -9.9630   -7.4750 C.2    30  TRP30       0.2595
     54  O          5.8270   -9.9500   -7.1610 O.2    30  TRP30      -0.2718
     55  CB         3.6420  -11.6900   -9.0760 C.3    30  TRP30       0.0564
     56  CG         4.7710  -11.4080  -10.0290 C.ar   30  TRP30       0.0003
     57  CD1        4.9080  -10.3070  -10.8210 C.ar   30  TRP30       0.0946
     58  CD2        5.8350  -12.2990  -10.3970 C.ar   30  TRP30       0.0152
     59  NE1        6.0240  -10.4250  -11.6100 N.ar   30  TRP30      -0.2442
     60  CE2        6.5810  -11.6610  -11.4150 C.ar   30  TRP30       0.0810
     61  CE3        6.2220  -13.5920   -9.9790 C.ar   30  TRP30       0.0012
     62  CZ2        7.7320  -12.2330  -11.9740 C.ar   30  TRP30       0.0191
     63  CZ3        7.3380  -14.1730  -10.5580 C.ar   30  TRP30       0.0001
     64  CH2        8.1030  -13.4810  -11.5180 C.ar   30  TRP30       0.0015
     65  N          3.9060   -8.8490   -7.6870 N.am   31  PHE31      -0.1976
     66  CA         4.4790   -7.4950   -7.6020 C.3    31  PHE31       0.1639
     67  C          5.0460   -7.2400   -6.2060 C.2    31  PHE31       0.2290
     68  O          6.1980   -6.8290   -6.0900 O.2    31  PHE31      -0.2864
     69  CB         3.4650   -6.4010   -7.9970 C.3    31  PHE31       0.0560
     70  CG         3.9680   -4.9960   -7.7720 C.ar   31  PHE31      -0.0200
     71  CD1        4.8920   -4.4210   -8.6420 C.ar   31  PHE31      -0.0042
     72  CD2        3.5530   -4.2580   -6.6620 C.ar   31  PHE31      -0.0042
     73  CE1        5.3520   -3.1220   -8.4310 C.ar   31  PHE31      -0.0003
     74  CE2        4.0320   -2.9650   -6.4470 C.ar   31  PHE31      -0.0003
     75  CZ         4.9250   -2.4070   -7.3330 C.ar   31  PHE31      -0.0000
     76  N          2.3070    7.9980  -11.3850 N.3    46  THR46      -0.1218
     77  CA         2.2320    6.7210  -10.6600 C.3    46  THR46       0.1862
     78  C          2.1460    6.9770   -9.1410 C.2    46  THR46       0.2287
     79  O          1.3740    6.3030   -8.4500 O.2    46  THR46      -0.2866
     80  CB         3.3780    5.8070  -11.0890 C.3    46  THR46       0.1770
     81  OG1        3.1730    5.4860  -12.4620 O.3    46  THR46      -0.2211
     82  CG2        3.4790    4.5210  -10.2630 C.3    46  THR46       0.0375
     83  N         -1.2170    5.9300   -6.5230 N.3    50  ILE50      -0.1245
     84  CA        -1.0960    5.0420   -5.3570 C.3    50  ILE50       0.1561
     85  C         -1.5600    5.6830   -4.0240 C.2    50  ILE50       0.2260
     86  O         -2.0070    4.9620   -3.1250 O.2    50  ILE50      -0.2867
     87  CB         0.2670    4.2890   -5.2550 C.3    50  ILE50       0.0252
     88  CG1        1.4620    5.2540   -5.0420 C.3    50  ILE50       0.0019
     89  CG2        0.4910    3.3390   -6.4580 C.3    50  ILE50       0.0019
     90  CD1        2.7280    4.6180   -4.3380 C.3    50  ILE50       0.0001
     91  N          4.4600    2.8110   -0.6600 N.3    54  LEU54      -0.1245
     92  CA         4.4800    1.3430   -0.6040 C.3    54  LEU54       0.1561
     93  C          5.3160    0.9830    0.6240 C.2    54  LEU54       0.2260
     94  O          6.4580    1.4570    0.7440 O.2    54  LEU54      -0.2867
     95  CB         5.0810    0.7190   -1.8870 C.3    54  LEU54       0.0270
     96  CG         4.2640    0.9270   -3.1530 C.3    54  LEU54       0.0019
     97  CD1        5.0850    0.6190   -4.3770 C.3    54  LEU54       0.0001
     98  CD2        2.9690    0.0830   -3.1350 C.3    54  LEU54       0.0001
     99  N          9.0810    0.8730  -11.1430 N.3    94  ILE94      -0.1231
    100  CA         7.6690    0.5070  -11.1340 C.3    94  ILE94       0.1692
    101  C          6.7150    1.2360  -12.0850 C.2    94  ILE94       0.2593
    102  O          5.5280    0.9210  -12.1090 O.2    94  ILE94      -0.2718
    103  CB         7.1250    0.3340   -9.6790 C.3    94  ILE94       0.0266
    104  CG1        6.7900    1.6810   -9.0290 C.3    94  ILE94       0.0019
    105  CG2        8.0900   -0.5110   -8.8280 C.3    94  ILE94       0.0020
    106  CD1        5.8350    1.6130   -7.7390 C.3    94  ILE94       0.0001
    107  N          7.2410    2.1630  -12.8730 N.am   95  GLY95      -0.1942
    108  CA         6.4670    2.9140  -13.8490 C.3    95  GLY95       0.2014
    109  C          6.3440    4.4020  -13.5820 C.2    95  GLY95       0.2639
    110  O          6.9810    4.9080  -12.6700 O.2    95  GLY95      -0.2714
    111  N          5.5480    5.1060  -14.3860 N.am   96  GLY96      -0.1954
    112  CA         4.7430    4.5270  -15.4690 C.3    96  GLY96       0.1869
    113  C          5.4660    4.4670  -16.7970 C.2    96  GLY96       0.2309
    114  O          6.6770    4.2480  -16.8330 O.2    96  GLY96      -0.2863
    115  N          9.5430    3.9840  -17.4510 N.3   100  TYR100     -0.1241
    116  CA        10.0050    2.7160  -18.0410 C.3   100  TYR100      0.1605
    117  C         10.8950    2.9920  -19.2350 C.2   100  TYR100      0.2264
    118  O         11.9570    2.3790  -19.3470 O.2   100  TYR100     -0.2867
    119  CB         8.8230    1.8520  -18.4970 C.3   100  TYR100      0.0534
    120  CG         7.9540    1.2330  -17.4190 C.ar  100  TYR100     -0.0201
    121  CD1        8.5190    0.6480  -16.2820 C.ar  100  TYR100     -0.0009
    122  CD2        6.5860    1.0730  -17.6150 C.ar  100  TYR100     -0.0009
    123  CE1        7.7220   -0.0070  -15.3270 C.ar  100  TYR100      0.0417
    124  CE2        5.7810    0.4480  -16.6630 C.ar  100  TYR100      0.0417
    125  CZ         6.3500   -0.0930  -15.5200 C.ar  100  TYR100      0.1957
    126  OH         5.5100   -0.6770  -14.5890 O.3   100  TYR100     -0.2866
    127  N          4.5230   -9.2780  -16.4340 N.3   113  THR113     -0.1218
    128  CA         3.3190  -10.0890  -16.3250 C.3   113  THR113      0.1862
    129  C          2.6110   -9.8880  -17.6440 C.2   113  THR113      0.2287
    130  O          2.1740   -8.7710  -17.9350 O.2   113  THR113     -0.2866
    131  CB         2.4220   -9.6840  -15.1470 C.3   113  THR113      0.1770
    132  OG1        3.1840   -9.6990  -13.9530 O.3   113  THR113     -0.2211
    133  CG2        1.2160  -10.6130  -14.9830 C.3   113  THR113      0.0375
@<TRIPOS>BOND
     1    19    20    1
     2    24    26    1
     3    24    23    1
     4   118   117    2
     5    25    23    1
     6   117   116    1
     7    20    23    1
     8    20    21    1
     9   119   116    1
    10   119   120    1
    11    21    22    2
    12   116   115    1
    13   130   129    2
    14   129   128    1
    15   122   120   ar
    16   122   124   ar
    17    17    16    2
    18   120   121   ar
    19    16    15    1
    20   114   113    2
    21   113   112    1
    22   124   125   ar
    23    13    10    1
    24   127   128    1
    25   128   131    1
    26   121   123   ar
    27    15    14    1
    28    15    18    1
    29    12    11    2
    30    14    11   am
    31    11    10    1
    32   125   123   ar
    33   125   126    1
    34   112   111    1
    35    10     9    1
    36   131   133    1
    37   131   132    1
    38     9     3   am
    39    29    28    1
    40    29    30    2
    41   111   109   am
    42    28    27    1
    43    28    31    1
    44   108   109    1
    45   108   107    1
    46     3     4    2
    47     3     2    1
    48    32    31    1
    49    32    33    1
    50   109   110    2
    51     1     2    1
    52     2     5    1
    53   107   101   am
    54    33    34    1
    55    81    80    1
    56    41    40   ar
    57   102   101    2
    58   101   100    1
    59    62    64   ar
    60    62    60   ar
    61    40    42   ar
    62    40    39    1
    63     5     6    1
    64     5     7    1
    65    59    60   ar
    66    59    57   ar
    67     6     8    1
    68    64    63   ar
    69    60    58   ar
    70    39    36    1
    71    76    77    1
    72    99   100    1
    73   100   103    1
    74    80    77    1
    75    80    82    1
    76    57    56   ar
    77    77    78    1
    78    63    61   ar
    79    58    56   ar
    80    58    61   ar
    81    36    35    1
    82    36    37    1
    83    56    55    1
    84   103   104    1
    85   103   105    1
    86    78    79    2
    87    55    52    1
    88   104   106    1
    89    37    38    2
    90    37    43   am
    91    71    73   ar
    92    71    70   ar
    93    73    75   ar
    94    43    44    1
    95    69    70    1
    96    69    66    1
    97    70    72   ar
    98    65    66    1
    99    65    53   am
   100    66    67    1
   101    52    53    1
   102    52    51    1
   103    53    54    2
   104    50    48    1
   105    75    74   ar
   106    48    47    1
   107    48    49    1
   108    44    47    1
   109    44    45    1
   110    72    74   ar
   111    83    84    1
   112    89    87    1
   113    67    68    2
   114    45    46    2
   115    84    87    1
   116    84    85    1
   117    87    88    1
   118    88    90    1
   119    97    96    1
   120    85    86    2
   121    96    98    1
   122    96    95    1
   123    95    92    1
   124    91    92    1
   125    92    93    1
   126    93    94    2
