@<TRIPOS>MOLECULE
tmp/3kgaA00.pdb
 175 165 0 0 0
SMALL
GASTEIGER

@<TRIPOS>ATOM
      1  N         31.1580    8.2550   15.9340 N.3    24  LEU24      -0.1231
      2  CA        31.9240    7.0060   15.9810 C.3    24  LEU24       0.1693
      3  C         32.6430    6.7510   17.2930 C.2    24  LEU24       0.2592
      4  O         33.5530    5.9270   17.3410 O.2    24  LEU24      -0.2718
      5  CB        32.9770    7.0150   14.8760 C.3    24  LEU24       0.0284
      6  CG        32.5720    6.7210   13.4300 C.3    24  LEU24       0.0019
      7  CD1       31.0710    6.8880   13.1550 C.3    24  LEU24       0.0001
      8  CD2       33.4050    7.5860   12.5080 C.3    24  LEU24       0.0001
      9  N         32.2570    7.4590   18.3490 N.am   25  GLY25      -0.1957
     10  CA        32.9110    7.3000   19.6450 C.3    25  GLY25       0.1869
     11  C         32.6950    8.4710   20.5870 C.2    25  GLY25       0.2309
     12  O         32.4720    9.6130   20.1470 O.2    25  GLY25      -0.2863
     13  N         35.1860    9.1850   22.9720 N.3    27  GLY27      -0.1225
     14  CA        36.5550    9.0190   23.4830 C.3    27  GLY27       0.1811
     15  C         36.9710    9.8360   24.7000 C.2    27  GLY27       0.2280
     16  O         36.1760   10.6040   25.2610 O.2    27  GLY27      -0.2866
     17  N         34.3210   11.3610   18.4360 N.3    32  VAL32      -0.1245
     18  CA        34.8690   11.0370   17.1300 C.3    32  VAL32       0.1561
     19  C         33.7350   10.9940   16.1320 C.2    32  VAL32       0.2260
     20  O         32.7020   10.3940   16.4040 O.2    32  VAL32      -0.2867
     21  CB        35.6350    9.7080   17.1450 C.3    32  VAL32       0.0252
     22  CG1       36.2120    9.3980   15.7650 C.3    32  VAL32       0.0019
     23  CG2       36.7390    9.7600   18.1890 C.3    32  VAL32       0.0019
     24  N         32.3380   10.8750   11.8110 N.3    34  GLN34      -0.1231
     25  CA        32.5180   10.3190   10.4780 C.3    34  GLN34       0.1698
     26  C         32.5960   11.4490    9.4520 C.2    34  GLN34       0.2592
     27  O         31.7410   12.3500    9.4510 O.2    34  GLN34      -0.2718
     28  CB        31.3140    9.4240   10.2110 C.3    34  GLN34       0.0381
     29  CG        31.1660    8.8380    8.8240 C.3    34  GLN34       0.0905
     30  CD        29.8290    8.0780    8.6850 C.2    34  GLN34       0.2608
     31  OE1       29.4170    7.3550    9.6050 O.2    34  GLN34      -0.2717
     32  NE2       29.1420    8.2610    7.5480 N.am   34  GLN34      -0.0878
     33  N         33.6210   11.4300    8.5990 N.am   35  ILE35      -0.1966
     34  CA        33.7770   12.4900    7.5970 C.3    35  ILE35       0.1727
     35  C         34.3570   11.9880    6.2850 C.2    35  ILE35       0.2616
     36  O         34.9090   10.8930    6.2190 O.2    35  ILE35      -0.2715
     37  CB        34.6470   13.7290    8.0860 C.3    35  ILE35       0.0290
     38  CG1       36.1510   13.4080    8.0870 C.3    35  ILE35       0.0022
     39  CG2       34.1670   14.2750    9.4310 C.3    35  ILE35       0.0023
     40  CD1       36.9850   14.4520    8.7700 C.3    35  ILE35       0.0001
     41  N         34.2490   12.8190    5.2500 N.am   36  PHE36      -0.1974
     42  CA        34.6610   12.4560    3.9000 C.3    36  PHE36       0.1639
     43  C         35.4860   13.5840    3.3340 C.2    36  PHE36       0.2290
     44  O         35.1580   14.7510    3.5180 O.2    36  PHE36      -0.2864
     45  CB        33.4210   12.2280    2.9900 C.3    36  PHE36       0.0560
     46  CG        32.4980   11.1300    3.4680 C.ar   36  PHE36      -0.0200
     47  CD1       31.5030   11.3970    4.4140 C.ar   36  PHE36      -0.0042
     48  CD2       32.6360    9.8240    2.9870 C.ar   36  PHE36      -0.0042
     49  CE1       30.6460   10.3750    4.8850 C.ar   36  PHE36      -0.0003
     50  CE2       31.7880    8.7960    3.4400 C.ar   36  PHE36      -0.0003
     51  CZ        30.7890    9.0680    4.3940 C.ar   36  PHE36      -0.0000
     52  N         37.2800    8.2570    2.9660 N.3    43  LYS43      -0.1231
     53  CA        36.7420    8.3240    4.3210 C.3    43  LYS43       0.1693
     54  C         37.8260    8.6380    5.3850 C.2    43  LYS43       0.2592
     55  O         38.9840    8.2180    5.2660 O.2    43  LYS43      -0.2718
     56  CB        36.0380    7.0090    4.6590 C.3    43  LYS43       0.0285
     57  CG        35.0220    6.5140    3.6510 C.3    43  LYS43       0.0035
     58  CD        34.6760    5.0600    3.9480 C.3    43  LYS43       0.0206
     59  CE        35.9370    4.1970    3.9210 C.3    43  LYS43       0.1093
     60  NZ        35.7350    2.8020    4.4030 N.3    43  LYS43      -0.1314
     61  N         37.4490    9.3920    6.4180 N.am   44  PHE44      -0.1962
     62  CA        38.3620    9.6760    7.5180 C.3    44  PHE44       0.1771
     63  C         37.5830    9.7850    8.8050 C.2    44  PHE44       0.2619
     64  O         36.3600    9.7430    8.7880 O.2    44  PHE44      -0.2715
     65  CB        39.1080   10.9770    7.2700 C.3    44  PHE44       0.0574
     66  CG        40.0610   10.9020    6.1490 C.ar   44  PHE44      -0.0200
     67  CD1       41.3500   10.4350    6.3610 C.ar   44  PHE44      -0.0042
     68  CD2       39.6720   11.2890    4.8660 C.ar   44  PHE44      -0.0042
     69  CE1       42.2610   10.3400    5.3030 C.ar   44  PHE44      -0.0003
     70  CE2       40.5610   11.2200    3.8070 C.ar   44  PHE44      -0.0003
     71  CZ        41.8620   10.7370    4.0140 C.ar   44  PHE44      -0.0000
     72  N         38.2860    9.9280    9.9210 N.am   45  ALA45      -0.1977
     73  CA        37.6190   10.1400   11.1820 C.3    45  ALA45       0.1597
     74  C         38.0740   11.4760   11.6910 C.2    45  ALA45       0.2287
     75  O         39.1660   11.9140   11.3460 O.2    45  ALA45      -0.2864
     76  CB        37.9850    9.0400   12.1720 C.3    45  ALA45       0.0319
     77  N         38.5410   13.7750   15.2600 N.3    47  LYS47      -0.1245
     78  CA        38.4120   13.9240   16.7070 C.3    47  LYS47       0.1561
     79  C         38.2880   15.4070   17.0640 C.2    47  LYS47       0.2260
     80  O         39.1030   16.2010   16.6320 O.2    47  LYS47      -0.2867
     81  CB        39.5920   13.2680   17.4320 C.3    47  LYS47       0.0271
     82  CG        39.3890   13.1530   18.9150 C.3    47  LYS47       0.0035
     83  CD        40.5350   12.4010   19.5740 C.3    47  LYS47       0.0206
     84  CE        40.2920   12.2830   21.0820 C.3    47  LYS47       0.1093
     85  NZ        41.2760   11.3910   21.7210 N.3    47  LYS47      -0.1314
     86  N         47.5060    5.1520   15.0930 N.3    72  VAL72      -0.1245
     87  CA        46.6190    5.7640   14.1260 C.3    72  VAL72       0.1561
     88  C         47.2160    7.0630   13.5710 C.2    72  VAL72       0.2260
     89  O         47.6920    7.8960   14.3200 O.2    72  VAL72      -0.2867
     90  CB        45.2400    6.0230   14.7330 C.3    72  VAL72       0.0252
     91  CG1       45.3180    7.1160   15.8530 C.3    72  VAL72       0.0019
     92  CG2       44.2670    6.4010   13.6340 C.3    72  VAL72       0.0019
     93  N         41.9190   11.9370   11.0040 N.3    92  MET92      -0.1230
     94  CA        42.6700   10.7040   11.1870 C.3    92  MET92       0.1702
     95  C         42.3180    9.6450   10.1650 C.2    92  MET92       0.2592
     96  O         41.1910    9.5840    9.6800 O.2    92  MET92      -0.2718
     97  CB        42.3890   10.1020   12.5610 C.3    92  MET92       0.0401
     98  CG        43.1640   10.7210   13.6640 C.3    92  MET92       0.0596
     99  SD        42.4390   10.2280   15.2180 S.3    92  MET92      -0.1393
    100  CE        43.3090   11.3500   16.2900 C.3    92  MET92       0.0692
    101  N         43.2750    8.7750    9.8720 N.am   93  GLU93      -0.1966
    102  CA        42.9690    7.6290    9.0490 C.3    93  GLU93       0.1733
    103  C         41.8040    6.8840    9.6620 C.2    93  GLU93       0.2616
    104  O         41.6550    6.8160   10.8760 O.2    93  GLU93      -0.2715
    105  CB        44.1720    6.7170    8.8910 C.3    93  GLU93       0.0429
    106  CG        44.4870    5.8520   10.0970 C.3    93  GLU93       0.1163
    107  CD        45.6010    4.8990    9.7880 C.2    93  GLU93       0.3649
    108  OE1       45.4700    4.1180    8.8070 O.co2  93  GLU93      -0.2457
    109  OE2       46.6230    4.9460   10.4950 O.co2  93  GLU93      -0.2457
    110  N         40.9690    6.3420    8.7940 N.am   94  CYS94      -0.1954
    111  CA        39.7370    5.7010    9.1910 C.3    94  CYS94       0.1843
    112  C         39.9720    4.2780    9.6620 C.2    94  CYS94       0.2625
    113  O         40.6640    3.5150    8.9960 O.2    94  CYS94      -0.2714
    114  CB        38.7990    5.6780    7.9950 C.3    94  CYS94       0.0997
    115  SG        37.5050    4.5200    8.2900 S.3    94  CYS94      -0.0797
    116  N         39.4030    3.9180   10.8050 N.am   95  LEU95      -0.1963
    117  CA        39.6900    2.6090   11.4200 C.3    95  LEU95       0.1728
    118  C         38.4270    1.7930   11.5580 C.2    95  LEU95       0.2616
    119  O         37.7520    1.8320   12.5940 O.2    95  LEU95      -0.2715
    120  CB        40.3850    2.7570   12.7710 C.3    95  LEU95       0.0311
    121  CG        41.8380    3.2670   12.7110 C.3    95  LEU95       0.0022
    122  CD1       42.4410    3.3640   14.0800 C.3    95  LEU95       0.0001
    123  CD2       42.6780    2.3470   11.8840 C.3    95  LEU95       0.0001
    124  N         38.1430    1.0520   10.4830 N.am   96  ASP96      -0.1971
    125  CA        36.8900    0.3430   10.2480 C.3    96  ASP96       0.1709
    126  C         36.7350   -0.9700   10.9280 C.2    96  ASP96       0.2293
    127  O         35.6220   -1.4520   11.0890 O.2    96  ASP96      -0.2864
    128  CB        36.8200   -0.0180    8.7860 C.3    96  ASP96       0.1436
    129  CG        36.2310    1.0640    7.9820 C.2    96  ASP96       0.3671
    130  OD1       35.0410    1.3810    8.2290 O.co2  96  ASP96      -0.2456
    131  OD2       36.9720    1.5970    7.1270 O.co2  96  ASP96      -0.2456
    132  N         36.6670   -2.5020   13.6820 N.3    98  GLY98      -0.1225
    133  CA        36.3080   -2.7930   15.0790 C.3    98  GLY98       0.1811
    134  C         37.5050   -2.8500   16.0590 C.2    98  GLY98       0.2280
    135  O         38.6770   -2.7850   15.6570 O.2    98  GLY98      -0.2866
    136  N         39.5120   -0.5470   24.3360 N.3   144  GLU144     -0.1231
    137  CA        38.7640    0.3360   23.4440 C.3   144  GLU144      0.1699
    138  C         39.6950    1.2500   22.6340 C.2   144  GLU144      0.2592
    139  O         39.2650    1.8680   21.6470 O.2   144  GLU144     -0.2718
    140  CB        37.6110    1.0900   24.1390 C.3   144  GLU144      0.0402
    141  CG        37.9580    1.7960   25.4610 C.3   144  GLU144      0.1161
    142  CD        37.9460    0.8660   26.7380 C.2   144  GLU144      0.3649
    143  OE1       37.0340    1.0850   27.5850 O.co2 144  GLU144     -0.2457
    144  OE2       38.8320   -0.0440   26.9100 O.co2 144  GLU144     -0.2457
    145  N         40.9700    1.3020   23.0000 N.am  145  ASN145     -0.1974
    146  CA        41.9060    2.1120   22.2510 C.3   145  ASN145      0.1688
    147  C         42.7080    1.3440   21.1940 C.2   145  ASN145      0.2292
    148  O         43.6220    1.9140   20.5550 O.2   145  ASN145     -0.2864
    149  CB        42.8350    2.8910   23.2060 C.3   145  ASN145      0.1181
    150  CG        42.0950    3.9690   24.0030 C.2   145  ASN145      0.2629
    151  OD1       41.0280    4.4390   23.6070 O.2   145  ASN145     -0.2716
    152  ND2       42.6360    4.3210   25.1590 N.am  145  ASN145     -0.0877
    153  N         42.2980   -0.6380   17.7040 N.3   147  LEU147     -0.1245
    154  CA        41.3250   -0.8030   16.6000 C.3   147  LEU147      0.1561
    155  C         41.9960   -1.2490   15.3070 C.2   147  LEU147      0.2260
    156  O         43.1930   -0.9850   15.0870 O.2   147  LEU147     -0.2867
    157  CB        40.6000    0.5130   16.3550 C.3   147  LEU147      0.0270
    158  CG        39.8130    0.9550   17.6020 C.3   147  LEU147      0.0019
    159  CD1       40.1580    2.3550   18.0360 C.3   147  LEU147      0.0001
    160  CD2       38.3200    0.8250   17.4080 C.3   147  LEU147      0.0001
    161  N         45.3530    4.0100   19.4390 N.3   160  THR160     -0.1203
    162  CA        44.7550    5.3540   19.3860 C.3   160  THR160      0.1994
    163  C         44.7390    6.0690   20.7550 C.2   160  THR160      0.2617
    164  O         45.1190    5.4750   21.7750 O.2   160  THR160     -0.2717
    165  CB        43.3050    5.2680   18.9430 C.3   160  THR160      0.1784
    166  OG1       42.4890    4.8020   20.0360 O.3   160  THR160     -0.2211
    167  CG2       43.2090    4.2970   17.8470 C.3   160  THR160      0.0376
    168  N         44.3170    7.3410   20.7410 N.am  161  ASP161     -0.1973
    169  CA        44.0370    8.1740   21.9430 C.3   161  ASP161      0.1709
    170  C         45.2030    8.6270   22.8410 C.2   161  ASP161      0.2293
    171  O         45.5680    7.9320   23.8030 O.2   161  ASP161     -0.2864
    172  CB        42.9830    7.5270   22.8380 C.3   161  ASP161      0.1436
    173  CG        42.3020    8.5420   23.7210 C.2   161  ASP161      0.3671
    174  OD1       42.9600    9.5540   24.1030 O.co2 161  ASP161     -0.2456
    175  OD2       41.1000    8.3480   24.0080 O.co2 161  ASP161     -0.2456
@<TRIPOS>BOND
     1    52    53    1
     2    48    50   ar
     3    48    46   ar
     4    45    46    1
     5    45    42    1
     6    43    44    2
     7    43    42    1
     8    50    51   ar
     9    46    47   ar
    10    57    58    1
    11    57    56    1
    12    70    71   ar
    13    70    68   ar
    14    42    41    1
    15    59    58    1
    16    59    60    1
    17    71    69   ar
    18    53    56    1
    19    53    54    1
    20    51    49   ar
    21    47    49   ar
    22    68    66   ar
    23    41    35   am
    24    55    54    2
    25    69    67   ar
    26    54    61   am
    27    66    67   ar
    28    66    65    1
    29    36    35    2
    30    35    34    1
    31    61    62    1
    32   131   129   ar
    33    65    62    1
    34    62    63    1
    35    32    30   am
    36    34    37    1
    37    34    33    1
    38   129   130   ar
    39   129   128    1
    40   114   115    1
    41   114   111    1
    42    37    38    1
    43    37    39    1
    44    38    40    1
    45    33    26   am
    46    30    29    1
    47    30    31    2
    48   128   125    1
    49    64    63    2
    50   110   111    1
    51   110   103   am
    52    63    72   am
    53   108   107   ar
    54    29    28    1
    55   105   102    1
    56   105   106    1
    57   113   112    2
    58   102   103    1
    59   102   101    1
    60   111   112    1
    61    27    26    2
    62    26    25    1
    63   103   104    2
    64   112   116   am
    65    96    95    2
    66   107   106    1
    67   107   109   ar
    68   101    95   am
    69    72    73    1
    70    95    94    1
    71    28    25    1
    72   125   124    1
    73   125   126    1
    74    25    24    1
    75   124   118   am
    76   116   117    1
    77   126   127    2
    78    93    94    1
    79    73    74    1
    80    73    76    1
    81    94    97    1
    82    75    74    2
    83   117   118    1
    84   117   120    1
    85   118   119    2
    86   123   121    1
    87     8     6    1
    88    97    98    1
    89   121   120    1
    90   121   122    1
    91     7     6    1
    92     6     5    1
    93    88    87    1
    94    88    89    2
    95    92    90    1
    96    98    99    1
    97   132   133    1
    98    87    90    1
    99    87    86    1
   100    90    91    1
   101     5     2    1
   102   133   134    1
   103   156   155    2
   104    99   100    1
   105    77    78    1
   106   155   154    1
   107   135   134    2
   108    22    21    1
   109     1     2    1
   110     2     3    1
   111    19    20    2
   112    19    18    1
   113   157   154    1
   114   157   158    1
   115   154   153    1
   116    80    79    2
   117    78    79    1
   118    78    81    1
   119    18    21    1
   120    18    17    1
   121    21    23    1
   122     3     4    2
   123     3     9   am
   124   160   158    1
   125    81    82    1
   126   158   159    1
   127   167   165    1
   128     9    10    1
   129    82    83    1
   130   165   162    1
   131   165   166    1
   132   162   161    1
   133   162   163    1
   134    83    84    1
   135    10    11    1
   136    12    11    2
   137   148   147    2
   138   168   163   am
   139   168   169    1
   140   163   164    2
   141    84    85    1
   142   147   146    1
   143   139   138    2
   144   169   172    1
   145   169   170    1
   146   146   145    1
   147   146   149    1
   148   138   145   am
   149   138   137    1
   150   172   173    1
   151   170   171    2
   152    13    14    1
   153   149   150    1
   154   137   140    1
   155   137   136    1
   156    14    15    1
   157   151   150    2
   158   173   175   ar
   159   173   174   ar
   160   150   152   am
   161   140   141    1
   162    15    16    2
   163   141   142    1
   164   142   144   ar
   165   142   143   ar
