@<TRIPOS>MOLECULE
tmp/3kgdB00.pdb
 163 158 0 0 0
SMALL
GASTEIGER

@<TRIPOS>ATOM
      1  N        -36.7020   11.8150   -5.1300 N.3    17  GLU17      -0.1245
      2  CA       -35.7660   10.9730   -5.8990 C.3    17  GLU17       0.1567
      3  C        -35.3380   11.4340   -7.3310 C.2    17  GLU17       0.2260
      4  O        -34.8700   10.5890   -8.1010 O.2    17  GLU17      -0.2867
      5  CB       -36.2620    9.5010   -5.9350 C.3    17  GLU17       0.0388
      6  CG       -36.5590    8.8660   -4.5700 C.3    17  GLU17       0.1160
      7  CD       -35.3200    8.3430   -3.8460 C.2    17  GLU17       0.3649
      8  OE1      -35.3670    8.1440   -2.6110 O.co2  17  GLU17      -0.2457
      9  OE2      -34.2960    8.1230   -4.5040 O.co2  17  GLU17      -0.2457
     10  N        -33.5150    7.5240   -7.3320 N.3    21  GLN21      -0.1245
     11  CA       -34.0450    6.3790   -8.0700 C.3    21  GLN21       0.1566
     12  C        -34.5150    6.7660   -9.4810 C.2    21  GLN21       0.2260
     13  O        -34.3920    5.9690  -10.4070 O.2    21  GLN21      -0.2867
     14  CB       -35.2130    5.7470   -7.3000 C.3    21  GLN21       0.0367
     15  CG       -35.6180    4.3500   -7.8220 C.3    21  GLN21       0.0905
     16  CD       -34.4690    3.3540   -7.7770 C.2    21  GLN21       0.2608
     17  OE1      -34.1120    2.8820   -6.6980 O.2    21  GLN21      -0.2717
     18  NE2      -33.8360    3.0730   -8.9500 N.am   21  GLN21      -0.0878
     19  N        -31.1490    7.1980  -11.5000 N.3    24  ARG24      -0.1245
     20  CA       -30.4580    5.9410  -11.8040 C.3    24  ARG24       0.1563
     21  C        -31.2240    5.1630  -12.8720 C.2    24  ARG24       0.2260
     22  O        -30.6210    4.6040  -13.7800 O.2    24  ARG24      -0.2867
     23  CB       -30.2510    5.0640  -10.5430 C.3    24  ARG24       0.0307
     24  CG       -29.3840    5.7270   -9.5080 C.3    24  ARG24       0.0489
     25  CD       -28.9940    4.7840   -8.3970 C.3    24  ARG24       0.2205
     26  NE       -30.1640    4.3280   -7.6590 N.pl3  24  ARG24      -0.0865
     27  CZ       -30.6460    4.9880   -6.6080 C.cat  24  ARG24       0.5346
     28  NH1      -30.0260    6.0810   -6.1590 N.pl3  24  ARG24       0.1354
     29  NH2      -31.7150    4.5260   -5.9880 N.pl3  24  ARG24       0.1354
     30  N        -25.1290    1.2190   -5.5560 N.3   104  LEU104     -0.1245
     31  CA       -26.0000    2.1350   -6.3100 C.3   104  LEU104      0.1561
     32  C        -25.3760    2.5550   -7.6380 C.2   104  LEU104      0.2260
     33  O        -26.0880    2.7570   -8.6410 O.2   104  LEU104     -0.2867
     34  CB       -26.4000    3.3510   -5.4910 C.3   104  LEU104      0.0270
     35  CG       -27.3470    2.9680   -4.3440 C.3   104  LEU104      0.0019
     36  CD1      -27.5880    4.2410   -3.4890 C.3   104  LEU104      0.0001
     37  CD2      -28.6420    2.2870   -4.7830 C.3   104  LEU104      0.0001
     38  N        -25.9640   -0.4380   -9.8230 N.3   107  GLN107     -0.1245
     39  CA       -27.3760   -0.4760  -10.2170 C.3   107  GLN107      0.1566
     40  C        -27.6400    0.4130  -11.4380 C.2   107  GLN107      0.2260
     41  O        -28.4930    0.0970  -12.2860 O.2   107  GLN107     -0.2867
     42  CB       -28.2820   -0.0040   -9.0310 C.3   107  GLN107      0.0367
     43  CG       -29.7930   -0.1420   -9.3150 C.3   107  GLN107      0.0905
     44  CD       -30.7100    0.3380   -8.1680 C.2   107  GLN107      0.2608
     45  OE1      -31.0440    1.5440   -8.0510 O.2   107  GLN107     -0.2717
     46  NE2      -31.1580   -0.6070   -7.3590 N.am  107  GLN107     -0.0878
     47  N        -30.3730    2.0220    2.6860 N.3   132  SER132     -0.1202
     48  CA       -30.9230    2.6930    1.5010 C.3   132  SER132      0.2020
     49  C        -30.2080    2.2350    0.2420 C.2   132  SER132      0.2619
     50  O        -30.1810    2.9770   -0.7650 O.2   132  SER132     -0.2717
     51  CB       -30.8760    4.2200    1.6080 C.3   132  SER132      0.2103
     52  OG       -31.9990    4.7600    2.2960 O.3   132  SER132     -0.2182
     53  N        -29.5780    1.0600    0.3270 N.am  133  ALA133     -0.1965
     54  CA       -28.8900    0.4550   -0.8160 C.3   133  ALA133      0.1713
     55  C        -28.7980   -1.0710   -0.7420 C.2   133  ALA133      0.2458
     56  O        -28.7200   -1.6780    0.3320 O.2   133  ALA133     -0.2730
     57  CB       -27.4690    1.0680   -0.9850 C.3   133  ALA133      0.0333
     58  N        -28.7450   -1.7100   -1.9020 N.am  134  PRO134     -0.2716
     59  CA       -28.7210   -3.1790   -1.8170 C.3   134  PRO134      0.1521
     60  C        -27.3400   -3.6630   -1.4120 C.2   134  PRO134      0.2440
     61  O        -26.4000   -3.2610   -2.0460 O.2   134  PRO134     -0.2731
     62  CB       -29.0270   -3.6450   -3.2520 C.3   134  PRO134      0.0310
     63  CG       -28.7770   -2.4350   -4.1270 C.3   134  PRO134      0.0237
     64  CD       -28.8170   -1.1780   -3.2700 C.3   134  PRO134      0.0939
     65  N        -27.2230   -4.5150   -0.3770 N.am  135  PRO135     -0.2727
     66  CA       -25.9180   -5.0710   -0.0160 C.3   135  PRO135      0.1402
     67  C        -25.3960   -5.9550   -1.1360 C.2   135  PRO135      0.2269
     68  O        -26.1770   -6.5980   -1.8150 O.2   135  PRO135     -0.2865
     69  CB       -26.2270   -5.9370    1.2100 C.3   135  PRO135      0.0296
     70  CG       -27.5710   -5.5210    1.6670 C.3   135  PRO135      0.0237
     71  CD       -28.3000   -4.9660    0.5310 C.3   135  PRO135      0.0939
     72  N        -26.8320   -9.3360   -1.1220 N.3   138  PHE138     -0.1241
     73  CA       -28.1930   -9.3490   -1.6350 C.3   138  PHE138      0.1605
     74  C        -28.1880   -9.4320   -3.1720 C.2   138  PHE138      0.2264
     75  O        -28.8930  -10.2540   -3.7740 O.2   138  PHE138     -0.2867
     76  CB       -28.9660   -8.1230   -1.1520 C.3   138  PHE138      0.0534
     77  CG       -30.3420   -8.0090   -1.7520 C.ar  138  PHE138     -0.0203
     78  CD1      -30.5310   -7.3590   -2.9680 C.ar  138  PHE138     -0.0042
     79  CD2      -31.4360   -8.5590   -1.1060 C.ar  138  PHE138     -0.0042
     80  CE1      -31.8260   -7.2450   -3.5330 C.ar  138  PHE138     -0.0003
     81  CE2      -32.7200   -8.4420   -1.6350 C.ar  138  PHE138     -0.0003
     82  CZ       -32.9150   -7.7900   -2.8690 C.ar  138  PHE138     -0.0000
     83  N        -33.2860  -12.2270    1.3830 N.3   252  ARG252     -0.1231
     84  CA       -32.3390  -11.8650    2.4260 C.3   252  ARG252      0.1694
     85  C        -32.7050  -10.5340    3.0210 C.2   252  ARG252      0.2592
     86  O        -33.0910   -9.6050    2.3110 O.2   252  ARG252     -0.2718
     87  CB       -30.9160  -11.7280    1.8800 C.3   252  ARG252      0.0321
     88  CG       -30.2910  -12.9970    1.4360 C.3   252  ARG252      0.0489
     89  CD       -28.8490  -12.7310    0.8850 C.3   252  ARG252      0.2205
     90  NE       -28.0050  -11.9620    1.7960 N.pl3 252  ARG252     -0.0865
     91  CZ       -27.1590  -12.5170    2.6760 C.cat 252  ARG252      0.5346
     92  NH1      -27.0550  -13.8470    2.7880 N.pl3 252  ARG252      0.1354
     93  NH2      -26.4300  -11.7550    3.4580 N.pl3 252  ARG252      0.1354
     94  N        -32.5170  -10.4320    4.3240 N.am  253  PHE253     -0.1962
     95  CA       -32.7840   -9.1890    5.0280 C.3   253  PHE253      0.1771
     96  C        -31.5900   -8.8460    5.8650 C.2   253  PHE253      0.2619
     97  O        -30.8500   -9.7360    6.3100 O.2   253  PHE253     -0.2715
     98  CB       -34.0390   -9.3620    5.9120 C.3   253  PHE253      0.0574
     99  CG       -35.2290   -9.7910    5.1150 C.ar  253  PHE253     -0.0200
    100  CD1      -36.0330   -8.8520    4.5000 C.ar  253  PHE253     -0.0042
    101  CD2      -35.4330  -11.1360    4.8600 C.ar  253  PHE253     -0.0042
    102  CE1      -37.0880   -9.2580    3.6850 C.ar  253  PHE253     -0.0003
    103  CE2      -36.4830  -11.5440    4.0580 C.ar  253  PHE253     -0.0003
    104  CZ       -37.2940  -10.5920    3.4630 C.ar  253  PHE253     -0.0000
    105  N        -31.3670   -7.5520    6.0930 N.am  254  PHE254     -0.1974
    106  CA       -30.2330   -7.1810    6.9240 C.3   254  PHE254      0.1639
    107  C        -30.4410   -5.8880    7.7180 C.2   254  PHE254      0.2290
    108  O        -31.2840   -5.0510    7.3840 O.2   254  PHE254     -0.2864
    109  CB       -28.9330   -7.0970    6.0770 C.3   254  PHE254      0.0560
    110  CG       -28.6720   -5.7300    5.4790 C.ar  254  PHE254     -0.0200
    111  CD1      -27.6300   -4.9450    5.9320 C.ar  254  PHE254     -0.0042
    112  CD2      -29.4880   -5.2380    4.4790 C.ar  254  PHE254     -0.0042
    113  CE1      -27.3940   -3.6780    5.3740 C.ar  254  PHE254     -0.0003
    114  CE2      -29.2660   -3.9690    3.9320 C.ar  254  PHE254     -0.0003
    115  CZ       -28.2200   -3.1970    4.3860 C.ar  254  PHE254     -0.0000
    116  N        -38.3640   -7.3150   10.7720 N.3   273  GLU273     -0.1245
    117  CA       -38.4040   -7.2200    9.3340 C.3   273  GLU273      0.1567
    118  C        -38.6810   -8.5560    8.6550 C.2   273  GLU273      0.2260
    119  O        -39.4680   -8.6190    7.7110 O.2   273  GLU273     -0.2867
    120  CB       -37.0890   -6.6670    8.8160 C.3   273  GLU273      0.0388
    121  CG       -37.1880   -6.2430    7.3920 C.3   273  GLU273      0.1160
    122  CD       -36.0090   -5.4010    6.9450 C.2   273  GLU273      0.3649
    123  OE1      -35.8100   -5.3160    5.7280 O.co2 273  GLU273     -0.2457
    124  OE2      -35.2960   -4.8350    7.8030 O.co2 273  GLU273     -0.2457
    125  N        -37.9020   -4.9600   -1.2470 N.3   287  TYR287     -0.1241
    126  CA       -36.8350   -4.3400   -2.0280 C.3   287  TYR287      0.1605
    127  C        -36.5760   -5.0010   -3.3520 C.2   287  TYR287      0.2264
    128  O        -36.3800   -4.3380   -4.3530 O.2   287  TYR287     -0.2867
    129  CB       -35.5110   -4.3230   -1.2470 C.3   287  TYR287      0.0534
    130  CG       -35.6790   -3.7520    0.1080 C.ar  287  TYR287     -0.0201
    131  CD1      -35.9360   -2.3980    0.2820 C.ar  287  TYR287     -0.0009
    132  CD2      -35.6330   -4.5840    1.2260 C.ar  287  TYR287     -0.0009
    133  CE1      -36.1140   -1.8900    1.5630 C.ar  287  TYR287      0.0417
    134  CE2      -35.8070   -4.0870    2.4890 C.ar  287  TYR287      0.0417
    135  CZ       -36.0370   -2.7450    2.6510 C.ar  287  TYR287      0.1957
    136  OH       -36.2070   -2.2730    3.9310 O.3   287  TYR287     -0.2866
    137  N        -38.6920   -3.7150   -6.3910 N.3   290  ASP290     -0.1225
    138  CA       -38.3100   -2.5910   -7.2450 C.3   290  ASP290      0.1805
    139  C        -37.1430   -2.9110   -8.1990 C.2   290  ASP290      0.2597
    140  O        -37.0090   -2.3060   -9.2740 O.2   290  ASP290     -0.2718
    141  CB       -38.0980   -1.2720   -6.4470 C.3   290  ASP290      0.1424
    142  CG       -36.7800   -1.2080   -5.7220 C.2   290  ASP290      0.3668
    143  OD1      -36.7920   -1.0550   -4.4830 O.co2 290  ASP290     -0.2456
    144  OD2      -35.7160   -1.2400   -6.3870 O.co2 290  ASP290     -0.2456
    145  N        -36.3220   -3.8700   -7.8020 N.am  291  GLN291     -0.1979
    146  CA       -35.1690   -4.2590   -8.6000 C.3   291  GLN291      0.1601
    147  C        -35.4880   -5.2250   -9.7170 C.2   291  GLN291      0.2287
    148  O        -34.6430   -5.4420  -10.5810 O.2   291  GLN291     -0.2864
    149  CB       -34.0730   -4.8260   -7.6980 C.3   291  GLN291      0.0394
    150  CG       -33.5330   -3.7110   -6.7380 C.3   291  GLN291      0.0908
    151  CD       -32.6060   -4.2550   -5.6640 C.2   291  GLN291      0.2608
    152  OE1      -31.6010   -4.8660   -5.9770 O.2   291  GLN291     -0.2717
    153  NE2      -32.9170   -3.9840   -4.3760 N.am  291  GLN291     -0.0878
    154  N        -40.3860    2.9980   -4.3740 N.3   312  HIS312     -0.1241
    155  CA       -39.3990    2.7410   -5.4090 C.3   312  HIS312      0.1621
    156  C        -39.9750    1.8990   -6.5360 C.2   312  HIS312      0.2264
    157  O        -39.5950    2.0470   -7.6910 O.2   312  HIS312     -0.2867
    158  CB       -38.1820    1.9890   -4.8710 C.3   312  HIS312      0.0745
    159  CG       -37.2210    2.8290   -4.0930 C.ar  312  HIS312      0.0817
    160  ND1      -36.9780    4.1620   -4.3830 N.ar  312  HIS312     -0.2268
    161  CD2      -36.3920    2.5080   -3.0670 C.ar  312  HIS312      0.1154
    162  CE1      -36.0640    4.6280   -3.5450 C.ar  312  HIS312      0.1986
    163  NE2      -35.6820    3.6450   -2.7460 N.ar  312  HIS312     -0.2212
@<TRIPOS>BOND
     1    22    21    2
     2    21    20    1
     3    41    40    2
     4    20    19    1
     5    20    23    1
     6    40    39    1
     7   148   147    2
     8    23    24    1
     9    13    12    2
    10    39    38    1
    11    39    42    1
    12   147   146    1
    13    24    25    1
    14    12    11    1
    15    43    42    1
    16    43    44    1
    17   140   139    2
    18    18    16   am
    19    33    32    2
    20   146   145    1
    21   146   149    1
    22    25    26    1
    23   139   145   am
    24   139   138    1
    25    44    45    2
    26    44    46   am
    27     4     3    2
    28    11    10    1
    29    11    14    1
    30    15    16    1
    31    15    14    1
    32    16    17    2
    33   149   150    1
    34   157   156    2
    35    26    27    2
    36    32    31    1
    37     3     2    1
    38   138   141    1
    39   138   137    1
    40   150   151    1
    41    27    28    1
    42    27    29    1
    43   156   155    1
    44   141   142    1
    45   144   142   ar
    46    31    30    1
    47    31    34    1
    48   152   151    2
    49     5     2    1
    50     5     6    1
    51     2     1    1
    52   142   143   ar
    53   151   153   am
    54    34    35    1
    55   155   158    1
    56   155   154    1
    57   158   159    1
    58    37    35    1
    59     6     7    1
    60     9     7   ar
    61   160   159   ar
    62   160   162   ar
    63   128   127    2
    64    35    36    1
    65    63    64    1
    66    63    62    1
    67   159   161   ar
    68     7     8   ar
    69    75    74    2
    70   162   163   ar
    71    80    78   ar
    72    80    82   ar
    73   127   126    1
    74    64    58    1
    75    62    59    1
    76    74    73    1
    77   161   163   ar
    78    78    77   ar
    79    82    81   ar
    80    61    60    2
    81   126   129    1
    82   126   125    1
    83    58    59    1
    84    58    55   am
    85    59    60    1
    86    68    67    2
    87    77    76    1
    88    77    79   ar
    89    73    76    1
    90    73    72    1
    91    81    79   ar
    92    60    65   am
    93   129   130    1
    94    67    66    1
    95    57    54    1
    96    54    55    1
    97    54    53    1
    98    50    49    2
    99    55    56    2
   100    65    66    1
   101    65    71    1
   102    66    69    1
   103   130   131   ar
   104   130   132   ar
   105    49    53   am
   106    49    48    1
   107   131   133   ar
   108    71    70    1
   109    89    88    1
   110    89    90    1
   111    69    70    1
   112   132   134   ar
   113    83    84    1
   114    88    87    1
   115    48    51    1
   116    48    47    1
   117   133   135   ar
   118    51    52    1
   119    90    91    2
   120    87    84    1
   121    86    85    2
   122    84    85    1
   123   134   135   ar
   124   135   136    1
   125    91    92    1
   126    91    93    1
   127    85    94   am
   128   104   102   ar
   129   104   103   ar
   130   102   100   ar
   131   114   115   ar
   132   114   112   ar
   133   103   101   ar
   134    94    95    1
   135   115   113   ar
   136   112   110   ar
   137   100    99   ar
   138   101    99   ar
   139    95    96    1
   140    95    98    1
   141    99    98    1
   142   113   111   ar
   143   110   111   ar
   144   110   109    1
   145   123   122   ar
   146    96   105   am
   147    96    97    2
   148   109   106    1
   149   105   106    1
   150   106   107    1
   151   122   121    1
   152   122   124   ar
   153   108   107    2
   154   121   120    1
   155   119   118    2
   156   118   117    1
   157   120   117    1
   158   117   116    1
