@<TRIPOS>MOLECULE
tmp/3kgfB02.pdb
 107 98 0 0 0
SMALL
GASTEIGER

@<TRIPOS>ATOM
      1  N         27.5590   84.6610    2.9730 N.3   102  LEU102     -0.1245
      2  CA        28.9670   84.2230    3.1330 C.3   102  LEU102      0.1561
      3  C         29.1220   82.7150    3.3270 C.2   102  LEU102      0.2260
      4  O         30.0070   82.0960    2.7410 O.2   102  LEU102     -0.2867
      5  CB        29.6690   84.9820    4.2570 C.3   102  LEU102      0.0270
      6  CG        29.8990   86.4710    4.0220 C.3   102  LEU102      0.0019
      7  CD1       30.2220   87.1750    5.3480 C.3   102  LEU102      0.0001
      8  CD2       30.9780   86.7410    2.9650 C.3   102  LEU102      0.0001
      9  N         28.6840   81.0850    0.0630 N.3   105  ALA105     -0.1231
     10  CA        29.8380   81.4460   -0.7590 C.3   105  ALA105      0.1694
     11  C         31.0750   80.5550   -0.5070 C.2   105  ALA105      0.2591
     12  O         31.7910   80.1950   -1.4430 O.2   105  ALA105     -0.2718
     13  CB        30.1770   82.9430   -0.5610 C.3   105  ALA105      0.0304
     14  N         31.2990   80.1890    0.7470 N.am  106  VAL106     -0.1980
     15  CA        32.4260   79.3410    1.1090 C.3   106  VAL106      0.1595
     16  C         32.2690   77.9770    0.4270 C.2   106  VAL106      0.2287
     17  O         33.2110   77.4690   -0.1760 O.2   106  VAL106     -0.2864
     18  CB        32.5150   79.1150    2.6390 C.3   106  VAL106      0.0276
     19  CG1       33.5670   78.0140    2.9980 C.3   106  VAL106      0.0022
     20  CG2       32.7790   80.4300    3.4010 C.3   106  VAL106      0.0022
     21  N         32.4210   78.3560   -3.4080 N.3   109  THR109     -0.1218
     22  CA        33.7990   78.6140   -3.8250 C.3   109  THR109      0.1862
     23  C         34.5630   77.2860   -3.9090 C.2   109  THR109      0.2287
     24  O         35.2140   76.9890   -4.9290 O.2   109  THR109     -0.2866
     25  CB        34.5200   79.5990   -2.8610 C.3   109  THR109      0.1770
     26  OG1       33.8050   80.8350   -2.8160 O.3   109  THR109     -0.2211
     27  CG2       35.9580   79.8670   -3.2970 C.3   109  THR109      0.0375
     28  N         36.6300   81.5130   -8.1130 N.3   115  PRO115     -0.2102
     29  CA        36.0830   82.5830   -7.2800 C.3   115  PRO115      0.1504
     30  C         34.5750   82.7260   -7.4210 C.2   115  PRO115      0.2575
     31  O         34.0060   82.4240   -8.4690 O.2   115  PRO115     -0.2718
     32  CB        36.8010   83.8450   -7.7960 C.3   115  PRO115      0.0282
     33  CG        37.9940   83.3430   -8.4940 C.3   115  PRO115      0.0208
     34  CD        37.6030   82.0300   -9.0860 C.3   115  PRO115      0.0893
     35  N         33.9360   83.1390   -6.3340 N.am  116  VAL116     -0.1980
     36  CA        32.5250   83.4500   -6.3390 C.3   116  VAL116      0.1595
     37  C         32.3250   84.9550   -6.1750 C.2   116  VAL116      0.2287
     38  O         32.8490   85.5630   -5.2620 O.2   116  VAL116     -0.2864
     39  CB        31.7840   82.6800   -5.2140 C.3   116  VAL116      0.0276
     40  CG1       30.3530   83.1940   -5.0470 C.3   116  VAL116      0.0022
     41  CG2       31.8180   81.1810   -5.5190 C.3   116  VAL116      0.0022
     42  N         29.9670   87.6970   -5.0350 N.3   118  LYS118     -0.1245
     43  CA        28.9520   87.6540   -3.9920 C.3   118  LYS118      0.1561
     44  C         28.1350   88.9480   -4.0430 C.2   118  LYS118      0.2260
     45  O         28.6550   90.0400   -3.7690 O.2   118  LYS118     -0.2867
     46  CB        29.6080   87.4930   -2.6190 C.3   118  LYS118      0.0271
     47  CG        30.5660   86.3010   -2.4800 C.3   118  LYS118      0.0035
     48  CD        31.5190   86.4770   -1.2880 C.3   118  LYS118      0.0206
     49  CE        32.8600   85.7120   -1.4990 C.3   118  LYS118      0.1093
     50  NZ        33.6910   86.2130   -2.6570 N.3   118  LYS118     -0.1314
     51  N         33.4130   88.6530    7.5630 N.3   187  ALA187     -0.1245
     52  CA        33.7520   87.9300    6.3460 C.3   187  ALA187      0.1562
     53  C         35.1000   87.1840    6.4250 C.2   187  ALA187      0.2260
     54  O         35.6410   86.8080    5.4120 O.2   187  ALA187     -0.2867
     55  CB        33.7110   88.8720    5.1090 C.3   187  ALA187      0.0290
     56  N         37.2120   84.1200    6.3910 N.3   189  LEU189     -0.1245
     57  CA        36.8970   82.7840    5.8540 C.3   189  LEU189      0.1561
     58  C         36.7950   81.7450    6.9810 C.2   189  LEU189      0.2260
     59  O         35.8840   80.9120    7.0200 O.2   189  LEU189     -0.2867
     60  CB        37.9370   82.3770    4.8060 C.3   189  LEU189      0.0270
     61  CG        37.6860   81.0840    4.0220 C.3   189  LEU189      0.0019
     62  CD1       36.2640   80.9930    3.4450 C.3   189  LEU189      0.0001
     63  CD2       38.7620   80.9480    2.9240 C.3   189  LEU189      0.0001
     64  N         33.6180   82.1980    9.0710 N.3   192  VAL192     -0.1245
     65  CA        32.4430   81.7820    8.3070 C.3   192  VAL192      0.1561
     66  C         32.3350   80.2560    8.2360 C.2   192  VAL192      0.2260
     67  O         31.2550   79.6820    8.4170 O.2   192  VAL192     -0.2867
     68  CB        32.3960   82.3950    6.8950 C.3   192  VAL192      0.0252
     69  CG1       31.1140   81.9680    6.2080 C.3   192  VAL192      0.0019
     70  CG2       32.4950   83.9210    6.9650 C.3   192  VAL192      0.0019
     71  N         43.9470   88.0650    2.2450 N.3   232  ASN232     -0.1225
     72  CA        42.7930   87.8750    1.3660 C.3   232  ASN232      0.1785
     73  C         41.7150   86.9660    1.9780 C.2   232  ASN232      0.2597
     74  O         40.5630   86.9860    1.5630 O.2   232  ASN232     -0.2718
     75  CB        43.1780   87.4300   -0.0540 C.3   232  ASN232      0.1169
     76  CG        42.3100   88.1220   -1.1130 C.2   232  ASN232      0.2627
     77  OD1       42.1890   89.3470   -1.0870 O.2   232  ASN232     -0.2716
     78  ND2       41.6580   87.3450   -2.0050 N.am  232  ASN232     -0.0877
     79  N         42.0760   86.2180    3.0180 N.am  233  LEU233     -0.1980
     80  CA        41.1140   85.3910    3.7200 C.3   233  LEU233      0.1596
     81  C         40.3390   86.1420    4.8200 C.2   233  LEU233      0.2287
     82  O         39.3910   85.5930    5.3920 O.2   233  LEU233     -0.2864
     83  CB        41.8240   84.1410    4.2940 C.3   233  LEU233      0.0297
     84  CG        42.6610   83.2780    3.3160 C.3   233  LEU233      0.0022
     85  CD1       43.1890   82.0220    4.0180 C.3   233  LEU233      0.0001
     86  CD2       41.8730   82.8910    2.0700 C.3   233  LEU233      0.0001
     87  N         38.7720   89.1690    4.6380 N.3   235  THR235     -0.1203
     88  CA        37.6570   89.9770    4.1510 C.3   235  THR235      0.1994
     89  C         37.0660   89.4170    2.8400 C.2   235  THR235      0.2618
     90  O         37.6840   88.5830    2.1640 O.2   235  THR235     -0.2717
     91  CB        38.1100   91.4410    3.9280 C.3   235  THR235      0.1784
     92  OG1       39.0080   91.4790    2.8090 O.3   235  THR235     -0.2211
     93  CG2       38.7860   92.0580    5.2070 C.3   235  THR235      0.0376
     94  N         35.8660   89.8830    2.4920 N.am  236  ALA236     -0.1965
     95  CA        35.2300   89.5820    1.2120 C.3   236  ALA236      0.1728
     96  C         34.4790   90.8350    0.7360 C.2   236  ALA236      0.2616
     97  O         34.2030   91.7310    1.5170 O.2   236  ALA236     -0.2715
     98  CB        34.2820   88.4100    1.3010 C.3   236  ALA236      0.0334
     99  N         34.1930   90.8810   -0.5530 N.am  237  GLU237     -0.1977
    100  CA        33.4260   91.9500   -1.1690 C.3   237  GLU237      0.1602
    101  C         32.0120   91.4470   -1.3360 C.2   237  GLU237      0.2287
    102  O         31.7820   90.3960   -1.9310 O.2   237  GLU237     -0.2864
    103  CB        34.0100   92.3200   -2.5320 C.3   237  GLU237      0.0415
    104  CG        35.4230   92.8350   -2.4260 C.3   237  GLU237      0.1163
    105  CD        36.1360   93.0120   -3.7540 C.2   237  GLU237      0.3649
    106  OE1       35.9800   92.1860   -4.6700 O.co2 237  GLU237     -0.2457
    107  OE2       36.8890   93.9890   -3.8580 O.co2 237  GLU237     -0.2457
@<TRIPOS>BOND
     1    34    33    1
     2    34    28    1
     3    33    32    1
     4    31    30    2
     5    28    29    1
     6    32    29    1
     7    30    29    1
     8    30    35   am
     9    36    35    1
    10    36    37    1
    11    36    39    1
    12    37    38    2
    13    41    39    1
    14    39    40    1
    15    42    43    1
    16    24    23    2
    17   106   105   ar
    18    44    43    1
    19    44    45    2
    20    43    46    1
    21    23    22    1
    22   107   105   ar
    23    22    21    1
    24    22    25    1
    25   105   104    1
    26    27    25    1
    27    25    26    1
    28    50    49    1
    29    46    47    1
    30   103   104    1
    31   103   100    1
    32    47    48    1
    33    78    76   am
    34   102   101    2
    35    49    48    1
    36    12    11    2
    37   101   100    1
    38   100    99    1
    39    76    77    2
    40    76    75    1
    41    10    13    1
    42    10    11    1
    43    10     9    1
    44    99    96   am
    45    11    14   am
    46    17    16    2
    47    75    72    1
    48    16    15    1
    49    96    95    1
    50    96    97    2
    51    14    15    1
    52    15    18    1
    53    95    98    1
    54    95    94    1
    55    72    73    1
    56    72    71    1
    57    74    73    2
    58    73    79   am
    59    86    84    1
    60    90    89    2
    61    94    89   am
    62    18    19    1
    63    18    20    1
    64     4     3    2
    65    92    91    1
    66    89    88    1
    67    63    61    1
    68     8     6    1
    69     1     2    1
    70    79    80    1
    71     2     3    1
    72     2     5    1
    73    84    85    1
    74    84    83    1
    75    62    61    1
    76    80    83    1
    77    80    81    1
    78    91    88    1
    79    91    93    1
    80    61    60    1
    81     6     5    1
    82     6     7    1
    83    88    87    1
    84    60    57    1
    85    81    82    2
    86    55    52    1
    87    54    53    2
    88    57    56    1
    89    57    58    1
    90    69    68    1
    91    52    53    1
    92    52    51    1
    93    68    70    1
    94    68    65    1
    95    58    59    2
    96    66    65    1
    97    66    67    2
    98    65    64    1
