@<TRIPOS>MOLECULE
tmp/3kgqA00.pdb
 126 117 0 0 0
SMALL
GASTEIGER

@<TRIPOS>ATOM
      1  N          2.5530    8.0150    4.6750 N.3    67  HIS67      -0.1241
      2  CA         1.6810    7.3210    3.7390 C.3    67  HIS67       0.1621
      3  C          0.2570    7.7820    4.0270 C.2    67  HIS67       0.2264
      4  O         -0.3050    7.4750    5.0810 O.2    67  HIS67      -0.2867
      5  CB         1.8070    5.8120    3.9270 C.3    67  HIS67       0.0745
      6  CG         3.1130    5.2540    3.4570 C.ar   67  HIS67       0.0817
      7  ND1        3.7620    4.2310    4.1100 N.ar   67  HIS67      -0.2268
      8  CD2        3.8880    5.5730    2.3920 C.ar   67  HIS67       0.1154
      9  CE1        4.8840    3.9470    3.4740 C.ar   67  HIS67       0.1986
     10  NE2        4.9840    4.7460    2.4290 N.ar   67  HIS67      -0.2212
     11  N         -3.0090    5.9950    5.6410 N.3    70  GLU70      -0.1245
     12  CA        -2.9170    5.4310    6.9870 C.3    70  GLU70       0.1567
     13  C         -3.4960    6.4160    8.0130 C.2    70  GLU70       0.2260
     14  O         -2.7990    6.9160    8.8970 O.2    70  GLU70      -0.2867
     15  CB        -1.4720    4.9980    7.2870 C.3    70  GLU70       0.0388
     16  CG        -0.9250    4.0400    6.2240 C.3    70  GLU70       0.1160
     17  CD         0.5760    3.8020    6.3120 C.2    70  GLU70       0.3649
     18  OE1        1.2330    4.2990    7.2520 O.co2  70  GLU70      -0.2457
     19  OE2        1.1030    3.1050    5.4220 O.co2  70  GLU70      -0.2457
     20  N         -1.3200    6.3420   -1.2810 N.3   125  ARG125     -0.1245
     21  CA        -0.1830    6.0920   -0.3950 C.3   125  ARG125      0.1563
     22  C          0.9360    7.1030   -0.6130 C.2   125  ARG125      0.2260
     23  O          1.5390    7.5910    0.3480 O.2   125  ARG125     -0.2867
     24  CB         0.3360    4.6610   -0.6150 C.3   125  ARG125      0.0307
     25  CG         1.7030    4.3360   -0.0210 C.3   125  ARG125      0.0489
     26  CD         2.0100    2.8530   -0.2520 C.3   125  ARG125      0.2205
     27  NE         3.3800    2.4750    0.0860 N.pl3 125  ARG125     -0.0865
     28  CZ         3.7470    1.8590    1.2120 C.cat 125  ARG125      0.5346
     29  NH1        2.8520    1.5500    2.1440 N.pl3 125  ARG125      0.1354
     30  NH2        5.0200    1.5530    1.4080 N.pl3 125  ARG125      0.1354
     31  N          8.3730    6.7080    1.8680 N.3   142  ASN142     -0.1225
     32  CA         9.1410    5.7890    2.7160 C.3   142  ASN142      0.1785
     33  C         10.0000    4.7800    1.9380 C.2   142  ASN142      0.2597
     34  O         10.4260    3.7530    2.4870 O.2   142  ASN142     -0.2718
     35  CB         8.2620    5.0930    3.7760 C.3   142  ASN142      0.1169
     36  CG         9.0410    4.7620    5.0480 C.2   142  ASN142      0.2627
     37  OD1        9.9860    5.4700    5.4120 O.2   142  ASN142     -0.2716
     38  ND2        8.6520    3.6850    5.7220 N.am  142  ASN142     -0.0877
     39  N         10.2480    5.0820    0.6590 N.am  143  ARG143     -0.1979
     40  CA        11.2560    4.3730   -0.1380 C.3   143  ARG143      0.1597
     41  C         12.2660    5.3570   -0.7300 C.2   143  ARG143      0.2287
     42  O         13.1380    4.9680   -1.5120 O.2   143  ARG143     -0.2864
     43  CB        10.6130    3.5630   -1.2780 C.3   143  ARG143      0.0334
     44  CG         9.6700    2.4530   -0.8350 C.3   143  ARG143      0.0492
     45  CD        10.3800    1.3740   -0.0390 C.3   143  ARG143      0.2205
     46  NE         9.4870    0.2660    0.2960 N.pl3 143  ARG143     -0.0865
     47  CZ         8.6100    0.2920    1.2960 C.cat 143  ARG143      0.5346
     48  NH1        8.5050    1.3730    2.0610 N.pl3 143  ARG143      0.1354
     49  NH2        7.8330   -0.7570    1.5270 N.pl3 143  ARG143      0.1354
     50  N          3.2480    4.5010   11.2940 N.3   194  HIS194     -0.1226
     51  CA         2.5400    3.9520   10.1480 C.3   194  HIS194      0.1752
     52  C          1.3750    3.0800   10.6140 C.2   194  HIS194      0.2596
     53  O          1.2030    2.8390   11.8020 O.2   194  HIS194     -0.2718
     54  CB         3.4970    3.0780    9.3330 C.3   194  HIS194      0.0759
     55  CG         4.5280    3.8450    8.5710 C.ar  194  HIS194      0.0818
     56  ND1        4.4740    4.0080    7.2020 N.ar  194  HIS194     -0.2268
     57  CD2        5.6430    4.4910    8.9830 C.ar  194  HIS194      0.1154
     58  CE1        5.5210    4.7110    6.8060 C.ar  194  HIS194      0.1986
     59  NE2        6.2380    5.0280    7.8680 N.ar  194  HIS194     -0.2212
     60  N          0.5660    2.6170    9.6630 N.am  195  SER195     -0.1952
     61  CA        -0.3380    1.4960    9.9090 C.3   195  SER195      0.1924
     62  C         -0.3750    0.6570    8.6280 C.2   195  SER195      0.2314
     63  O          0.0260    1.1460    7.5670 O.2   195  SER195     -0.2863
     64  CB        -1.7320    1.9920   10.3050 C.3   195  SER195      0.2116
     65  OG        -2.4960    2.3390    9.1670 O.3   195  SER195     -0.2180
     66  N          9.0530   -1.9110   14.9090 N.3   201  LEU201     -0.1245
     67  CA        10.1890   -2.2880   14.0960 C.3   201  LEU201      0.1561
     68  C         11.3960   -1.4090   14.3450 C.2   201  LEU201      0.2260
     69  O         11.2650   -0.2080   14.5720 O.2   201  LEU201     -0.2867
     70  CB         9.8140   -2.2030   12.6170 C.3   201  LEU201      0.0270
     71  CG         8.4680   -2.7920   12.1940 C.3   201  LEU201      0.0019
     72  CD1        8.1100   -2.2470   10.8150 C.3   201  LEU201      0.0001
     73  CD2        8.5280   -4.3140   12.2070 C.3   201  LEU201      0.0001
     74  N         12.8950   -4.4970   10.6410 N.3   241  ILE241     -0.1245
     75  CA        11.9760   -4.3800    9.5120 C.3   241  ILE241      0.1561
     76  C         12.0630   -5.6320    8.6440 C.2   241  ILE241      0.2260
     77  O         11.0500   -6.2830    8.3730 O.2   241  ILE241     -0.2867
     78  CB        12.2590   -3.1200    8.6520 C.3   241  ILE241      0.0252
     79  CG1       12.0200   -1.8390    9.4640 C.3   241  ILE241      0.0019
     80  CG2       11.3870   -3.1190    7.3770 C.3   241  ILE241      0.0019
     81  CD1       12.7360   -0.6240    8.9060 C.3   241  ILE241      0.0001
     82  N          8.5090   -7.5480    8.9480 N.3   245  ILE245     -0.1231
     83  CA         7.4910   -7.1970    7.9590 C.3   245  ILE245      0.1692
     84  C          7.9140   -7.6280    6.5450 C.2   245  ILE245      0.2592
     85  O          7.2750   -8.4900    5.9420 O.2   245  ILE245     -0.2718
     86  CB         7.0010   -5.7030    8.0750 C.3   245  ILE245      0.0266
     87  CG1        5.7030   -5.5040    7.2740 C.3   245  ILE245      0.0019
     88  CG2        8.1010   -4.6950    7.6870 C.3   245  ILE245      0.0020
     89  CD1        5.0490   -4.1380    7.4160 C.3   245  ILE245      0.0001
     90  N          8.9910   -7.0330    6.0330 N.am  246  TYR246     -0.1976
     91  CA         9.5710   -7.3900    4.7360 C.3   246  TYR246      0.1639
     92  C         10.8100   -6.5530    4.4590 C.2   246  TYR246      0.2290
     93  O         11.0700   -5.5740    5.1560 O.2   246  TYR246     -0.2864
     94  CB         8.5670   -7.2220    3.5740 C.3   246  TYR246      0.0560
     95  CG         7.6890   -5.9850    3.6220 C.ar  246  TYR246     -0.0198
     96  CD1        6.3050   -6.1020    3.7280 C.ar  246  TYR246     -0.0009
     97  CD2        8.2340   -4.7030    3.5530 C.ar  246  TYR246     -0.0009
     98  CE1        5.4840   -4.9820    3.7630 C.ar  246  TYR246      0.0417
     99  CE2        7.4140   -3.5670    3.5940 C.ar  246  TYR246      0.0417
    100  CZ         6.0420   -3.7190    3.7050 C.ar  246  TYR246      0.1957
    101  OH         5.2220   -2.6120    3.7430 O.3   246  TYR246     -0.2866
    102  N         12.6540   -3.7030    2.6760 N.3   248  ALA248     -0.1245
    103  CA        12.2280   -2.3890    2.2050 C.3   248  ALA248      0.1562
    104  C         13.4380   -1.4740    2.1880 C.2   248  ALA248      0.2260
    105  O         14.1680   -1.3750    3.1810 O.2   248  ALA248     -0.2867
    106  CB        11.1450   -1.8120    3.1070 C.3   248  ALA248      0.0290
    107  N         14.1350    3.5370    3.4790 N.3   251  GLY251     -0.1225
    108  CA        13.1810    3.8090    4.5560 C.3   251  GLY251      0.1811
    109  C         13.7050    4.8150    5.5640 C.2   251  GLY251      0.2280
    110  O         14.9170    4.9680    5.7160 O.2   251  GLY251     -0.2866
    111  N          9.9770    2.2020   13.9260 N.3   266  THR266     -0.1218
    112  CA         8.7520    2.3870   13.1560 C.3   266  THR266      0.1862
    113  C          7.6050    1.6040   13.7940 C.2   266  THR266      0.2287
    114  O          7.7150    0.3910   14.0280 O.2   266  THR266     -0.2866
    115  CB         8.9300    1.9810   11.6810 C.3   266  THR266      0.1770
    116  OG1        9.9140    2.8190   11.0710 O.3   266  THR266     -0.2211
    117  CG2        7.6190    2.1280   10.9140 C.3   266  THR266      0.0375
    118  N          3.7470    0.2000   13.4260 N.3   268  GLU268     -0.1245
    119  CA         2.6640   -0.1350   12.5230 C.3   268  GLU268      0.1567
    120  C          1.4700   -0.3320   13.4340 C.2   268  GLU268      0.2260
    121  O          1.4070   -1.3130   14.1590 O.2   268  GLU268     -0.2867
    122  CB         2.9720   -1.4230   11.7570 C.3   268  GLU268      0.0388
    123  CG         4.2390   -1.3520   10.9090 C.3   268  GLU268      0.1160
    124  CD         4.0920   -0.4370    9.7040 C.2   268  GLU268      0.3649
    125  OE1        2.9470   -0.2380    9.2260 O.co2 268  GLU268     -0.2457
    126  OE2        5.1300    0.0820    9.2350 O.co2 268  GLU268     -0.2457
@<TRIPOS>BOND
     1    42    41    2
     2    20    21    1
     3    43    44    1
     4    43    40    1
     5    44    45    1
     6    41    40    1
     7    24    21    1
     8    24    25    1
     9    22    21    1
    10    22    23    2
    11    26    25    1
    12    26    27    1
    13    40    39    1
    14    45    46    1
    15    27    28    2
    16    46    47    2
    17    39    33   am
    18    28    30    1
    19    28    29    1
    20    47    49    1
    21    47    48    1
    22    31    32    1
    23    33    34    2
    24    33    32    1
    25   104   103    1
    26   104   105    2
    27   103   102    1
    28   103   106    1
    29     8    10   ar
    30     8     6   ar
    31    10     9   ar
    32    32    35    1
    33     6     5    1
    34     6     7   ar
    35     9     7   ar
    36   107   108    1
    37    97    99   ar
    38    97    95   ar
    39    94    95    1
    40    94    91    1
    41    99   100   ar
    42    95    96   ar
    43   100   101    1
    44   100    98   ar
    45    96    98   ar
    46     2     5    1
    47     2     3    1
    48     2     1    1
    49    35    36    1
    50     3     4    2
    51    92    91    1
    52    92    93    2
    53   108   109    1
    54    91    90    1
    55    36    37    2
    56    36    38   am
    57    19    17   ar
    58   109   110    2
    59    11    12    1
    60    85    84    2
    61    90    84   am
    62    16    17    1
    63    16    15    1
    64    17    18   ar
    65    84    83    1
    66    58    56   ar
    67    58    59   ar
    68    12    15    1
    69    12    13    1
    70    56    55   ar
    71    87    89    1
    72    87    86    1
    73    80    78    1
    74    63    62    2
    75    88    86    1
    76    59    57   ar
    77    83    86    1
    78    83    82    1
    79    13    14    2
    80    77    76    2
    81    55    57   ar
    82    55    54    1
    83    62    61    1
    84    76    75    1
    85    78    79    1
    86    78    75    1
    87    81    79    1
    88    65    64    1
    89   125   124   ar
    90   126   124   ar
    91    54    51    1
    92    75    74    1
    93    60    61    1
    94    60    52   am
    95   124   123    1
    96    61    64    1
    97    51    52    1
    98    51    50    1
    99    52    53    2
   100    72    71    1
   101   123   122    1
   102   117   115    1
   103   116   115    1
   104   115   112    1
   105   122   119    1
   106    71    73    1
   107    71    70    1
   108   119   118    1
   109   119   120    1
   110    70    67    1
   111   112   113    1
   112   112   111    1
   113   120   121    2
   114   113   114    2
   115    67    68    1
   116    67    66    1
   117    68    69    2
