@<TRIPOS>MOLECULE
tmp/3kgtA00.pdb
 79 70 0 0 0
SMALL
GASTEIGER

@<TRIPOS>ATOM
      1  N         18.1590   31.6810   31.5410 N.3     4  MET4       -0.1245
      2  CA        19.4700   32.3190   31.4370 C.3     4  MET4        0.1570
      3  C         19.9480   32.6890   32.8400 C.2     4  MET4        0.2261
      4  O         19.1490   33.0870   33.6780 O.2     4  MET4       -0.2867
      5  CB        19.3810   33.5790   30.5640 C.3     4  MET4        0.0387
      6  CG        20.7490   34.2020   30.2030 C.3     4  MET4        0.0595
      7  SD        21.3300   35.4900   31.3420 S.3     4  MET4       -0.1393
      8  CE        20.6290   36.9610   30.5940 C.3     4  MET4        0.0692
      9  N         22.8700   35.0450   34.9120 N.3     6  LYS6       -0.1245
     10  CA        23.8580   36.1180   34.8780 C.3     6  LYS6        0.1561
     11  C         24.5120   36.2730   36.2480 C.2     6  LYS6        0.2260
     12  O         23.8190   36.3690   37.2630 O.2     6  LYS6       -0.2867
     13  CB        23.1910   37.4210   34.4520 C.3     6  LYS6        0.0271
     14  CG        24.0960   38.6260   34.5060 C.3     6  LYS6        0.0035
     15  CD        23.6110   39.7050   33.5610 C.3     6  LYS6        0.0206
     16  CE        24.7900   40.5270   33.0430 C.3     6  LYS6        0.1093
     17  NZ        24.3710   41.3090   31.8400 N.3     6  LYS6       -0.1314
     18  N         27.5950   38.2430   38.5790 N.3     8  LEU8       -0.1245
     19  CA        28.4270   39.4320   38.7180 C.3     8  LEU8        0.1561
     20  C         29.3290   39.3370   39.9430 C.2     8  LEU8        0.2260
     21  O         28.9620   38.7390   40.9630 O.2     8  LEU8       -0.2867
     22  CB        27.5410   40.6680   38.8250 C.3     8  LEU8        0.0270
     23  CG        26.6340   40.9480   37.6140 C.3     8  LEU8        0.0019
     24  CD1       25.8080   42.1370   37.9390 C.3     8  LEU8        0.0001
     25  CD2       27.4670   41.2200   36.3490 C.3     8  LEU8        0.0001
     26  N         27.3730   35.6640   31.5360 N.3    45  GLU45      -0.1245
     27  CA        26.0740   35.0980   31.2000 C.3    45  GLU45       0.1567
     28  C         26.1910   33.6550   30.7210 C.2    45  GLU45       0.2260
     29  O         27.1900   33.2640   30.1160 O.2    45  GLU45      -0.2867
     30  CB        25.3610   35.9580   30.1420 C.3    45  GLU45       0.0388
     31  CG        25.0420   37.3750   30.6290 C.3    45  GLU45       0.1160
     32  CD        24.2770   38.2120   29.6130 C.2    45  GLU45       0.3649
     33  OE1       24.2840   37.8820   28.4100 O.co2  45  GLU45      -0.2457
     34  OE2       23.6640   39.2120   30.0250 O.co2  45  GLU45      -0.2457
     35  N         15.2980   34.7840   33.9260 N.3    97  THR97      -0.1218
     36  CA        16.6650   35.2510   34.0890 C.3    97  THR97       0.1862
     37  C         16.9930   35.2180   35.5780 C.2    97  THR97       0.2287
     38  O         16.3170   35.8630   36.3800 O.2    97  THR97      -0.2866
     39  CB        16.8630   36.6740   33.5230 C.3    97  THR97       0.1770
     40  OG1       16.6500   36.6520   32.1050 O.3    97  THR97      -0.2211
     41  CG2       18.2850   37.1670   33.8010 C.3    97  THR97       0.0375
     42  N         19.7800   36.1730   38.2710 N.3    99  ALA99      -0.1231
     43  CA        20.9560   36.9950   38.4550 C.3    99  ALA99       0.1694
     44  C         21.5290   36.7110   39.8260 C.2    99  ALA99       0.2592
     45  O         20.7940   36.6440   40.8120 O.2    99  ALA99      -0.2718
     46  CB        20.6040   38.4480   38.3110 C.3    99  ALA99       0.0304
     47  N         22.8440   36.5310   39.8790 N.am  100  ALA100     -0.1966
     48  CA        23.5380   36.3470   41.1400 C.3   100  ALA100      0.1728
     49  C         24.6430   37.3790   41.2710 C.2   100  ALA100      0.2616
     50  O         25.4480   37.5760   40.3460 O.2   100  ALA100     -0.2715
     51  CB        24.0970   34.9380   41.2280 C.3   100  ALA100      0.0334
     52  N         24.6760   38.0460   42.4180 N.am  101  LEU101     -0.1977
     53  CA        25.7190   39.0150   42.7280 C.3   101  LEU101      0.1596
     54  C         26.5910   38.4410   43.8490 C.2   101  LEU101      0.2287
     55  O         26.0870   38.1490   44.9490 O.2   101  LEU101     -0.2864
     56  CB        25.0830   40.3420   43.1690 C.3   101  LEU101      0.0297
     57  CG        26.0570   41.4460   43.5750 C.3   101  LEU101      0.0022
     58  CD1       26.8790   41.9350   42.3680 C.3   101  LEU101      0.0001
     59  CD2       25.3140   42.5840   44.2480 C.3   101  LEU101      0.0001
     60  N         23.6250   37.5570   46.5930 N.3   108  SER108     -0.1217
     61  CA        22.2610   37.9710   46.3650 C.3   108  SER108      0.1889
     62  C         21.8080   37.3050   45.0830 C.2   108  SER108      0.2288
     63  O         22.5860   37.2140   44.1170 O.2   108  SER108     -0.2866
     64  CB        22.1930   39.4930   46.2130 C.3   108  SER108      0.2089
     65  OG        22.6980   40.1450   47.3670 O.3   108  SER108     -0.2183
     66  N         18.3490   37.1390   42.3340 N.3   110  THR110     -0.1218
     67  CA        17.0860   37.7030   41.8960 C.3   110  THR110      0.1862
     68  C         16.6140   36.9700   40.6460 C.2   110  THR110      0.2287
     69  O         17.4360   36.4270   39.9010 O.2   110  THR110     -0.2866
     70  CB        17.2570   39.1930   41.5730 C.3   110  THR110      0.1770
     71  OG1       18.0520   39.8080   42.5920 O.3   110  THR110     -0.2211
     72  CG2       15.9160   39.8800   41.5060 C.3   110  THR110      0.0375
     73  N         14.1820   37.5340   37.1940 N.3   112  VAL112     -0.1245
     74  CA        13.3460   38.3400   36.3200 C.3   112  VAL112      0.1561
     75  C         12.5480   37.3460   35.5080 C.2   112  VAL112      0.2260
     76  O         13.1230   36.5270   34.7880 O.2   112  VAL112     -0.2867
     77  CB        14.1690   39.2340   35.3640 C.3   112  VAL112      0.0252
     78  CG1       13.2420   40.1000   34.5130 C.3   112  VAL112      0.0019
     79  CG2       15.1800   40.0890   36.1420 C.3   112  VAL112      0.0019
@<TRIPOS>BOND
     1    33    32   ar
     2    32    34   ar
     3    32    31    1
     4    29    28    2
     5    30    31    1
     6    30    27    1
     7     6     5    1
     8     6     7    1
     9     5     2    1
    10     8     7    1
    11    28    27    1
    12    27    26    1
    13     2     1    1
    14     2     3    1
    15    17    16    1
    16    40    39    1
    17     3     4    2
    18    16    15    1
    19    39    41    1
    20    39    36    1
    21    15    14    1
    22    35    36    1
    23    36    37    1
    24    13    14    1
    25    13    10    1
    26    78    77    1
    27    76    75    2
    28    10     9    1
    29    10    11    1
    30    77    79    1
    31    77    74    1
    32    75    74    1
    33    37    38    2
    34    11    12    2
    35    74    73    1
    36    25    23    1
    37    23    24    1
    38    23    22    1
    39    42    43    1
    40    46    43    1
    41    43    44    1
    42    18    19    1
    43    19    22    1
    44    19    20    1
    45    44    47   am
    46    44    45    2
    47    47    48    1
    48    69    68    2
    49    20    21    2
    50    50    49    2
    51    68    67    1
    52    48    51    1
    53    48    49    1
    54    49    52   am
    55    72    70    1
    56    70    67    1
    57    70    71    1
    58    67    66    1
    59    58    57    1
    60    52    53    1
    61    53    56    1
    62    53    54    1
    63    56    57    1
    64    57    59    1
    65    54    55    2
    66    63    62    2
    67    62    61    1
    68    64    61    1
    69    64    65    1
    70    61    60    1
