@<TRIPOS>MOLECULE
tmp/3kgwB00.pdb
 95 89 0 0 0
SMALL
GASTEIGER

@<TRIPOS>ATOM
      1  N          2.8790   19.1370   24.1740 N.3    81  SER81      -0.1202
      2  CA         3.5600   19.0230   25.4970 C.3    81  SER81       0.2020
      3  C          4.1640   20.1910   26.2780 C.2    81  SER81       0.2619
      4  O          4.1870   21.3500   25.8510 O.2    81  SER81      -0.2717
      5  CB         4.7700   18.1390   25.2880 C.3    81  SER81       0.2103
      6  OG         5.8360   18.8820   24.7220 O.3    81  SER81      -0.2182
      7  N          4.7550   19.8090   27.4150 N.am   82  GLY82      -0.1942
      8  CA         5.3390   20.7530   28.3400 C.3    82  GLY82       0.2014
      9  C          4.3080   21.8500   28.5040 C.2    82  GLY82       0.2638
     10  O          3.1780   21.6070   28.9210 O.2    82  GLY82      -0.2714
     11  N          4.6840   23.0680   28.1540 N.am   83  HIS83      -0.1973
     12  CA         3.7360   24.1440   28.2680 C.3    83  HIS83       0.1656
     13  C          3.1670   24.5570   26.8950 C.2    83  HIS83       0.2291
     14  O          2.8510   25.7150   26.7280 O.2    83  HIS83      -0.2864
     15  CB         4.3490   25.3250   29.0570 C.3    83  HIS83       0.0771
     16  CG         4.7530   24.9790   30.4680 C.ar   83  HIS83       0.0820
     17  ND1        4.0720   25.4390   31.5760 N.ar   83  HIS83      -0.2267
     18  CD2        5.7550   24.2000   30.9470 C.ar   83  HIS83       0.1154
     19  CE1        4.6490   24.9790   32.6760 C.ar   83  HIS83       0.1986
     20  NE2        5.6800   24.2300   32.3230 N.ar   83  HIS83      -0.2212
     21  N          7.8290   30.9550   33.4280 N.3   108  TRP108     -0.1241
     22  CA         6.5330   30.6790   32.7350 C.3   108  TRP108      0.1605
     23  C          5.7570   31.9490   32.3640 C.2   108  TRP108      0.2264
     24  O          5.2000   32.0320   31.2620 O.2   108  TRP108     -0.2867
     25  CB         5.7080   29.6130   33.4620 C.3   108  TRP108      0.0550
     26  CG         6.5620   28.3260   33.5890 C.ar  108  TRP108      0.0003
     27  CD1        7.0340   27.7630   34.7230 C.ar  108  TRP108      0.0946
     28  CD2        7.1380   27.6030   32.5150 C.ar  108  TRP108      0.0152
     29  NE1        7.8080   26.6660   34.4260 N.ar  108  TRP108     -0.2442
     30  CE2        7.9210   26.5630   33.0730 C.ar  108  TRP108      0.0810
     31  CE3        7.0740   27.7200   31.1270 C.ar  108  TRP108      0.0012
     32  CZ2        8.6250   25.6340   32.2700 C.ar  108  TRP108      0.0191
     33  CZ3        7.7740   26.8280   30.3340 C.ar  108  TRP108      0.0001
     34  CH2        8.5360   25.7760   30.9060 C.ar  108  TRP108      0.0015
     35  N          0.6380   31.4460   37.3110 N.3   154  VAL154     -0.1245
     36  CA         1.2250   30.0910   37.3950 C.3   154  VAL154      0.1561
     37  C          0.9430   29.5440   38.7670 C.2   154  VAL154      0.2260
     38  O          1.2780   30.1870   39.7610 O.2   154  VAL154     -0.2867
     39  CB         2.7350   30.1260   37.1170 C.3   154  VAL154      0.0252
     40  CG1        3.2990   28.7060   37.2750 C.3   154  VAL154      0.0019
     41  CG2        2.9880   30.6940   35.7050 C.3   154  VAL154      0.0019
     42  N          1.9290   26.2480   39.9200 N.3   156  GLY156     -0.1225
     43  CA         3.1990   25.5860   40.3090 C.3   156  GLY156      0.1811
     44  C          4.2950   26.1470   39.4490 C.2   156  GLY156      0.2280
     45  O          4.4050   25.7850   38.3000 O.2   156  GLY156     -0.2866
     46  N          7.5020   25.8690   38.3370 N.3   158  SER158     -0.1217
     47  CA         8.5730   24.8560   38.3200 C.3   158  SER158      0.1889
     48  C          9.9970   25.4110   38.2060 C.2   158  SER158      0.2288
     49  O         10.9360   24.7080   38.5470 O.2   158  SER158     -0.2866
     50  CB         8.3090   23.8200   37.2160 C.3   158  SER158      0.2089
     51  OG         8.4230   24.3690   35.9120 O.3   158  SER158     -0.2183
     52  N         -1.9120   28.0580   34.9430 N.3   183  ASP183     -0.1239
     53  CA        -0.9880   26.9600   34.5690 C.3   183  ASP183      0.1674
     54  C         -0.8370   26.0690   35.8070 C.2   183  ASP183      0.2266
     55  O         -0.3230   26.5150   36.8330 O.2   183  ASP183     -0.2867
     56  CB         0.3540   27.5480   34.1330 C.3   183  ASP183      0.1410
     57  CG         1.4100   26.4900   33.8040 C.2   183  ASP183      0.3668
     58  OD1        1.4570   25.4450   34.4970 O.co2 183  ASP183     -0.2456
     59  OD2        2.1890   26.7920   32.8770 O.co2 183  ASP183     -0.2456
     60  N          0.5410   22.8330   35.2820 N.3   185  VAL185     -0.1231
     61  CA         1.4240   21.7580   34.7370 C.3   185  VAL185      0.1692
     62  C          2.2070   21.0500   35.8600 C.2   185  VAL185      0.2591
     63  O          2.2070   19.8230   35.9240 O.2   185  VAL185     -0.2718
     64  CB         2.3740   22.3310   33.6360 C.3   185  VAL185      0.0266
     65  CG1        3.5300   21.3560   33.2590 C.3   185  VAL185      0.0020
     66  CG2        1.5910   22.7300   32.3720 C.3   185  VAL185      0.0020
     67  N          2.7970   21.8230   36.7840 N.am  186  ALA186     -0.1980
     68  CA         3.6500   21.2400   37.8300 C.3   186  ALA186      0.1597
     69  C          2.9660   20.9540   39.1610 C.2   186  ALA186      0.2287
     70  O          3.6000   20.3580   40.0490 O.2   186  ALA186     -0.2864
     71  CB         4.8360   22.1420   38.0500 C.3   186  ALA186      0.0319
     72  N         -0.2890   19.1620   32.1070 N.3   206  SER206     -0.1217
     73  CA         0.4060   18.2380   31.2040 C.3   206  SER206      0.1889
     74  C          0.4230   16.8360   31.7660 C.2   206  SER206      0.2288
     75  O          0.1210   16.6270   32.9400 O.2   206  SER206     -0.2866
     76  CB         1.8330   18.7250   30.9440 C.3   206  SER206      0.2089
     77  OG         1.8330   19.9720   30.2800 O.3   206  SER206     -0.2183
     78  N          3.1980   14.6140   31.9100 N.3   208  GLN208     -0.1231
     79  CA         4.4870   14.0780   32.4190 C.3   208  GLN208      0.1698
     80  C          5.0030   14.4570   33.7730 C.2   208  GLN208      0.2592
     81  O          6.1380   14.0980   34.1020 O.2   208  GLN208     -0.2718
     82  CB         5.6150   14.2940   31.3680 C.3   208  GLN208      0.0381
     83  CG         6.3000   15.6520   31.3220 C.3   208  GLN208      0.0905
     84  CD         5.4700   16.7830   30.7470 C.2   208  GLN208      0.2608
     85  OE1        4.3130   16.6040   30.3550 O.2   208  GLN208     -0.2717
     86  NE2        6.0870   17.9540   30.6450 N.am  208  GLN208     -0.0878
     87  N          4.2000   15.1860   34.5570 N.am  209  LYS209     -0.1980
     88  CA         4.6070   15.6160   35.8870 C.3   209  LYS209      0.1596
     89  C          3.9570   14.6650   36.8720 C.2   209  LYS209      0.2287
     90  O          4.3150   13.4590   36.8650 O.2   209  LYS209     -0.2864
     91  CB         4.3540   17.1190   36.1220 C.3   209  LYS209      0.0298
     92  CG         5.4970   18.0430   35.6800 C.3   209  LYS209      0.0038
     93  CD         5.7710   18.0300   34.2120 C.3   209  LYS209      0.0206
     94  CE         6.5350   19.2910   33.7780 C.3   209  LYS209      0.1093
     95  NZ         7.8840   19.4290   34.3580 N.3   209  LYS209     -0.1314
@<TRIPOS>BOND
     1     1     2    1
     2     6     5    1
     3     5     2    1
     4     2     3    1
     5     4     3    2
     6     3     7   am
     7    14    13    2
     8    13    12    1
     9     7     8    1
    10    11    12    1
    11    11     9   am
    12    12    15    1
    13     8     9    1
    14     9    10    2
    15    15    16    1
    16    77    76    1
    17    33    34   ar
    18    33    31   ar
    19    85    84    2
    20    16    18   ar
    21    16    17   ar
    22    86    84   am
    23    84    83    1
    24    34    32   ar
    25    76    73    1
    26    18    20   ar
    27    31    28   ar
    28    73    74    1
    29    73    72    1
    30    24    23    2
    31    83    82    1
    32    82    79    1
    33    17    19   ar
    34    74    75    2
    35    78    79    1
    36    32    30   ar
    37    20    19   ar
    38    23    22    1
    39    66    64    1
    40    79    80    1
    41    28    30   ar
    42    28    26   ar
    43    22    21    1
    44    22    25    1
    45    59    57   ar
    46    30    29   ar
    47    65    64    1
    48    25    26    1
    49    26    27   ar
    50    64    61    1
    51    80    81    2
    52    80    87   am
    53    94    93    1
    54    94    95    1
    55    57    56    1
    56    57    58   ar
    57    56    53    1
    58    93    92    1
    59    29    27   ar
    60    87    88    1
    61    53    52    1
    62    53    54    1
    63    61    60    1
    64    61    62    1
    65    92    91    1
    66    41    39    1
    67    54    55    2
    68    62    63    2
    69    62    67   am
    70    88    91    1
    71    88    89    1
    72    51    50    1
    73    67    68    1
    74    90    89    2
    75    39    40    1
    76    39    36    1
    77    50    47    1
    78    35    36    1
    79    36    37    1
    80    68    71    1
    81    68    69    1
    82    48    47    1
    83    48    49    2
    84    45    44    2
    85    47    46    1
    86    37    38    2
    87    69    70    2
    88    44    43    1
    89    42    43    1
