@<TRIPOS>MOLECULE
tmp/3kgyA00.pdb
 198 191 0 0 0
SMALL
GASTEIGER

@<TRIPOS>ATOM
      1  N         42.9600   15.4930   25.6070 N.3    12  ASN12      -0.1225
      2  CA        42.2650   16.0740   24.4580 C.3    12  ASN12       0.1785
      3  C         43.1300   15.7780   23.2500 C.2    12  ASN12       0.2597
      4  O         44.1710   16.4030   23.0950 O.2    12  ASN12      -0.2718
      5  CB        41.9720   17.5620   24.6590 C.3    12  ASN12       0.1169
      6  CG        41.2060   18.1680   23.5230 C.2    12  ASN12       0.2627
      7  OD1       41.7310   18.2390   22.4020 O.2    12  ASN12      -0.2716
      8  ND2       39.9920   18.6330   23.7920 N.am   12  ASN12      -0.0877
      9  N         42.7040   14.8520   22.3940 N.am   13  ILE13      -0.1966
     10  CA        43.5180   14.4100   21.2630 C.3    13  ILE13       0.1727
     11  C         42.6660   14.2890   20.0010 C.2    13  ILE13       0.2616
     12  O         41.4480   14.3550   20.0560 O.2    13  ILE13      -0.2715
     13  CB        44.2800   13.0870   21.5490 C.3    13  ILE13       0.0290
     14  CG1       43.3440   11.9160   21.9410 C.3    13  ILE13       0.0022
     15  CG2       45.2880   13.3920   22.6640 C.3    13  ILE13       0.0023
     16  CD1       42.6770   11.2260   20.7720 C.3    13  ILE13       0.0001
     17  N         43.3410   14.1940   18.8460 N.am   14  SER14      -0.1950
     18  CA        42.7360   13.9410   17.5590 C.3    14  SER14       0.1924
     19  C         43.0810   12.4960   17.2320 C.2    14  SER14       0.2314
     20  O         44.2320   12.0570   17.3430 O.2    14  SER14      -0.2863
     21  CB        43.2680   14.8770   16.4740 C.3    14  SER14       0.2116
     22  OG        42.9270   16.2150   16.7510 O.3    14  SER14      -0.2180
     23  N         44.2180    5.7120   15.6850 N.3    20  PHE20      -0.1241
     24  CA        45.6360    6.0130   15.7550 C.3    20  PHE20       0.1605
     25  C         45.8330    7.4990   16.0240 C.2    20  PHE20       0.2264
     26  O         45.0880    8.3340   15.5140 O.2    20  PHE20      -0.2867
     27  CB        46.3260    5.5920   14.4600 C.3    20  PHE20       0.0534
     28  CG        46.3580    4.1230   14.2500 C.ar   20  PHE20      -0.0203
     29  CD1       47.3240    3.3280   14.8720 C.ar   20  PHE20      -0.0042
     30  CD2       45.4330    3.5130   13.4310 C.ar   20  PHE20      -0.0042
     31  CE1       47.3590    1.9860   14.6800 C.ar   20  PHE20      -0.0003
     32  CE2       45.4440    2.1530   13.2600 C.ar   20  PHE20      -0.0003
     33  CZ        46.4100    1.3720   13.8710 C.ar   20  PHE20      -0.0000
     34  N         48.9950    8.7910   15.5440 N.3    21  ALA21      -0.1245
     35  CA        50.0880    9.1760   14.6720 C.3    21  ALA21       0.1562
     36  C         50.2130    8.0900   13.6170 C.2    21  ALA21       0.2260
     37  O         49.9880    6.8940   13.9150 O.2    21  ALA21      -0.2867
     38  CB        51.4040    9.3140   15.4510 C.3    21  ALA21       0.0290
     39  N         49.1710   12.9960    8.9590 N.3    40  TRP40      -0.1241
     40  CA        49.2200   13.8710   10.1180 C.3    40  TRP40       0.1605
     41  C         48.4470   15.1420    9.8760 C.2    40  TRP40       0.2264
     42  O         47.6670   15.5950   10.7310 O.2    40  TRP40      -0.2867
     43  CB        50.6720   14.2200   10.4470 C.3    40  TRP40       0.0550
     44  CG        50.8140   15.1790   11.5840 C.ar   40  TRP40       0.0003
     45  CD1       51.1840   16.4830   11.5060 C.ar   40  TRP40       0.0946
     46  CD2       50.5860   14.9110   12.9760 C.ar   40  TRP40       0.0152
     47  NE1       51.2130   17.0430   12.7610 N.ar   40  TRP40      -0.2442
     48  CE2       50.8300   16.1030   13.6760 C.ar   40  TRP40       0.0810
     49  CE3       50.2010   13.7780   13.6940 C.ar   40  TRP40       0.0012
     50  CZ2       50.7290   16.1970   15.0600 C.ar   40  TRP40       0.0191
     51  CZ3       50.0800   13.8780   15.0730 C.ar   40  TRP40       0.0001
     52  CH2       50.3100   15.0890   15.7410 C.ar   40  TRP40       0.0015
     53  N         44.7490   14.7550   10.1940 N.3    43  LEU43      -0.1245
     54  CA        44.3610   14.5870   11.5570 C.3    43  LEU43       0.1561
     55  C         44.2150   15.9250   12.3040 C.2    43  LEU43       0.2260
     56  O         43.2990   16.1010   13.1080 O.2    43  LEU43      -0.2867
     57  CB        45.4290   13.7140   12.2190 C.3    43  LEU43       0.0270
     58  CG        45.0810   13.0220   13.4770 C.3    43  LEU43       0.0019
     59  CD1       43.9560   12.0050   13.1910 C.3    43  LEU43       0.0001
     60  CD2       46.3380   12.3490   14.0480 C.3    43  LEU43       0.0001
     61  N         54.9880   12.5300   27.0380 N.3    82  GLY82      -0.1210
     62  CA        56.0800   11.5810   26.9200 C.3    82  GLY82       0.1956
     63  C         57.2050   12.1200   26.0500 C.2    82  GLY82       0.2612
     64  O         57.1220   13.1890   25.4100 O.2    82  GLY82      -0.2717
     65  N         58.2480   11.3180   25.9690 N.am   83  LYS83      -0.1965
     66  CA        59.4640   11.7460   25.3300 C.3    83  LYS83       0.1728
     67  C         59.4290   11.7790   23.8070 C.2    83  LYS83       0.2616
     68  O         60.1190   12.6020   23.1670 O.2    83  LYS83      -0.2715
     69  CB        60.6310   10.8860   25.8170 C.3    83  LYS83       0.0311
     70  CG        62.0200   11.4080   25.4510 C.3    83  LYS83       0.0038
     71  CD        62.3330   12.7110   26.1460 C.3    83  LYS83       0.0206
     72  CE        63.7970   13.1150   26.0340 C.3    83  LYS83       0.1093
     73  NZ        64.7270   12.1170   26.6330 N.3    83  LYS83      -0.1314
     74  N         58.6700   10.8640   23.1910 N.am   84  ARG84      -0.1977
     75  CA        58.5750   10.9290   21.7340 C.3    84  ARG84       0.1597
     76  C         57.8360   12.1910   21.3100 C.2    84  ARG84       0.2287
     77  O         58.2530   12.8630   20.3940 O.2    84  ARG84      -0.2864
     78  CB        57.8840    9.7200   21.1410 C.3    84  ARG84       0.0334
     79  CG        58.5500    8.3860   21.3730 C.3    84  ARG84       0.0492
     80  CD        59.9260    8.1780   20.6750 C.3    84  ARG84       0.2205
     81  NE        60.9880    8.7270   21.5140 N.pl3  84  ARG84      -0.0865
     82  CZ        61.4380    8.1680   22.6420 C.cat  84  ARG84       0.5346
     83  NH1       60.9420    7.0210   23.1320 N.pl3  84  ARG84       0.1354
     84  NH2       62.3420    8.8190   23.3260 N.pl3  84  ARG84       0.1354
     85  N         57.8190   12.7370   30.7900 N.3   105  LEU105     -0.1231
     86  CA        58.2030   11.4310   31.3240 C.3   105  LEU105      0.1693
     87  C         59.2920   10.8500   30.4500 C.2   105  LEU105      0.2593
     88  O         59.0910   10.6220   29.2500 O.2   105  LEU105     -0.2718
     89  CB        56.9920   10.4810   31.3490 C.3   105  LEU105      0.0284
     90  CG        55.9330   10.8060   32.4180 C.3   105  LEU105      0.0019
     91  CD1       54.6300   10.0330   32.1580 C.3   105  LEU105      0.0001
     92  CD2       56.4750   10.4810   33.8080 C.3   105  LEU105      0.0001
     93  N         60.4400   10.5630   31.0470 N.am  106  THR106     -0.1939
     94  CA        61.5710   10.0390   30.3010 C.3   106  THR106      0.2028
     95  C         62.5460    9.3200   31.2250 C.2   106  THR106      0.2642
     96  O         62.5970    9.6340   32.3850 O.2   106  THR106     -0.2714
     97  CB        62.3130   11.1460   29.5580 C.3   106  THR106      0.1808
     98  OG1       63.3360   10.5890   28.7120 O.3   106  THR106     -0.2208
     99  CG2       62.9370   12.1760   30.4770 C.3   106  THR106      0.0379
    100  N         63.3190    8.3920   30.6760 N.am  107  HIS107     -0.1959
    101  CA        64.4390    7.7330   31.3780 C.3   107  HIS107      0.1787
    102  C         65.6740    8.6550   31.3950 C.2   107  HIS107      0.2620
    103  O         66.5610    8.4420   32.1930 O.2   107  HIS107     -0.2715
    104  CB        64.7670    6.3710   30.7510 C.3   107  HIS107      0.0785
    105  CG        63.6840    5.3720   30.9220 C.ar  107  HIS107      0.0821
    106  ND1       62.8030    5.0680   29.9020 N.ar  107  HIS107     -0.2267
    107  CD2       63.3050    4.6360   31.9930 C.ar  107  HIS107      0.1154
    108  CE1       61.9550    4.1520   30.3430 C.ar  107  HIS107      0.1986
    109  NE2       62.2160    3.9060   31.6140 N.ar  107  HIS107     -0.2212
    110  N         65.7250    9.6720   30.5360 N.am  108  GLU108     -0.1977
    111  CA        66.8760   10.5640   30.4780 C.3   108  GLU108      0.1602
    112  C         66.9360   11.5170   31.6610 C.2   108  GLU108      0.2287
    113  O         65.9730   12.2550   31.9160 O.2   108  GLU108     -0.2864
    114  CB        66.8280   11.4000   29.2000 C.3   108  GLU108      0.0415
    115  CG        68.1150   12.2100   28.9400 C.3   108  GLU108      0.1163
    116  CD        68.0570   13.1970   27.8210 C.2   108  GLU108      0.3649
    117  OE1       67.0000   13.4040   27.2130 O.co2 108  GLU108     -0.2457
    118  OE2       69.1220   13.7850   27.5630 O.co2 108  GLU108     -0.2457
    119  N         61.0490   14.1670   34.0560 N.3   124  VAL124     -0.1231
    120  CA        60.6730   13.3980   35.2450 C.3   124  VAL124      0.1692
    121  C         61.0260   11.9380   35.0230 C.2   124  VAL124      0.2592
    122  O         60.5240   11.2840   34.0850 O.2   124  VAL124     -0.2718
    123  CB        59.1840   13.5230   35.4840 C.3   124  VAL124      0.0266
    124  CG1       58.6970   12.6250   36.6750 C.3   124  VAL124      0.0020
    125  CG2       58.7660   15.0300   35.6610 C.3   124  VAL124      0.0020
    126  N         61.8520   11.3990   35.9130 N.am  125  ASN125     -0.1974
    127  CA        62.3790   10.0590   35.7510 C.3   125  ASN125      0.1688
    128  C         61.7410    8.9890   36.6520 C.2   125  ASN125      0.2292
    129  O         62.0210    7.7810   36.4450 O.2   125  ASN125     -0.2864
    130  CB        63.8900   10.0690   36.0460 C.3   125  ASN125      0.1181
    131  CG        64.6430   11.0840   35.2710 C.2   125  ASN125      0.2629
    132  OD1       65.5310   11.7240   35.8310 O.2   125  ASN125     -0.2716
    133  ND2       64.3410   11.2390   33.9850 N.am  125  ASN125     -0.0877
    134  N         58.3090    8.3370   37.1660 N.3   127  GLY127     -0.1210
    135  CA        57.0290    7.8110   36.7700 C.3   127  GLY127      0.1940
    136  C         55.8150    8.7160   36.7320 C.2   127  GLY127      0.2453
    137  O         55.8660    9.8470   37.1670 O.2   127  GLY127     -0.2732
    138  N         54.7180    8.1890   36.1670 N.am  128  PRO128     -0.2728
    139  CA        53.5450    9.0530   35.9370 C.3   128  PRO128      0.1401
    140  C         52.8630    9.5590   37.1990 C.2   128  PRO128      0.2269
    141  O         52.2870   10.6340   37.1930 O.2   128  PRO128     -0.2865
    142  CB        52.6090    8.1880   35.0990 C.3   128  PRO128      0.0296
    143  CG        53.1000    6.7340   35.3460 C.3   128  PRO128      0.0237
    144  CD        54.5410    6.8250   35.6320 C.3   128  PRO128      0.0939
    145  N         49.0320   15.6390   27.5210 N.3   147  SER147     -0.1202
    146  CA        49.1560   15.9910   26.0970 C.3   147  SER147      0.2020
    147  C         49.3170   14.8140   25.1790 C.2   147  SER147      0.2619
    148  O         48.8330   14.8570   24.0430 O.2   147  SER147     -0.2717
    149  CB        50.3550   16.8930   25.9210 C.3   147  SER147      0.2103
    150  OG        50.0670   18.1830   26.4560 O.3   147  SER147     -0.2182
    151  N         50.0170   13.7890   25.6370 N.am  148  GLY148     -0.1942
    152  CA        50.3190   12.6540   24.7800 C.3   148  GLY148      0.2014
    153  C         51.7940   12.2950   24.8560 C.2   148  GLY148      0.2639
    154  O         52.5220   12.8140   25.7100 O.2   148  GLY148     -0.2714
    155  N         52.2750   11.3660   24.0230 N.am  149  GLY149     -0.1939
    156  CA        51.4330   10.5790   23.0980 C.3   149  GLY149      0.2014
    157  C         50.7240    9.3940   23.7130 C.2   149  GLY149      0.2639
    158  O         50.3610    9.3830   24.8880 O.2   149  GLY149     -0.2714
    159  N         50.5470    8.3570   22.8890 N.am  150  ALA150     -0.1963
    160  CA        49.6980    7.2200   23.2460 C.3   150  ALA150      0.1728
    161  C         50.2390    6.4560   24.4440 C.2   150  ALA150      0.2616
    162  O         49.4840    6.0320   25.3160 O.2   150  ALA150     -0.2715
    163  CB        49.5210    6.2980   22.0440 C.3   150  ALA150      0.0334
    164  N         51.5560    6.2940   24.4880 N.am  151  ASN151     -0.1958
    165  CA        52.1850    5.5360   25.5660 C.3   151  ASN151      0.1819
    166  C         51.9140    6.1150   26.9430 C.2   151  ASN151      0.2621
    167  O         51.5680    5.4100   27.8970 O.2   151  ASN151     -0.2715
    168  CB        53.6740    5.3950   25.3160 C.3   151  ASN151      0.1195
    169  CG        54.3570    4.6020   26.3820 C.2   151  ASN151      0.2630
    170  OD1       54.2040    3.3430   26.4490 O.2   151  ASN151     -0.2716
    171  ND2       55.1090    5.2660   27.2040 N.am  151  ASN151     -0.0877
    172  N         52.0110    7.4290   27.0360 N.am  152  VAL152     -0.1977
    173  CA        51.7930    8.1130   28.2970 C.3   152  VAL152      0.1596
    174  C         50.3210    8.1120   28.6200 C.2   152  VAL152      0.2287
    175  O         49.9490    7.8830   29.7860 O.2   152  VAL152     -0.2864
    176  CB        52.4030    9.5230   28.2670 C.3   152  VAL152      0.0276
    177  CG1       51.8600   10.4320   29.3640 C.3   152  VAL152      0.0022
    178  CG2       53.9400    9.3960   28.3630 C.3   152  VAL152      0.0022
    179  N         49.3080    4.8360   30.1680 N.3   155  GLN155     -0.1245
    180  CA        49.7070    4.7160   31.5770 C.3   155  GLN155      0.1566
    181  C         48.6650    5.3830   32.4780 C.2   155  GLN155      0.2260
    182  O         48.1800    4.7710   33.4340 O.2   155  GLN155     -0.2867
    183  CB        51.1130    5.2780   31.8000 C.3   155  GLN155      0.0367
    184  CG        52.2090    4.4610   31.2070 C.3   155  GLN155      0.0905
    185  CD        53.5080    5.1490   31.2550 C.2   155  GLN155      0.2608
    186  OE1       54.1240    5.2460   32.3460 O.2   155  GLN155     -0.2717
    187  NE2       53.9940    5.6290   30.0960 N.am  155  GLN155     -0.0878
    188  N         50.5460    4.7010   15.8130 N.3   178  ARG178     -0.1245
    189  CA        50.4760    4.5910   17.2650 C.3   178  ARG178      0.1563
    190  C         49.0370    4.4990   17.6970 C.2   178  ARG178      0.2260
    191  O         48.3020    5.4980   17.6960 O.2   178  ARG178     -0.2867
    192  CB        51.1860    5.7500   17.9560 C.3   178  ARG178      0.0307
    193  CG        52.6750    5.8570   17.5780 C.3   178  ARG178      0.0489
    194  CD        53.5640    4.7200   18.0720 C.3   178  ARG178      0.2205
    195  NE        53.5090    4.7350   19.5140 N.pl3 178  ARG178     -0.0865
    196  CZ        52.8650    3.8690   20.2850 C.cat 178  ARG178      0.5346
    197  NH1       52.2980    2.7660   19.7780 N.pl3 178  ARG178      0.1354
    198  NH2       52.7590    4.1370   21.5810 N.pl3 178  ARG178      0.1354
@<TRIPOS>BOND
     1    39    40    1
     2    41    40    1
     3    41    42    2
     4    40    43    1
     5    53    54    1
     6    43    44    1
     7    45    44   ar
     8    45    47   ar
     9    54    57    1
    10    54    55    1
    11    44    46   ar
    12    57    58    1
    13    55    56    2
    14    47    48   ar
    15    46    48   ar
    16    46    49   ar
    17    59    58    1
    18    32    30   ar
    19    32    33   ar
    20    30    28   ar
    21    58    60    1
    22    36    37    2
    23    36    35    1
    24    48    50   ar
    25    49    51   ar
    26    33    31   ar
    27    28    27    1
    28    28    29   ar
    29    27    24    1
    30    35    38    1
    31    35    34    1
    32    31    29   ar
    33    50    52   ar
    34    51    52   ar
    35    26    25    2
    36    23    24    1
    37    24    25    1
    38   188   189    1
    39    21    22    1
    40    21    18    1
    41    19    20    2
    42    19    18    1
    43   189   190    1
    44   189   192    1
    45    18    17    1
    46   193   192    1
    47   193   194    1
    48   191   190    2
    49   194   195    1
    50    17    11   am
    51   195   196    2
    52   197   196    1
    53    11    12    2
    54    11    10    1
    55   196   198    1
    56    77    76    2
    57    80    79    1
    58    80    81    1
    59    16    14    1
    60    78    79    1
    61    78    75    1
    62    10    13    1
    63    10     9    1
    64    76    75    1
    65    81    82    2
    66    13    14    1
    67    13    15    1
    68    75    74    1
    69   163   160    1
    70     9     3   am
    71     7     6    2
    72    82    83    1
    73    82    84    1
    74   159   160    1
    75   159   157   am
    76     4     3    2
    77   156   157    1
    78   156   155    1
    79    68    67    2
    80    74    67   am
    81   160   161    1
    82     3     2    1
    83     6     8   am
    84     6     5    1
    85   157   158    2
    86    67    66    1
    87   155   153   am
    88   148   147    2
    89   161   164   am
    90   161   162    2
    91     2     5    1
    92     2     1    1
    93   164   165    1
    94   152   153    1
    95   152   151    1
    96   153   154    2
    97   147   151   am
    98   147   146    1
    99   168   165    1
   100   168   169    1
   101    66    69    1
   102    66    65    1
   103    64    63    2
   104    70    69    1
   105    70    71    1
   106   165   166    1
   107   149   146    1
   108   149   150    1
   109    65    63   am
   110    72    71    1
   111    72    73    1
   112    63    62    1
   113   146   145    1
   114   169   170    2
   115   169   171   am
   116    62    61    1
   117   166   172   am
   118   166   167    2
   119   172   173    1
   120   117   116   ar
   121   118   116   ar
   122   116   115    1
   123   176   173    1
   124   176   178    1
   125   176   177    1
   126   173   174    1
   127   174   175    2
   128    98    97    1
   129   115   114    1
   130   114   111    1
   131    88    87    2
   132    97    94    1
   133    97    99    1
   134   106   108   ar
   135   106   105   ar
   136   187   185   am
   137   179   180    1
   138    94    93    1
   139    94    95    1
   140   108   109   ar
   141    87    93   am
   142    87    86    1
   143   111   110    1
   144   111   112    1
   145   110   102   am
   146   100    95   am
   147   100   101    1
   148   104   105    1
   149   104   101    1
   150    85    86    1
   151   105   107   ar
   152   184   185    1
   153   184   183    1
   154    95    96    2
   155   185   186    2
   156    86    89    1
   157    89    90    1
   158   101   102    1
   159   102   103    2
   160   180   183    1
   161   180   181    1
   162   109   107   ar
   163   112   113    2
   164    91    90    1
   165    90    92    1
   166   181   182    2
   167   133   131   am
   168   119   120    1
   169   122   121    2
   170   121   120    1
   171   121   126   am
   172   142   143    1
   173   142   139    1
   174   120   123    1
   175   131   132    2
   176   131   130    1
   177   143   144    1
   178   123   125    1
   179   123   124    1
   180   144   138    1
   181   127   126    1
   182   127   130    1
   183   127   128    1
   184   139   138    1
   185   139   140    1
   186   138   136   am
   187   129   128    2
   188   136   135    1
   189   136   137    2
   190   135   134    1
   191   141   140    2
