@<TRIPOS>MOLECULE
tmp/3kh5A00.pdb
 180 171 0 0 0
SMALL
GASTEIGER

@<TRIPOS>ATOM
      1  N          6.1760   12.5050   41.9520 N.3     8  GLN8       -0.1245
      2  CA         5.2240   11.5260   41.4640 C.3     8  GLN8        0.1566
      3  C          5.4550   10.1930   42.1390 C.2     8  GLN8        0.2260
      4  O          6.5050    9.5560   41.9870 O.2     8  GLN8       -0.2867
      5  CB         5.3740   11.4030   39.9600 C.3     8  GLN8        0.0367
      6  CG         6.6670   12.0310   39.4940 C.3     8  GLN8        0.0905
      7  CD         7.1840   11.4470   38.2130 C.2     8  GLN8        0.2608
      8  OE1        7.8130   12.1590   37.3860 O.2     8  GLN8       -0.2717
      9  NE2        6.9510   10.1440   38.0280 N.am    8  GLN8       -0.0878
     10  N          4.4940    7.3950   41.7660 N.3    10  LYS10      -0.1231
     11  CA         4.5950    6.2040   40.9490 C.3    10  LYS10       0.1693
     12  C          5.9980    5.6060   41.0120 C.2    10  LYS10       0.2592
     13  O          6.9480    6.2420   41.4840 O.2    10  LYS10      -0.2718
     14  CB         4.2180    6.5170   39.4920 C.3    10  LYS10       0.0285
     15  CG         4.7090    5.4370   38.5210 C.3    10  LYS10       0.0035
     16  CD         4.1830    5.5160   37.1150 C.3    10  LYS10       0.0206
     17  CE         4.7260    4.3040   36.3440 C.3    10  LYS10       0.1093
     18  NZ         4.1170    4.1580   34.9990 N.3    10  LYS10      -0.1314
     19  N          6.1030    4.3650   40.5480 N.am   11  LYS11      -0.1966
     20  CA         7.3830    3.7400   40.2600 C.3    11  LYS11       0.1728
     21  C          8.0330    4.4230   39.0590 C.2    11  LYS11       0.2616
     22  O          7.3640    4.7670   38.0810 O.2    11  LYS11      -0.2715
     23  CB         7.2080    2.2370   39.9970 C.3    11  LYS11       0.0311
     24  CG         6.2220    1.8540   38.8710 C.3    11  LYS11       0.0038
     25  CD         4.7720    1.7510   39.3550 C.3    11  LYS11       0.0206
     26  CE         4.5410    0.5050   40.2020 C.3    11  LYS11       0.1093
     27  NZ         3.2640    0.5860   40.9750 N.3    11  LYS11      -0.1314
     28  N          9.3400    4.6260   39.1330 N.am   12  ILE12      -0.1963
     29  CA        10.0280    5.2520   38.0210 C.3    12  ILE12       0.1727
     30  C         10.4400    4.1810   37.0270 C.2    12  ILE12       0.2616
     31  O         11.0640    3.1820   37.3930 O.2    12  ILE12      -0.2715
     32  CB        11.2230    6.1150   38.4870 C.3    12  ILE12       0.0290
     33  CG1       10.7520    7.1890   39.4810 C.3    12  ILE12       0.0022
     34  CG2       11.9470    6.7530   37.2960 C.3    12  ILE12       0.0023
     35  CD1        9.4980    7.9800   39.0460 C.3    12  ILE12       0.0001
     36  N         10.0510    4.3900   35.7730 N.am   13  VAL13      -0.1977
     37  CA        10.4320    3.5080   34.6730 C.3    13  VAL13       0.1596
     38  C         11.9100    3.7270   34.3340 C.2    13  VAL13       0.2287
     39  O         12.3300    4.8480   34.0360 O.2    13  VAL13      -0.2864
     40  CB         9.5310    3.7280   33.4270 C.3    13  VAL13       0.0276
     41  CG1       10.0510    2.9480   32.2350 C.3    13  VAL13       0.0022
     42  CG2        8.0920    3.3260   33.7300 C.3    13  VAL13       0.0022
     43  N          5.2320    5.5690   27.3280 N.3    32  LYS32      -0.1231
     44  CA         4.9820    6.9840   27.0020 C.3    32  LYS32       0.1693
     45  C          5.9420    7.9420   27.7160 C.2    32  LYS32       0.2592
     46  O          5.8360    9.1650   27.5710 O.2    32  LYS32      -0.2718
     47  CB         3.5230    7.3740   27.2760 C.3    32  LYS32       0.0285
     48  CG         2.8960    8.2040   26.1490 C.3    32  LYS32       0.0035
     49  CD         1.8280    9.1490   26.7110 C.3    32  LYS32       0.0206
     50  CE         1.1240    9.9130   25.5940 C.3    32  LYS32       0.1093
     51  NZ         2.0490   10.7870   24.8070 N.3    32  LYS32      -0.1314
     52  N          6.8770    7.3770   28.4800 N.am   33  TYR33      -0.1962
     53  CA         7.9200    8.1600   29.1390 C.3    33  TYR33       0.1771
     54  C          9.1180    8.3530   28.2420 C.2    33  TYR33       0.2619
     55  O          9.7850    7.3950   27.8380 O.2    33  TYR33      -0.2715
     56  CB         8.3280    7.5420   30.4760 C.3    33  TYR33       0.0574
     57  CG         7.1640    7.4790   31.4240 C.ar   33  TYR33      -0.0198
     58  CD1        6.3740    8.6080   31.6540 C.ar   33  TYR33      -0.0009
     59  CD2        6.8240    6.2930   32.0670 C.ar   33  TYR33      -0.0009
     60  CE1        5.2840    8.5610   32.5110 C.ar   33  TYR33       0.0417
     61  CE2        5.7330    6.2350   32.9320 C.ar   33  TYR33       0.0417
     62  CZ         4.9690    7.3730   33.1480 C.ar   33  TYR33       0.1957
     63  OH         3.8910    7.3240   34.0010 O.3    33  TYR33      -0.2866
     64  N          9.3760    9.6180   27.9400 N.am   34  ARG34      -0.1963
     65  CA        10.4550    9.9810   27.0440 C.3    34  ARG34       0.1729
     66  C         11.7460   10.3880   27.7860 C.2    34  ARG34       0.2616
     67  O         12.6470   10.9860   27.1920 O.2    34  ARG34      -0.2715
     68  CB         9.9750   11.0570   26.0570 C.3    34  ARG34       0.0348
     69  CG         9.3700   10.4990   24.7460 C.3    34  ARG34       0.0492
     70  CD         8.2550    9.4550   24.9540 C.3    34  ARG34       0.2205
     71  NE         8.0360    8.6320   23.7600 N.pl3  34  ARG34      -0.0865
     72  CZ         6.8880    8.5430   23.0890 C.cat  34  ARG34       0.5346
     73  NH1        5.8140    9.2160   23.4880 N.pl3  34  ARG34       0.1354
     74  NH2        6.8110    7.7660   22.0150 N.pl3  34  ARG34       0.1354
     75  N         11.8310   10.0460   29.0730 N.am   35  ARG35      -0.1963
     76  CA        13.0270   10.3050   29.8880 C.3    35  ARG35       0.1729
     77  C         13.2850    9.1180   30.8120 C.2    35  ARG35       0.2616
     78  O         12.5330    8.8890   31.7630 O.2    35  ARG35      -0.2715
     79  CB        12.8530   11.5910   30.7080 C.3    35  ARG35       0.0348
     80  CG        14.0240   11.9450   31.6390 C.3    35  ARG35       0.0492
     81  CD        13.6660   13.0790   32.6180 C.3    35  ARG35       0.2205
     82  NE        13.0200   14.2010   31.9390 N.pl3  35  ARG35      -0.0865
     83  CZ        13.6550   15.2490   31.4210 C.cat  35  ARG35       0.5346
     84  NH1       14.9770   15.3560   31.5130 N.pl3  35  ARG35       0.1354
     85  NH2       12.9570   16.2020   30.8110 N.pl3  35  ARG35       0.1354
     86  N         14.3450    8.3620   30.5270 N.am   36  LEU36      -0.1964
     87  CA        14.6280    7.1330   31.2730 C.3    36  LEU36       0.1713
     88  C         15.9580    7.1390   32.0320 C.2    36  LEU36       0.2458
     89  O         17.0280    7.0960   31.4010 O.2    36  LEU36      -0.2730
     90  CB        14.5850    5.9100   30.3430 C.3    36  LEU36       0.0310
     91  CG        13.3500    5.6100   29.4860 C.3    36  LEU36       0.0022
     92  CD1       13.6050    4.3920   28.6090 C.3    36  LEU36       0.0001
     93  CD2       12.1070    5.4020   30.3370 C.3    36  LEU36       0.0001
     94  N         15.9020    7.1770   33.3850 N.am   37  PRO37      -0.2727
     95  CA        17.0980    6.9450   34.1960 C.3    37  PRO37       0.1402
     96  C         17.6900    5.5750   33.9120 C.2    37  PRO37       0.2269
     97  O         16.9570    4.5980   33.7200 O.2    37  PRO37      -0.2865
     98  CB        16.5690    6.9940   35.6350 C.3    37  PRO37       0.0296
     99  CG        15.3620    7.8400   35.5600 C.3    37  PRO37       0.0237
    100  CD        14.7390    7.5180   34.2300 C.3    37  PRO37       0.0939
    101  N         17.1270   10.0600   26.9040 N.3    51  THR51      -0.1218
    102  CA        15.8710   10.6780   26.4910 C.3    51  THR51       0.1862
    103  C         15.7410   10.5580   24.9810 C.2    51  THR51       0.2287
    104  O         16.6550   10.0670   24.3120 O.2    51  THR51      -0.2866
    105  CB        15.8100   12.1760   26.8600 C.3    51  THR51       0.1770
    106  OG1       16.6810   12.9150   25.9940 O.3    51  THR51      -0.2211
    107  CG2       16.2050   12.4170   28.3250 C.3    51  THR51       0.0375
    108  N         11.6110   10.9610   40.8030 N.3   128  LEU128     -0.1245
    109  CA        11.9740   11.8650   39.7180 C.3   128  LEU128      0.1561
    110  C         10.9980   13.0340   39.7180 C.2   128  LEU128      0.2260
    111  O          9.8010   12.8540   39.9510 O.2   128  LEU128     -0.2867
    112  CB        11.9240   11.1500   38.3650 C.3   128  LEU128      0.0270
    113  CG        12.3180   11.9710   37.1300 C.3   128  LEU128      0.0019
    114  CD1       13.6590   11.5020   36.5820 C.3   128  LEU128      0.0001
    115  CD2       11.2490   11.8170   36.0680 C.3   128  LEU128      0.0001
    116  N          9.9400   16.6360   37.3680 N.3   130  THR130     -0.1218
    117  CA        10.0790   17.3350   36.0960 C.3   130  THR130      0.1862
    118  C          9.4690   18.7170   36.2520 C.2   130  THR130      0.2287
    119  O          8.8150   18.9990   37.2610 O.2   130  THR130     -0.2866
    120  CB         9.3460   16.6020   34.9550 C.3   130  THR130      0.1770
    121  OG1        7.9300   16.6930   35.1600 O.3   130  THR130     -0.2211
    122  CG2        9.7570   15.1320   34.8850 C.3   130  THR130      0.0375
    123  N          6.9440   20.0060   34.5970 N.3   132  ARG132     -0.1231
    124  CA         5.4830   19.8420   34.6080 C.3   132  ARG132      0.1694
    125  C          4.9600   19.5450   36.0170 C.2   132  ARG132      0.2592
    126  O          3.9480   20.1100   36.4330 O.2   132  ARG132     -0.2718
    127  CB         5.0500   18.7320   33.6310 C.3   132  ARG132      0.0321
    128  CG         3.5420   18.6970   33.3100 C.3   132  ARG132      0.0489
    129  CD         3.2180   18.0460   31.9490 C.3   132  ARG132      0.2205
    130  NE         4.1110   18.5110   30.8850 N.pl3 132  ARG132     -0.0865
    131  CZ         4.7550   17.7270   30.0200 C.cat 132  ARG132      0.5346
    132  NH1        4.5820   16.4040   30.0450 N.pl3 132  ARG132      0.1354
    133  NH2        5.5560   18.2720   29.1070 N.pl3 132  ARG132      0.1354
    134  N          5.6530   18.6570   36.7340 N.am  133  ASP133     -0.1974
    135  CA         5.2880   18.2890   38.1090 C.3   133  ASP133      0.1709
    136  C          5.2120   19.5310   38.9930 C.2   133  ASP133      0.2293
    137  O          4.3030   19.6680   39.8170 O.2   133  ASP133     -0.2864
    138  CB         6.3250   17.3370   38.7180 C.3   133  ASP133      0.1436
    139  CG         6.2840   15.9360   38.1280 C.2   133  ASP133      0.3671
    140  OD1        5.2330   15.5130   37.5980 O.co2 133  ASP133     -0.2456
    141  OD2        7.3210   15.2410   38.2190 O.co2 133  ASP133     -0.2456
    142  N          2.3890   22.0370   37.8040 N.3   136  ARG136     -0.1245
    143  CA         1.1400   21.4330   38.2700 C.3   136  ARG136      0.1563
    144  C          0.9270   21.7140   39.7550 C.2   136  ARG136      0.2260
    145  O         -0.1840   22.0450   40.1730 O.2   136  ARG136     -0.2867
    146  CB         1.1260   19.9210   37.9950 C.3   136  ARG136      0.0307
    147  CG        -0.2220   19.2380   38.2340 C.3   136  ARG136      0.0489
    148  CD        -0.2060   17.7620   37.8330 C.3   136  ARG136      0.2205
    149  NE        -0.2870   17.5730   36.3830 N.pl3 136  ARG136     -0.0865
    150  CZ         0.6990   17.1100   35.6180 C.cat 136  ARG136      0.5346
    151  NH1        1.8660   16.7680   36.1530 N.pl3 136  ARG136      0.1354
    152  NH2        0.5160   16.9810   34.3100 N.pl3 136  ARG136      0.1354
    153  N         13.8300   20.2910   21.8660 N.3   178  ARG178     -0.1245
    154  CA        12.9890   19.1440   21.5020 C.3   178  ARG178      0.1563
    155  C         11.8770   19.5020   20.5230 C.2   178  ARG178      0.2260
    156  O         11.4170   18.6420   19.7730 O.2   178  ARG178     -0.2867
    157  CB        12.3460   18.5200   22.7420 C.3   178  ARG178      0.0307
    158  CG        13.3170   17.8320   23.6860 C.3   178  ARG178      0.0489
    159  CD        12.6880   17.6070   25.0560 C.3   178  ARG178      0.2205
    160  NE        11.4010   16.9100   24.9890 N.pl3 178  ARG178     -0.0865
    161  CZ        10.6850   16.5520   26.0530 C.cat 178  ARG178      0.5346
    162  NH1       11.1260   16.8160   27.2790 N.pl3 178  ARG178      0.1354
    163  NH2        9.5260   15.9240   25.8940 N.pl3 178  ARG178      0.1354
    164  N          0.0620   17.4820   28.8060 N.3   251  ASP251     -0.1239
    165  CA         1.4320   16.9900   28.6810 C.3   251  ASP251      0.1674
    166  C          2.0980   17.5640   27.4270 C.2   251  ASP251      0.2266
    167  O          2.6560   16.8170   26.6210 O.2   251  ASP251     -0.2867
    168  CB         1.4610   15.4550   28.5940 C.3   251  ASP251      0.1410
    169  CG         1.1510   14.7710   29.9130 C.2   251  ASP251      0.3668
    170  OD1        1.5900   15.2560   30.9830 O.co2 251  ASP251     -0.2456
    171  OD2        0.4780   13.7140   29.8770 O.co2 251  ASP251     -0.2456
    172  N          7.5260   25.3000   29.2010 N.3   270  GLU270     -0.1245
    173  CA         7.4350   25.0650   30.6330 C.3   270  GLU270      0.1567
    174  C          8.5710   25.7060   31.4180 C.2   270  GLU270      0.2260
    175  O          8.3500   26.1790   32.5320 O.2   270  GLU270     -0.2867
    176  CB         7.3900   23.5690   30.9210 C.3   270  GLU270      0.0388
    177  CG         6.0790   22.9270   30.5210 C.3   270  GLU270      0.1160
    178  CD         6.0780   21.4240   30.7020 C.2   270  GLU270      0.3649
    179  OE1        7.0670   20.7620   30.3180 O.co2 270  GLU270     -0.2457
    180  OE2        5.0710   20.9010   31.2160 O.co2 270  GLU270     -0.2457
@<TRIPOS>BOND
     1   156   155    2
     2   155   154    1
     3   154   153    1
     4   154   157    1
     5    74    72    1
     6   157   158    1
     7    72    73    1
     8    72    71    2
     9   158   159    1
    10    71    70    1
    11   104   103    2
    12    69    70    1
    13    69    68    1
    14    51    50    1
    15   103   102    1
    16   160   159    1
    17   160   161    2
    18    50    49    1
    19   163   161    1
    20   106   105    1
    21   161   162    1
    22    68    65    1
    23    48    49    1
    24    48    47    1
    25   102   105    1
    26   102   101    1
    27   167   166    2
    28   105   107    1
    29    44    47    1
    30    44    43    1
    31    44    45    1
    32    65    66    1
    33    65    64    1
    34    67    66    2
    35   166   165    1
    36    46    45    2
    37    45    52   am
    38    66    75   am
    39    55    54    2
    40    64    54   am
    41    54    53    1
    42    52    53    1
    43   168   165    1
    44   168   169    1
    45    92    91    1
    46   165   164    1
    47    75    76    1
    48   133   131    1
    49    53    56    1
    50   172   173    1
    51    91    93    1
    52    91    90    1
    53   171   169   ar
    54    76    79    1
    55    76    77    1
    56   169   170   ar
    57   131   132    1
    58   131   130    2
    59   179   178   ar
    60    90    87    1
    61    56    57    1
    62   177   178    1
    63   177   176    1
    64    86    77   am
    65    86    87    1
    66   173   176    1
    67   173   174    1
    68   178   180   ar
    69    79    80    1
    70    85    83    1
    71    77    78    2
    72   130   129    1
    73    87    88    1
    74    89    88    2
    75   174   175    2
    76    83    84    1
    77    83    82    2
    78    57    58   ar
    79    57    59   ar
    80    80    81    1
    81    58    60   ar
    82    82    81    1
    83   129   128    1
    84    88    94   am
    85    59    61   ar
    86    41    40    1
    87    60    62   ar
    88    61    62   ar
    89    62    63    1
    90   128   127    1
    91    94    95    1
    92    94   100    1
    93    40    42    1
    94    40    37    1
    95   127   124    1
    96    97    96    2
    97    96    95    1
    98    39    38    2
    99    95    98    1
   100   100    99    1
   101   152   150    1
   102    38    37    1
   103   123   124    1
   104   124   125    1
   105    37    36    1
   106   122   120    1
   107   120   121    1
   108   120   117    1
   109    18    17    1
   110    99    98    1
   111   150   151    1
   112   150   149    2
   113    36    30   am
   114   125   126    2
   115   125   134   am
   116   115   113    1
   117   117   118    1
   118   117   116    1
   119   118   119    2
   120    17    16    1
   121   149   148    1
   122   114   113    1
   123   134   135    1
   124    30    31    2
   125    30    29    1
   126    16    15    1
   127   113   112    1
   128    34    32    1
   129     8     7    2
   130   140   139   ar
   131   142   143    1
   132   148   147    1
   133   146   147    1
   134   146   143    1
   135    29    32    1
   136    29    28    1
   137     9     7   am
   138    22    21    2
   139   135   138    1
   140   135   136    1
   141   139   141   ar
   142   139   138    1
   143     7     6    1
   144   143   144    1
   145   112   109    1
   146    32    33    1
   147    15    14    1
   148    24    25    1
   149    24    23    1
   150   136   137    2
   151    35    33    1
   152    21    28   am
   153    21    20    1
   154    25    26    1
   155    14    11    1
   156     6     5    1
   157   110   109    1
   158   110   111    2
   159   109   108    1
   160   144   145    2
   161     5     2    1
   162    23    20    1
   163    26    27    1
   164    20    19    1
   165    19    12   am
   166    11    12    1
   167    11    10    1
   168    12    13    2
   169     2     1    1
   170     2     3    1
   171     4     3    2
