@<TRIPOS>MOLECULE
tmp/3kh5A01.pdb
 170 161 0 0 0
SMALL
GASTEIGER

@<TRIPOS>ATOM
      1  N          5.2320    5.5690   27.3280 N.3    32  LYS32      -0.1245
      2  CA         4.9820    6.9840   27.0020 C.3    32  LYS32       0.1561
      3  C          5.9420    7.9420   27.7160 C.2    32  LYS32       0.2260
      4  O          5.8360    9.1650   27.5710 O.2    32  LYS32      -0.2867
      5  CB         3.5230    7.3740   27.2760 C.3    32  LYS32       0.0271
      6  CG         2.8960    8.2040   26.1490 C.3    32  LYS32       0.0035
      7  CD         1.8280    9.1490   26.7110 C.3    32  LYS32       0.0206
      8  CE         1.1240    9.9130   25.5940 C.3    32  LYS32       0.1093
      9  NZ         2.0490   10.7870   24.8070 N.3    32  LYS32      -0.1314
     10  N          9.3760    9.6180   27.9400 N.3    34  ARG34      -0.1245
     11  CA        10.4550    9.9810   27.0440 C.3    34  ARG34       0.1563
     12  C         11.7460   10.3880   27.7860 C.2    34  ARG34       0.2260
     13  O         12.6470   10.9860   27.1920 O.2    34  ARG34      -0.2867
     14  CB         9.9750   11.0570   26.0570 C.3    34  ARG34       0.0307
     15  CG         9.3700   10.4990   24.7460 C.3    34  ARG34       0.0489
     16  CD         8.2550    9.4550   24.9540 C.3    34  ARG34       0.2205
     17  NE         8.0360    8.6320   23.7600 N.pl3  34  ARG34      -0.0865
     18  CZ         6.8880    8.5430   23.0890 C.cat  34  ARG34       0.5346
     19  NH1        5.8140    9.2160   23.4880 N.pl3  34  ARG34       0.1354
     20  NH2        6.8110    7.7660   22.0150 N.pl3  34  ARG34       0.1354
     21  N          6.9440   20.0060   34.5970 N.3   132  ARG132     -0.1245
     22  CA         5.4830   19.8420   34.6080 C.3   132  ARG132      0.1563
     23  C          4.9600   19.5450   36.0170 C.2   132  ARG132      0.2260
     24  O          3.9480   20.1100   36.4330 O.2   132  ARG132     -0.2867
     25  CB         5.0500   18.7320   33.6310 C.3   132  ARG132      0.0307
     26  CG         3.5420   18.6970   33.3100 C.3   132  ARG132      0.0489
     27  CD         3.2180   18.0460   31.9490 C.3   132  ARG132      0.2205
     28  NE         4.1110   18.5110   30.8850 N.pl3 132  ARG132     -0.0865
     29  CZ         4.7550   17.7270   30.0200 C.cat 132  ARG132      0.5346
     30  NH1        4.5820   16.4040   30.0450 N.pl3 132  ARG132      0.1354
     31  NH2        5.5560   18.2720   29.1070 N.pl3 132  ARG132      0.1354
     32  N         13.8300   20.2910   21.8660 N.3   178  ARG178     -0.1231
     33  CA        12.9890   19.1440   21.5020 C.3   178  ARG178      0.1694
     34  C         11.8770   19.5020   20.5230 C.2   178  ARG178      0.2591
     35  O         11.4170   18.6420   19.7730 O.2   178  ARG178     -0.2718
     36  CB        12.3460   18.5200   22.7420 C.3   178  ARG178      0.0321
     37  CG        13.3170   17.8320   23.6860 C.3   178  ARG178      0.0489
     38  CD        12.6880   17.6070   25.0560 C.3   178  ARG178      0.2205
     39  NE        11.4010   16.9100   24.9890 N.pl3 178  ARG178     -0.0865
     40  CZ        10.6850   16.5520   26.0530 C.cat 178  ARG178      0.5346
     41  NH1       11.1260   16.8160   27.2790 N.pl3 178  ARG178      0.1354
     42  NH2        9.5260   15.9240   25.8940 N.pl3 178  ARG178      0.1354
     43  N         11.4260   20.7570   20.5510 N.am  179  ARG179     -0.1980
     44  CA        10.2970   21.1650   19.7030 C.3   179  ARG179      0.1597
     45  C         10.6340   22.3630   18.8050 C.2   179  ARG179      0.2287
     46  O         11.0950   23.4170   19.2680 O.2   179  ARG179     -0.2864
     47  CB         9.0140   21.4210   20.5190 C.3   179  ARG179      0.0334
     48  CG         9.1690   21.2200   22.0450 C.3   179  ARG179      0.0492
     49  CD         8.6070   19.9620   22.7210 C.3   179  ARG179      0.2205
     50  NE         8.9440   20.2650   24.1060 N.pl3 179  ARG179     -0.0865
     51  CZ         8.6650   19.5800   25.2270 C.cat 179  ARG179      0.5346
     52  NH1        7.9360   18.4220   25.2400 N.pl3 179  ARG179      0.1354
     53  NH2        9.1260   20.1050   26.3870 N.pl3 179  ARG179      0.1354
     54  N          4.1610   21.7610   13.7550 N.3   191  ILE191     -0.1245
     55  CA         5.1640   21.5950   14.8040 C.3   191  ILE191      0.1561
     56  C          5.7600   20.1880   14.6860 C.2   191  ILE191      0.2260
     57  O          5.0710   19.2420   14.2950 O.2   191  ILE191     -0.2867
     58  CB         4.5710   21.8530   16.2230 C.3   191  ILE191      0.0252
     59  CG1        5.6820   22.0410   17.2730 C.3   191  ILE191      0.0019
     60  CG2        3.5700   20.7550   16.6230 C.3   191  ILE191      0.0019
     61  CD1        5.2130   22.6680   18.5910 C.3   191  ILE191      0.0001
     62  N          8.5260   17.5120   16.9230 N.3   193  THR193     -0.1203
     63  CA         9.2720   17.2880   18.1720 C.3   193  THR193      0.1994
     64  C         10.1110   16.0070   18.0920 C.2   193  THR193      0.2619
     65  O          9.9080   15.1950   17.1910 O.2   193  THR193     -0.2717
     66  CB         8.3460   17.2490   19.4290 C.3   193  THR193      0.1784
     67  OG1        7.6670   15.9890   19.5060 O.3   193  THR193     -0.2211
     68  CG2        7.3210   18.3900   19.4110 C.3   193  THR193      0.0376
     69  N         11.0450   15.8280   19.0280 N.am  194  SER194     -0.1937
     70  CA        11.8820   14.6190   19.0680 C.3   194  SER194      0.2055
     71  C         11.0560   13.3290   19.1990 C.2   194  SER194      0.2644
     72  O         11.4630   12.2690   18.7170 O.2   194  SER194     -0.2714
     73  CB        12.9110   14.7050   20.1960 C.3   194  SER194      0.2130
     74  OG        12.2840   14.8290   21.4620 O.3   194  SER194     -0.2179
     75  N          9.8930   13.4470   19.8450 N.am  195  THR195     -0.1936
     76  CA         8.9220   12.3580   20.0320 C.3   195  THR195      0.2028
     77  C          8.3960   11.8160   18.6940 C.2   195  THR195      0.2642
     78  O          8.2500   10.5980   18.5140 O.2   195  THR195     -0.2714
     79  CB         7.7430   12.8420   20.9330 C.3   195  THR195      0.1808
     80  OG1        8.1850   12.9280   22.2950 O.3   195  THR195     -0.2208
     81  CG2        6.5520   11.8990   20.8640 C.3   195  THR195      0.0379
     82  N          8.1220   12.7330   17.7670 N.am  196  ASP196     -0.1971
     83  CA         7.7180   12.3880   16.4030 C.3   196  ASP196      0.1709
     84  C          8.7590   11.5100   15.7150 C.2   196  ASP196      0.2293
     85  O          8.4120   10.6040   14.9520 O.2   196  ASP196     -0.2864
     86  CB         7.4980   13.6610   15.5800 C.3   196  ASP196      0.1436
     87  CG         6.3180   14.4760   16.0710 C.2   196  ASP196      0.3671
     88  OD1        5.2440   13.8880   16.3130 O.co2 196  ASP196     -0.2456
     89  OD2        6.4580   15.7100   16.2120 O.co2 196  ASP196     -0.2456
     90  N          8.4370    7.9890   17.2330 N.3   199  LYS199     -0.1245
     91  CA         7.2010    7.3870   16.7440 C.3   199  LYS199      0.1561
     92  C          7.3690    6.8890   15.3160 C.2   199  LYS199      0.2260
     93  O          6.8310    5.8390   14.9550 O.2   199  LYS199     -0.2867
     94  CB         6.0490    8.3890   16.8050 C.3   199  LYS199      0.0271
     95  CG         5.5300    8.6890   18.2030 C.3   199  LYS199      0.0035
     96  CD         4.4800    9.7890   18.1360 C.3   199  LYS199      0.0206
     97  CE         3.6400    9.8470   19.4020 C.3   199  LYS199      0.1093
     98  NZ         2.6660   10.9760   19.3580 N.3   199  LYS199     -0.1314
     99  N          2.9850   17.6460   12.8420 N.3   228  LYS228     -0.1245
    100  CA         1.6450   17.9110   13.3070 C.3   228  LYS228      0.1561
    101  C          1.2380   19.2630   12.7300 C.2   228  LYS228      0.2260
    102  O          1.8400   20.2820   13.0680 O.2   228  LYS228     -0.2867
    103  CB         1.6620   17.9480   14.8380 C.3   228  LYS228      0.0271
    104  CG         0.3510   18.3070   15.5020 C.3   228  LYS228      0.0035
    105  CD        -0.6540   17.1840   15.3730 C.3   228  LYS228      0.0206
    106  CE        -1.8930   17.4820   16.1870 C.3   228  LYS228      0.1093
    107  NZ        -3.0710   16.8200   15.5790 N.3   228  LYS228     -0.1314
    108  N         -1.7620   20.8300   12.9310 N.3   230  ASP230     -0.1225
    109  CA        -2.6160   21.6300   13.7810 C.3   230  ASP230      0.1805
    110  C         -2.0180   21.8070   15.1650 C.2   230  ASP230      0.2598
    111  O         -1.9670   20.8770   15.9760 O.2   230  ASP230     -0.2718
    112  CB        -4.0330   21.0710   13.7820 C.3   230  ASP230      0.1424
    113  CG        -4.6800   21.1790   12.4130 C.2   230  ASP230      0.3668
    114  OD1       -5.1370   22.2820   12.0360 O.co2 230  ASP230     -0.2456
    115  OD2       -4.7070   20.1570   11.6960 O.co2 230  ASP230     -0.2456
    116  N         -1.5540   23.0290   15.4050 N.am  231  VAL231     -0.1966
    117  CA        -0.7270   23.3300   16.5560 C.3   231  VAL231      0.1727
    118  C         -1.5300   24.1130   17.5850 C.2   231  VAL231      0.2616
    119  O         -2.3210   24.9890   17.2300 O.2   231  VAL231     -0.2715
    120  CB         0.5170   24.1520   16.1430 C.3   231  VAL231      0.0290
    121  CG1        1.5480   24.1610   17.2580 C.3   231  VAL231      0.0023
    122  CG2        1.1320   23.5910   14.8740 C.3   231  VAL231      0.0023
    123  N         -1.3360   23.7750   18.8570 N.am  232  ILE232     -0.1977
    124  CA        -1.8490   24.5820   19.9560 C.3   232  ILE232      0.1596
    125  C         -0.8650   25.7300   20.1640 C.2   232  ILE232      0.2287
    126  O          0.3180   25.5040   20.4470 O.2   232  ILE232     -0.2864
    127  CB        -2.0140   23.7490   21.2460 C.3   232  ILE232      0.0276
    128  CG1       -3.0430   22.6330   21.0250 C.3   232  ILE232      0.0022
    129  CG2       -2.4310   24.6420   22.4160 C.3   232  ILE232      0.0022
    130  CD1       -2.9500   21.4890   22.0070 C.3   232  ILE232      0.0001
    131  N          0.0620   17.4820   28.8060 N.3   251  ASP251     -0.1225
    132  CA         1.4320   16.9900   28.6810 C.3   251  ASP251      0.1805
    133  C          2.0980   17.5640   27.4270 C.2   251  ASP251      0.2598
    134  O          2.6560   16.8170   26.6210 O.2   251  ASP251     -0.2718
    135  CB         1.4610   15.4550   28.5940 C.3   251  ASP251      0.1424
    136  CG         1.1510   14.7710   29.9130 C.2   251  ASP251      0.3668
    137  OD1        1.5900   15.2560   30.9830 O.co2 251  ASP251     -0.2456
    138  OD2        0.4780   13.7140   29.8770 O.co2 251  ASP251     -0.2456
    139  N          2.0020   18.8790   27.2480 N.am  252  ILE252     -0.1966
    140  CA         2.6550   19.5690   26.1410 C.3   252  ILE252      0.1727
    141  C          3.6440   20.5100   26.8200 C.2   252  ILE252      0.2617
    142  O          3.3510   21.0330   27.8980 O.2   252  ILE252     -0.2715
    143  CB         1.6100   20.3390   25.2830 C.3   252  ILE252      0.0290
    144  CG1        0.8200   19.3610   24.4050 C.3   252  ILE252      0.0022
    145  CG2        2.2690   21.4180   24.4050 C.3   252  ILE252      0.0023
    146  CD1       -0.5120   19.9150   23.9000 C.3   252  ILE252      0.0001
    147  N          4.8180   20.7020   26.2300 N.am  253  GLY253     -0.1940
    148  CA         5.8420   21.5250   26.8690 C.3   253  GLY253      0.2014
    149  C          6.0860   22.8650   26.2090 C.2   253  GLY253      0.2639
    150  O          6.7510   23.7180   26.7870 O.2   253  GLY253     -0.2714
    151  N          5.5510   23.0510   25.0040 N.am  254  ALA254     -0.1963
    152  CA         5.8390   24.2430   24.2090 C.3   254  ALA254      0.1728
    153  C          4.6760   24.6700   23.3150 C.2   254  ALA254      0.2616
    154  O          4.0890   23.8450   22.6100 O.2   254  ALA254     -0.2715
    155  CB         7.0950   24.0220   23.3650 C.3   254  ALA254      0.0334
    156  N          4.3500   25.9610   23.3540 N.am  255  LEU255     -0.1964
    157  CA         3.4020   26.5550   22.4120 C.3   255  LEU255      0.1713
    158  C          4.0940   27.6470   21.5880 C.2   255  LEU255      0.2458
    159  O          4.7090   28.5550   22.1560 O.2   255  LEU255     -0.2730
    160  CB         2.1770   27.1390   23.1360 C.3   255  LEU255      0.0310
    161  CG         1.1470   26.2440   23.8390 C.3   255  LEU255      0.0022
    162  CD1        1.7450   25.4880   25.0240 C.3   255  LEU255      0.0001
    163  CD2       -0.0360   27.0830   24.3150 C.3   255  LEU255      0.0001
    164  N          4.0230   27.5470   20.2450 N.am  256  PRO256     -0.2727
    165  CA         4.4370   28.6470   19.3780 C.3   256  PRO256      0.1402
    166  C          3.5310   29.8470   19.6420 C.2   256  PRO256      0.2269
    167  O          2.3270   29.6720   19.8370 O.2   256  PRO256     -0.2865
    168  CB         4.1960   28.0920   17.9670 C.3   256  PRO256      0.0296
    169  CG         4.2750   26.6110   18.1320 C.3   256  PRO256      0.0237
    170  CD         3.6470   26.3520   19.4680 C.3   256  PRO256      0.0939
@<TRIPOS>BOND
     1   115   113   ar
     2   114   113   ar
     3   113   112    1
     4   101   102    2
     5   101   100    1
     6    99   100    1
     7   108   109    1
     8   100   103    1
     9    54    55    1
    10   109   112    1
    11   109   110    1
    12    57    56    2
    13    56    55    1
    14    55    58    1
    15   103   104    1
    16   122   120    1
    17    85    84    2
    18    93    92    2
    19   110   116   am
    20   110   111    2
    21    92    91    1
    22   105   104    1
    23   105   106    1
    24   116   117    1
    25   107   106    1
    26    86    87    1
    27    86    83    1
    28    84    83    1
    29    87    89   ar
    30    87    88   ar
    31   120   117    1
    32   120   121    1
    33    58    60    1
    34    58    59    1
    35    83    82    1
    36   117   118    1
    37    91    94    1
    38    91    90    1
    39    94    95    1
    40    62    63    1
    41    65    64    2
    42   119   118    2
    43    59    61    1
    44   118   123   am
    45    82    77   am
    46   168   169    1
    47   168   165    1
    48    64    63    1
    49    64    69   am
    50   169   170    1
    51    96    95    1
    52    96    97    1
    53    63    66    1
    54    78    77    2
    55    77    76    1
    56    72    71    2
    57    45    46    2
    58    45    44    1
    59   123   124    1
    60    69    70    1
    61    70    71    1
    62    70    73    1
    63    71    75   am
    64    98    97    1
    65   165   166    1
    66   165   164    1
    67    68    66    1
    68    66    67    1
    69   170   164    1
    70   166   167    2
    71    44    47    1
    72    44    43    1
    73    35    34    2
    74    75    76    1
    75   124   125    1
    76   124   127    1
    77    76    79    1
    78   125   126    2
    79    73    74    1
    80   164   158   am
    81    47    48    1
    82    34    43   am
    83    34    33    1
    84    81    79    1
    85    79    80    1
    86   128   127    1
    87   128   130    1
    88   127   129    1
    89    33    32    1
    90    33    36    1
    91   158   159    2
    92   158   157    1
    93    20    18    1
    94    48    49    1
    95   157   160    1
    96   157   156    1
    97   154   153    2
    98    49    50    1
    99    36    37    1
   100    18    19    1
   101    18    17    2
   102   160   161    1
   103   153   156   am
   104   153   152    1
   105   155   152    1
   106    37    38    1
   107    17    16    1
   108   161   163    1
   109   161   162    1
   110   146   144    1
   111    50    51    2
   112   152   151    1
   113   144   143    1
   114   145   143    1
   115    15    16    1
   116    15    14    1
   117     9     8    1
   118    39    38    1
   119    39    40    2
   120   151   149   am
   121    51    52    1
   122    51    53    1
   123   143   140    1
   124     8     7    1
   125    42    40    1
   126    40    41    1
   127    14    11    1
   128   140   141    1
   129   140   139    1
   130     6     7    1
   131     6     5    1
   132   149   150    2
   133   149   148    1
   134   147   141   am
   135   147   148    1
   136   134   133    2
   137   141   142    2
   138     2     5    1
   139     2     1    1
   140     2     3    1
   141    11    12    1
   142    11    10    1
   143    13    12    2
   144   139   133   am
   145   133   132    1
   146     4     3    2
   147   135   132    1
   148   135   136    1
   149   132   131    1
   150    31    29    1
   151   138   136   ar
   152   136   137   ar
   153    29    30    1
   154    29    28    2
   155    28    27    1
   156    27    26    1
   157    26    25    1
   158    25    22    1
   159    21    22    1
   160    22    23    1
   161    23    24    2
