@<TRIPOS>MOLECULE
tmp/3kh5A02.pdb
 159 152 0 0 0
SMALL
GASTEIGER

@<TRIPOS>ATOM
      1  N          9.3760    9.6180   27.9400 N.3    34  ARG34      -0.1231
      2  CA        10.4550    9.9810   27.0440 C.3    34  ARG34       0.1694
      3  C         11.7460   10.3880   27.7860 C.2    34  ARG34       0.2591
      4  O         12.6470   10.9860   27.1920 O.2    34  ARG34      -0.2718
      5  CB         9.9750   11.0570   26.0570 C.3    34  ARG34       0.0321
      6  CG         9.3700   10.4990   24.7460 C.3    34  ARG34       0.0489
      7  CD         8.2550    9.4550   24.9540 C.3    34  ARG34       0.2205
      8  NE         8.0360    8.6320   23.7600 N.pl3  34  ARG34      -0.0865
      9  CZ         6.8880    8.5430   23.0890 C.cat  34  ARG34       0.5346
     10  NH1        5.8140    9.2160   23.4880 N.pl3  34  ARG34       0.1354
     11  NH2        6.8110    7.7660   22.0150 N.pl3  34  ARG34       0.1354
     12  N         11.8310   10.0460   29.0730 N.am   35  ARG35      -0.1980
     13  CA        13.0270   10.3050   29.8880 C.3    35  ARG35       0.1597
     14  C         13.2850    9.1180   30.8120 C.2    35  ARG35       0.2287
     15  O         12.5330    8.8890   31.7630 O.2    35  ARG35      -0.2864
     16  CB        12.8530   11.5910   30.7080 C.3    35  ARG35       0.0334
     17  CG        14.0240   11.9450   31.6390 C.3    35  ARG35       0.0492
     18  CD        13.6660   13.0790   32.6180 C.3    35  ARG35       0.2205
     19  NE        13.0200   14.2010   31.9390 N.pl3  35  ARG35      -0.0865
     20  CZ        13.6550   15.2490   31.4210 C.cat  35  ARG35       0.5346
     21  NH1       14.9770   15.3560   31.5130 N.pl3  35  ARG35       0.1354
     22  NH2       12.9570   16.2020   30.8110 N.pl3  35  ARG35       0.1354
     23  N         21.2760    8.5610   32.0900 N.3    49  ILE49      -0.1245
     24  CA        19.9210    8.9380   31.6930 C.3    49  ILE49       0.1561
     25  C         19.8590    8.9730   30.1630 C.2    49  ILE49       0.2260
     26  O         20.8400    9.3290   29.5050 O.2    49  ILE49      -0.2867
     27  CB        19.4870   10.2920   32.3320 C.3    49  ILE49       0.0252
     28  CG1       17.9850   10.5480   32.1350 C.3    49  ILE49       0.0019
     29  CG2       20.3500   11.4590   31.8240 C.3    49  ILE49       0.0019
     30  CD1       17.3840   11.5290   33.1380 C.3    49  ILE49       0.0001
     31  N         17.1270   10.0600   26.9040 N.3    51  THR51      -0.1203
     32  CA        15.8710   10.6780   26.4910 C.3    51  THR51       0.1994
     33  C         15.7410   10.5580   24.9810 C.2    51  THR51       0.2619
     34  O         16.6550   10.0670   24.3120 O.2    51  THR51      -0.2717
     35  CB        15.8100   12.1760   26.8600 C.3    51  THR51       0.1784
     36  OG1       16.6810   12.9150   25.9940 O.3    51  THR51      -0.2211
     37  CG2       16.2050   12.4170   28.3250 C.3    51  THR51       0.0376
     38  N         14.6190   11.0290   24.4430 N.am   52  SER52      -0.1937
     39  CA        14.3820   10.9890   23.0010 C.3    52  SER52       0.2055
     40  C         15.3830   11.8370   22.2250 C.2    52  SER52       0.2643
     41  O         15.6540   11.5640   21.0570 O.2    52  SER52      -0.2714
     42  CB        12.9500   11.4160   22.6680 C.3    52  SER52       0.2130
     43  OG        12.6530   12.6910   23.2020 O.3    52  SER52      -0.2179
     44  N         15.9210   12.8650   22.8770 N.am   53  MET53      -0.1962
     45  CA        16.9370   13.7190   22.2690 C.3    53  MET53       0.1736
     46  C         18.2380   12.9770   22.0200 C.2    53  MET53       0.2616
     47  O         18.8950   13.2030   21.0070 O.2    53  MET53      -0.2715
     48  CB        17.1900   14.9550   23.1250 C.3    53  MET53       0.0427
     49  CG        16.2730   16.0920   22.7590 C.3    53  MET53       0.0599
     50  SD        16.8060   16.8320   21.2100 S.3    53  MET53      -0.1393
     51  CE        15.2640   16.6360   20.3000 C.3    53  MET53       0.0692
     52  N         18.6060   12.0870   22.9330 N.am   54  ASP54      -0.1971
     53  CA        19.7710   11.2320   22.7280 C.3    54  ASP54       0.1709
     54  C         19.5710   10.3050   21.5360 C.2    54  ASP54       0.2293
     55  O         20.5210    9.9930   20.8130 O.2    54  ASP54      -0.2864
     56  CB        20.0340   10.3950   23.9720 C.3    54  ASP54       0.1436
     57  CG        20.4220   11.2340   25.1610 C.2    54  ASP54       0.3671
     58  OD1       21.3910   12.0130   25.0420 O.co2  54  ASP54      -0.2456
     59  OD2       19.7700   11.1020   26.2200 O.co2  54  ASP54      -0.2456
     60  N         23.5920    9.7010   28.5480 N.3    89  GLU89      -0.1231
     61  CA        24.3480   10.7280   29.2350 C.3    89  GLU89       0.1699
     62  C         24.7580   10.2200   30.6140 C.2    89  GLU89       0.2592
     63  O         23.9330    9.6800   31.3530 O.2    89  GLU89      -0.2718
     64  CB        23.5380   12.0160   29.3060 C.3    89  GLU89       0.0402
     65  CG        23.4310   12.6930   27.9340 C.3    89  GLU89       0.1161
     66  CD        24.7740   13.2230   27.4580 C.2    89  GLU89       0.3649
     67  OE1       25.4120   13.9570   28.2490 O.co2  89  GLU89      -0.2457
     68  OE2       25.1880   12.9230   26.3110 O.co2  89  GLU89      -0.2457
     69  N         26.0430   10.3480   30.9340 N.am   90  GLU90      -0.1966
     70  CA        26.5480   10.0250   32.2740 C.3    90  GLU90       0.1733
     71  C         26.7240   11.3570   33.0210 C.2    90  GLU90       0.2616
     72  O         26.3980   12.4050   32.4560 O.2    90  GLU90      -0.2715
     73  CB        27.8490    9.2170   32.1770 C.3    90  GLU90       0.0429
     74  CG        27.7320    7.9910   31.2540 C.3    90  GLU90       0.1163
     75  CD        28.9630    7.1010   31.2740 C.2    90  GLU90       0.3649
     76  OE1       29.4730    6.7590   30.1840 O.co2  90  GLU90      -0.2457
     77  OE2       29.4250    6.7400   32.3800 O.co2  90  GLU90      -0.2457
     78  N         27.2010   11.3630   34.2650 N.am   91  ASN91      -0.1958
     79  CA        27.2730   12.6370   35.0120 C.3    91  ASN91       0.1819
     80  C         25.8830   13.2820   35.0920 C.2    91  ASN91       0.2621
     81  O         25.6910   14.4370   34.6970 O.2    91  ASN91      -0.2715
     82  CB        28.2740   13.6090   34.3410 C.3    91  ASN91       0.1195
     83  CG        28.7560   14.7070   35.2900 C.2    91  ASN91       0.2630
     84  OD1       28.4670   14.6950   36.4900 O.2    91  ASN91      -0.2716
     85  ND2       29.5120   15.6610   34.7530 N.am   91  ASN91      -0.0877
     86  N         24.9170   12.5180   35.5910 N.am   92  VAL92      -0.1963
     87  CA        23.5180   12.9310   35.6070 C.3    92  VAL92       0.1727
     88  C         23.3140   14.0870   36.5840 C.2    92  VAL92       0.2616
     89  O         23.9160   14.1170   37.6560 O.2    92  VAL92      -0.2715
     90  CB        22.5970   11.7270   35.9650 C.3    92  VAL92       0.0290
     91  CG1       21.1200   12.1150   35.9400 C.3    92  VAL92       0.0023
     92  CG2       22.8550   10.5630   35.0210 C.3    92  VAL92       0.0023
     93  N         22.4850   15.0500   36.2010 N.am   93  ILE93      -0.1977
     94  CA        22.0390   16.0670   37.1380 C.3    93  ILE93       0.1596
     95  C         20.9020   15.4860   37.9790 C.2    93  ILE93       0.2287
     96  O         19.8160   15.1970   37.4590 O.2    93  ILE93      -0.2864
     97  CB        21.5840   17.3470   36.4140 C.3    93  ILE93       0.0276
     98  CG1       22.7830   18.0160   35.7350 C.3    93  ILE93       0.0022
     99  CG2       20.9180   18.3150   37.3950 C.3    93  ILE93       0.0022
    100  CD1       22.4110   19.1320   34.7880 C.3    93  ILE93       0.0001
    101  N         19.6430   23.8110   32.3100 N.3   112  ASN112     -0.1225
    102  CA        19.0700   23.3550   31.0340 C.3   112  ASN112      0.1785
    103  C         18.6430   21.8780   31.0270 C.2   112  ASN112      0.2597
    104  O         18.9700   21.1110   30.1090 O.2   112  ASN112     -0.2718
    105  CB        20.0460   23.6500   29.8870 C.3   112  ASN112      0.1169
    106  CG        19.3600   23.7300   28.5380 C.2   112  ASN112      0.2627
    107  OD1       18.2130   24.1680   28.4330 O.2   112  ASN112     -0.2716
    108  ND2       20.0680   23.3150   27.4900 N.am  112  ASN112     -0.0877
    109  N         17.9380   21.4860   32.0810 N.am  113  VAL113     -0.1966
    110  CA        17.3300   20.1650   32.1810 C.3   113  VAL113      0.1727
    111  C         15.8550   20.3790   32.5080 C.2   113  VAL113      0.2617
    112  O         15.4870   21.3890   33.1210 O.2   113  VAL113     -0.2715
    113  CB        18.0190   19.2800   33.2480 C.3   113  VAL113      0.0290
    114  CG1       19.3020   18.6720   32.6990 C.3   113  VAL113      0.0023
    115  CG2       18.2800   20.0620   34.5370 C.3   113  VAL113      0.0023
    116  N         15.0070   19.4550   32.0700 N.am  114  GLY114     -0.1940
    117  CA        13.5730   19.5440   32.3210 C.3   114  GLY114      0.2014
    118  C         13.0790   18.5210   33.3250 C.2   114  GLY114      0.2639
    119  O         11.9110   18.5410   33.7070 O.2   114  GLY114     -0.2714
    120  N         13.9670   17.6250   33.7480 N.am  115  GLY115     -0.1939
    121  CA        13.6110   16.5440   34.6710 C.3   115  GLY115      0.2014
    122  C         14.8690   16.0420   35.3460 C.2   115  GLY115      0.2639
    123  O         15.9360   16.0070   34.7280 O.2   115  GLY115     -0.2714
    124  N         14.7540   15.6630   36.6150 N.am  116  ALA116     -0.1963
    125  CA        15.9130   15.2230   37.3930 C.3   116  ALA116      0.1713
    126  C         15.5730   14.0650   38.3250 C.2   116  ALA116      0.2458
    127  O         14.6000   14.1510   39.0800 O.2   116  ALA116     -0.2730
    128  CB        16.4940   16.3930   38.1900 C.3   116  ALA116      0.0333
    129  N         16.3710   12.9800   38.2790 N.am  117  PRO117     -0.2727
    130  CA        16.2170   11.9040   39.2510 C.3   117  PRO117      0.1402
    131  C         16.4150   12.4300   40.6720 C.2   117  PRO117      0.2269
    132  O         17.2680   13.2920   40.9040 O.2   117  PRO117     -0.2865
    133  CB        17.3480   10.9360   38.8820 C.3   117  PRO117      0.0296
    134  CG        17.6220   11.2060   37.4470 C.3   117  PRO117      0.0237
    135  CD        17.4500   12.6880   37.3150 C.3   117  PRO117      0.0939
    136  N         19.7130   22.1370   21.3410 N.3   176  GLY176     -0.1225
    137  CA        19.0990   21.5840   22.5520 C.3   176  GLY176      0.1811
    138  C         17.6030   21.8380   22.6770 C.2   176  GLY176      0.2280
    139  O         17.0960   22.0100   23.7890 O.2   176  GLY176     -0.2866
    140  N         13.8300   20.2910   21.8660 N.3   178  ARG178     -0.1245
    141  CA        12.9890   19.1440   21.5020 C.3   178  ARG178      0.1563
    142  C         11.8770   19.5020   20.5230 C.2   178  ARG178      0.2260
    143  O         11.4170   18.6420   19.7730 O.2   178  ARG178     -0.2867
    144  CB        12.3460   18.5200   22.7420 C.3   178  ARG178      0.0307
    145  CG        13.3170   17.8320   23.6860 C.3   178  ARG178      0.0489
    146  CD        12.6880   17.6070   25.0560 C.3   178  ARG178      0.2205
    147  NE        11.4010   16.9100   24.9890 N.pl3 178  ARG178     -0.0865
    148  CZ        10.6850   16.5520   26.0530 C.cat 178  ARG178      0.5346
    149  NH1       11.1260   16.8160   27.2790 N.pl3 178  ARG178      0.1354
    150  NH2        9.5260   15.9240   25.8940 N.pl3 178  ARG178      0.1354
    151  N          9.7820   25.7210   30.8540 N.3   271  LYS271     -0.1245
    152  CA        10.9050   26.3690   31.5340 C.3   271  LYS271      0.1561
    153  C         10.6510   27.8660   31.6790 C.2   271  LYS271      0.2260
    154  O         10.9500   28.4490   32.7230 O.2   271  LYS271     -0.2867
    155  CB        12.2430   26.1220   30.8290 C.3   271  LYS271      0.0271
    156  CG        13.4580   26.4280   31.7220 C.3   271  LYS271      0.0035
    157  CD        14.7920   26.2780   30.9930 C.3   271  LYS271      0.0206
    158  CE        15.0040   24.8660   30.4500 C.3   271  LYS271      0.1093
    159  NZ        14.9380   23.8200   31.5080 N.3   271  LYS271     -0.1314
@<TRIPOS>BOND
     1   143   142    2
     2    51    50    1
     3   142   141    1
     4    55    54    2
     5    47    46    2
     6    41    40    2
     7    50    49    1
     8   136   137    1
     9   141   140    1
    10   141   144    1
    11    54    53    1
    12    11     9    1
    13    46    45    1
    14    46    52   am
    15    40    44   am
    16    40    39    1
    17    45    44    1
    18    45    48    1
    19   137   138    1
    20    42    39    1
    21    42    43    1
    22   138   139    2
    23    53    52    1
    24    53    56    1
    25   144   145    1
    26    49    48    1
    27    39    38    1
    28     9    10    1
    29     9     8    2
    30   145   146    1
    31     8     7    1
    32    56    57    1
    33    34    33    2
    34    38    33   am
    35     6     7    1
    36     6     5    1
    37    33    32    1
    38   147   146    1
    39   147   148    2
    40    58    57   ar
    41    57    59   ar
    42   150   148    1
    43    36    35    1
    44   148   149    1
    45     5     2    1
    46    68    66   ar
    47    32    35    1
    48    32    31    1
    49    35    37    1
    50     2     3    1
    51     2     1    1
    52     4     3    2
    53    66    65    1
    54    66    67   ar
    55   108   106   am
    56     3    12   am
    57    65    64    1
    58   107   106    2
    59   106   105    1
    60    60    61    1
    61    12    13    1
    62    61    64    1
    63    61    62    1
    64    26    25    2
    65   105   102    1
    66    13    16    1
    67    13    14    1
    68   104   103    2
    69    25    24    1
    70    76    75   ar
    71   158   157    1
    72   158   159    1
    73    62    69   am
    74    62    63    2
    75    16    17    1
    76    22    20    1
    77    14    15    2
    78   155   152    1
    79   155   156    1
    80   151   152    1
    81    69    70    1
    82   157   156    1
    83   103   102    1
    84   103   109   am
    85   102   101    1
    86    74    75    1
    87    74    73    1
    88    75    77   ar
    89    20    21    1
    90    20    19    2
    91   152   153    1
    92    17    18    1
    93   153   154    2
    94    24    23    1
    95    24    27    1
    96    29    27    1
    97    19    18    1
    98   116   117    1
    99   116   111   am
   100   109   110    1
   101    28    27    1
   102    28    30    1
   103    73    70    1
   104   110   111    1
   105   110   113    1
   106    70    71    1
   107   117   118    1
   108    72    71    2
   109   111   112    2
   110   114   113    1
   111    71    78   am
   112   113   115    1
   113   118   119    2
   114   118   120   am
   115   120   121    1
   116    78    79    1
   117    82    79    1
   118    82    83    1
   119   121   122    1
   120    81    80    2
   121   123   122    2
   122    85    83   am
   123   100    98    1
   124    79    80    1
   125    92    90    1
   126    80    86   am
   127    83    84    2
   128   122   124   am
   129    86    87    1
   130    87    90    1
   131    87    88    1
   132    98    97    1
   133    91    90    1
   134    93    88   am
   135    93    94    1
   136    97    94    1
   137    97    99    1
   138    88    89    2
   139   124   125    1
   140    94    95    1
   141   135   134    1
   142   135   129    1
   143   125   128    1
   144   125   126    1
   145   134   133    1
   146    96    95    2
   147   129   126   am
   148   129   130    1
   149   126   127    2
   150   133   130    1
   151   130   131    1
   152   131   132    2
