@<TRIPOS>MOLECULE
tmp/3khjB01.pdb
 92 85 0 0 0
SMALL
GASTEIGER

@<TRIPOS>ATOM
      1  N         33.0480   24.9130   14.4220 N.3    71  LYS71      -0.1245
      2  CA        33.0010   26.3610   14.6210 C.3    71  LYS71       0.1561
      3  C         32.2290   26.7820   15.8750 C.2    71  LYS71       0.2260
      4  O         32.0960   27.9760   16.1500 O.2    71  LYS71      -0.2867
      5  CB        32.4310   27.0510   13.3750 C.3    71  LYS71       0.0271
      6  CG        30.9580   26.7620   13.1030 C.3    71  LYS71       0.0035
      7  CD        30.5950   27.0640   11.6590 C.3    71  LYS71       0.0206
      8  CE        29.0960   27.2350   11.4850 C.3    71  LYS71       0.1093
      9  NZ        28.6370   28.5510   12.0240 N.3    71  LYS71      -0.1314
     10  N         27.1270   25.2070    5.4930 N.3   120  SER120     -0.1202
     11  CA        25.7420   25.6390    5.6530 C.3   120  SER120      0.2020
     12  C         24.7810   24.4630    5.5550 C.2   120  SER120      0.2619
     13  O         25.0600   23.4730    4.8740 O.2   120  SER120     -0.2717
     14  CB        25.3800   26.6850    4.5990 C.3   120  SER120      0.2103
     15  OG        24.0470   27.1420    4.7640 O.3   120  SER120     -0.2182
     16  N         23.6510   24.5820    6.2480 N.am  121  ALA121     -0.1965
     17  CA        22.5490   23.6390    6.1120 C.3   121  ALA121      0.1728
     18  C         22.0430   23.6730    4.6720 C.2   121  ALA121      0.2616
     19  O         21.7690   22.6290    4.0730 O.2   121  ALA121     -0.2715
     20  CB        21.4370   23.9880    7.0780 C.3   121  ALA121      0.0334
     21  N         21.9400   24.8830    4.1260 N.am  122  HIS122     -0.1973
     22  CA        21.5840   25.0890    2.7300 C.3   122  HIS122      0.1656
     23  C         22.7090   25.8420    2.0190 C.2   122  HIS122      0.2291
     24  O         22.8000   27.0710    2.0870 O.2   122  HIS122     -0.2864
     25  CB        20.2540   25.8370    2.6260 C.3   122  HIS122      0.0771
     26  CG        19.7740   26.0340    1.2230 C.ar  122  HIS122      0.0820
     27  ND1       19.8100   25.0330    0.2750 N.ar  122  HIS122     -0.2267
     28  CD2       19.2280   27.1110    0.6120 C.ar  122  HIS122      0.1154
     29  CE1       19.3200   25.4900   -0.8630 C.ar  122  HIS122      0.1986
     30  NE2       18.9560   26.7470   -0.6850 N.ar  122  HIS122     -0.2212
     31  N         20.4100   13.9110   11.9350 N.3   175  CYS175     -0.1235
     32  CA        19.6760   14.8350   11.0760 C.3   175  CYS175      0.1677
     33  C         18.1620   14.6370   11.1680 C.2   175  CYS175      0.2270
     34  O         17.6730   13.5070   11.1530 O.2   175  CYS175     -0.2867
     35  CB        20.1420   14.6830    9.6260 C.3   175  CYS175      0.0956
     36  SG        19.3650   15.8120    8.4480 S.3   175  CYS175     -0.0801
     37  N         16.2800   17.2040    9.3080 N.3   177  THR177     -0.1218
     38  CA        15.9080   18.1680    8.2680 C.3   177  THR177      0.1862
     39  C         14.7090   17.6780    7.4600 C.2   177  THR177      0.2287
     40  O         13.7870   18.4470    7.1780 O.2   177  THR177     -0.2866
     41  CB        17.1020   18.4720    7.3150 C.3   177  THR177      0.1770
     42  OG1       18.1230   19.1750    8.0330 O.3   177  THR177     -0.2211
     43  CG2       16.6680   19.3190    6.1260 C.3   177  THR177      0.0375
     44  N         24.4890   19.6090   15.3500 N.3   258  MET258     -0.1230
     45  CA        24.8040   21.0360   15.4680 C.3   258  MET258      0.1702
     46  C         23.5470   21.9090   15.4740 C.2   258  MET258      0.2592
     47  O         23.5300   22.9780   16.0860 O.2   258  MET258     -0.2718
     48  CB        25.7800   21.4750   14.3740 C.3   258  MET258      0.0401
     49  CG        27.1400   20.7820   14.4460 C.3   258  MET258      0.0596
     50  SD        28.0280   21.0520   15.9990 S.3   258  MET258     -0.1393
     51  CE        28.7160   22.6800   15.7110 C.3   258  MET258      0.0692
     52  N         22.4990   21.4410   14.7980 N.am  259  GLY259     -0.1957
     53  CA        21.1960   22.1000   14.8210 C.3   259  GLY259      0.1869
     54  C         20.3050   21.5830   15.9380 C.2   259  GLY259      0.2309
     55  O         19.0810   21.7050   15.8720 O.2   259  GLY259     -0.2863
     56  N         23.1260   22.2030   21.2850 N.3   263  ALA263     -0.1231
     57  CA        24.2220   22.7980   20.5180 C.3   263  ALA263      0.1694
     58  C         23.9920   24.2760   20.2010 C.2   263  ALA263      0.2591
     59  O         24.9470   25.0490   20.0990 O.2   263  ALA263     -0.2718
     60  CB        24.4590   22.0160   19.2410 C.3   263  ALA263      0.0304
     61  N         22.7280   24.6590   20.0440 N.am  264  MET264     -0.1979
     62  CA        22.3710   26.0460   19.7430 C.3   264  MET264      0.1605
     63  C         22.4580   26.9480   20.9750 C.2   264  MET264      0.2287
     64  O         22.6560   28.1590   20.8490 O.2   264  MET264     -0.2864
     65  CB        20.9790   26.1250   19.1120 C.3   264  MET264      0.0413
     66  CG        20.9010   25.5270   17.7110 C.3   264  MET264      0.0598
     67  SD        19.2870   25.6950   16.9240 S.3   264  MET264     -0.1393
     68  CE        18.2590   24.6710   17.9770 C.3   264  MET264      0.0692
     69  N         16.2330   29.8450   15.5330 N.3   266  MET266     -0.1230
     70  CA        16.1390   28.8080   14.5130 C.3   266  MET266      0.1702
     71  C         15.4920   27.5400   15.0730 C.2   266  MET266      0.2592
     72  O         15.7720   27.1370   16.2060 O.2   266  MET266     -0.2718
     73  CB        17.5280   28.4930   13.9430 C.3   266  MET266      0.0401
     74  CG        17.5270   27.6480   12.6670 C.3   266  MET266      0.0596
     75  SD        16.9520   28.5290   11.1940 S.3   266  MET266     -0.1393
     76  CE        18.3940   29.5110   10.7820 C.3   266  MET266      0.0692
     77  N         14.6250   26.9280   14.2700 N.am  267  VAL267     -0.1980
     78  CA        13.9530   25.6750   14.6260 C.3   267  VAL267      0.1595
     79  C         14.9520   24.5030   14.6480 C.2   267  VAL267      0.2287
     80  O         15.7470   24.3540   13.7150 O.2   267  VAL267     -0.2864
     81  CB        12.7450   25.3900   13.6700 C.3   267  VAL267      0.0276
     82  CG1       13.2070   25.1740   12.2200 C.3   267  VAL267      0.0022
     83  CG2       11.8970   24.2180   14.1660 C.3   267  VAL267      0.0022
     84  N         16.9260   21.2180   14.1140 N.3   269  GLU269     -0.1245
     85  CA        17.0220   20.3010   12.9720 C.3   269  GLU269      0.1567
     86  C         17.9100   19.0830   13.2580 C.2   269  GLU269      0.2260
     87  O         18.3210   18.3680   12.3380 O.2   269  GLU269     -0.2867
     88  CB        17.4990   21.0410   11.7180 C.3   269  GLU269      0.0388
     89  CG        16.4360   21.9320   11.0910 C.3   269  GLU269      0.1160
     90  CD        16.8230   22.4690    9.7230 C.2   269  GLU269      0.3649
     91  OE1       16.2300   23.4850    9.3070 O.co2 269  GLU269     -0.2457
     92  OE2       17.7090   21.8840    9.0620 O.co2 269  GLU269     -0.2457
@<TRIPOS>BOND
     1    29    30   ar
     2    29    27   ar
     3    30    28   ar
     4    27    26   ar
     5    28    26   ar
     6    26    25    1
     7    23    24    2
     8    23    22    1
     9    25    22    1
    10    22    21    1
    11    19    18    2
    12    21    18   am
    13    14    15    1
    14    14    11    1
    15    18    17    1
    16    13    12    2
    17    10    11    1
    18    12    11    1
    19    12    16   am
    20    17    16    1
    21    17    20    1
    22    43    41    1
    23    40    39    2
    24    41    42    1
    25    41    38    1
    26    39    38    1
    27    38    37    1
    28    36    35    1
    29    92    90   ar
    30    91    90   ar
    31    35    32    1
    32    90    89    1
    33    76    75    1
    34    32    33    1
    35    32    31    1
    36    89    88    1
    37    34    33    2
    38    75    74    1
    39     8     7    1
    40     8     9    1
    41     7     6    1
    42    88    85    1
    43    82    81    1
    44    87    86    2
    45    74    73    1
    46    85    86    1
    47    85    84    1
    48     6     5    1
    49     5     2    1
    50    81    83    1
    51    81    78    1
    52    80    79    2
    53    73    70    1
    54    77    78    1
    55    77    71   am
    56    48    49    1
    57    48    45    1
    58     1     2    1
    59    49    50    1
    60    70    71    1
    61    70    69    1
    62     2     3    1
    63    78    79    1
    64    52    53    1
    65    52    46   am
    66    53    54    1
    67    71    72    2
    68    44    45    1
    69    45    46    1
    70    46    47    2
    71    51    50    1
    72    55    54    2
    73     3     4    2
    74    67    66    1
    75    67    68    1
    76    66    65    1
    77    65    62    1
    78    60    57    1
    79    62    61    1
    80    62    63    1
    81    61    58   am
    82    59    58    2
    83    58    57    1
    84    57    56    1
    85    64    63    2
