@<TRIPOS>MOLECULE
tmp/3khlD01.pdb
 83 77 0 0 0
SMALL
GASTEIGER

@<TRIPOS>ATOM
      1  N        -23.9460   27.4660  -61.8520 N.3   246  GLY246     -0.1210
      2  CA       -23.7020   28.8390  -62.1910 C.3   246  GLY246      0.1956
      3  C        -22.7400   29.1090  -63.3190 C.2   246  GLY246      0.2612
      4  O        -22.0790   28.2180  -63.8570 O.2   246  GLY246     -0.2717
      5  N        -22.6550   30.3850  -63.6390 N.am  247  ARG247     -0.1965
      6  CA       -21.7980   30.8820  -64.6710 C.3   247  ARG247      0.1729
      7  C        -21.3790   32.2990  -64.3160 C.2   247  ARG247      0.2616
      8  O        -22.2310   33.1290  -63.9600 O.2   247  ARG247     -0.2715
      9  CB       -22.5590   30.8750  -65.9990 C.3   247  ARG247      0.0348
     10  CG       -21.7230   31.2430  -67.1920 C.3   247  ARG247      0.0492
     11  CD       -20.7690   30.1010  -67.5620 C.3   247  ARG247      0.2205
     12  NE       -20.2150   30.3570  -68.8830 N.pl3 247  ARG247     -0.0865
     13  CZ       -19.0290   30.9040  -69.1130 C.cat 247  ARG247      0.5346
     14  NH1      -18.2350   31.2430  -68.1040 N.pl3 247  ARG247      0.1354
     15  NH2      -18.6380   31.1090  -70.3670 N.pl3 247  ARG247      0.1354
     16  N        -20.0790   32.5720  -64.4230 N.am  248  ILE248     -0.1977
     17  CA       -19.5530   33.9180  -64.2930 C.3   248  ILE248      0.1596
     18  C        -18.6480   34.2390  -65.4870 C.2   248  ILE248      0.2287
     19  O        -17.8920   33.3790  -65.9490 O.2   248  ILE248     -0.2864
     20  CB       -18.8170   34.1340  -62.9400 C.3   248  ILE248      0.0276
     21  CG1      -18.5740   35.6230  -62.6820 C.3   248  ILE248      0.0022
     22  CG2      -17.5140   33.3430  -62.8830 C.3   248  ILE248      0.0022
     23  CD1      -18.1820   35.9170  -61.2490 C.3   248  ILE248      0.0001
     24  N        -29.2180   33.8450  -57.6480 N.3   285  HIS285     -0.1241
     25  CA       -28.3420   34.8790  -57.1080 C.3   285  HIS285      0.1621
     26  C        -27.5390   35.4960  -58.2370 C.2   285  HIS285      0.2264
     27  O        -27.1350   34.7870  -59.1700 O.2   285  HIS285     -0.2867
     28  CB       -27.3580   34.2790  -56.1020 C.3   285  HIS285      0.0745
     29  CG       -28.0130   33.7450  -54.8740 C.ar  285  HIS285      0.0817
     30  ND1      -27.9280   34.3740  -53.6500 N.ar  285  HIS285     -0.2268
     31  CD2      -28.7870   32.6520  -54.6830 C.ar  285  HIS285      0.1154
     32  CE1      -28.6200   33.6890  -52.7580 C.ar  285  HIS285      0.1986
     33  NE2      -29.1470   32.6380  -53.3590 N.ar  285  HIS285     -0.2212
     34  N        -23.8970   37.5430  -59.0500 N.3   287  VAL287     -0.1245
     35  CA       -22.6010   37.9820  -58.4700 C.3   287  VAL287      0.1561
     36  C        -21.9650   39.0290  -59.3050 C.2   287  VAL287      0.2260
     37  O        -21.9400   38.9220  -60.5160 O.2   287  VAL287     -0.2867
     38  CB       -21.4560   36.9430  -58.4570 C.3   287  VAL287      0.0252
     39  CG1      -21.1400   36.4680  -57.0630 C.3   287  VAL287      0.0019
     40  CG2      -21.6250   35.8660  -59.4940 C.3   287  VAL287      0.0019
     41  N        -15.9250   40.3390  -53.9520 N.3   295  ILE295     -0.1245
     42  CA       -17.0940   39.5990  -54.4370 C.3   295  ILE295      0.1561
     43  C        -18.3550   40.0340  -53.6740 C.2   295  ILE295      0.2260
     44  O        -18.4080   39.9530  -52.4510 O.2   295  ILE295     -0.2867
     45  CB       -16.8890   38.0570  -54.3330 C.3   295  ILE295      0.0252
     46  CG1      -15.5430   37.6420  -54.9640 C.3   295  ILE295      0.0019
     47  CG2      -18.0710   37.3010  -54.9780 C.3   295  ILE295      0.0019
     48  CD1      -15.1320   36.2090  -54.6980 C.3   295  ILE295      0.0001
     49  N        -22.8160   39.7990  -53.8090 N.3   297  SER297     -0.1217
     50  CA       -23.9470   39.1420  -54.4480 C.3   297  SER297      0.1889
     51  C        -25.3090   39.5030  -53.8360 C.2   297  SER297      0.2288
     52  O        -25.4020   39.9860  -52.7080 O.2   297  SER297     -0.2866
     53  CB       -23.7430   37.6250  -54.4340 C.3   297  SER297      0.2089
     54  OG       -23.8580   37.1300  -53.1220 O.3   297  SER297     -0.2183
     55  N        -16.4990   41.4950  -63.2850 N.3   332  ARG332     -0.1245
     56  CA       -17.0860   40.2380  -63.7440 C.3   332  ARG332      0.1563
     57  C        -18.5250   40.1320  -63.2300 C.2   332  ARG332      0.2260
     58  O        -18.8480   40.6420  -62.1520 O.2   332  ARG332     -0.2867
     59  CB       -16.2780   39.0500  -63.2150 C.3   332  ARG332      0.0307
     60  CG       -14.7640   39.0930  -63.5350 C.3   332  ARG332      0.0489
     61  CD       -13.9820   38.0660  -62.7040 C.3   332  ARG332      0.2205
     62  NE       -14.3550   36.6940  -63.0160 N.pl3 332  ARG332     -0.0865
     63  CZ       -14.2600   35.6680  -62.1680 C.cat 332  ARG332      0.5346
     64  NH1      -14.6320   34.4630  -62.5510 N.pl3 332  ARG332      0.1354
     65  NH2      -13.8180   35.8420  -60.9330 N.pl3 332  ARG332      0.1354
     66  N        -24.2440   34.5710  -62.3820 N.3   335  VAL335     -0.1231
     67  CA       -25.5040   34.1640  -61.8480 C.3   335  VAL335      0.1692
     68  C        -25.3620   32.7270  -61.3900 C.2   335  VAL335      0.2591
     69  O        -24.5410   31.9810  -61.9340 O.2   335  VAL335     -0.2718
     70  CB       -26.6080   34.2930  -62.9470 C.3   335  VAL335      0.0266
     71  CG1      -26.4090   33.2610  -64.0400 C.3   335  VAL335      0.0020
     72  CG2      -27.9570   34.1700  -62.3500 C.3   335  VAL335      0.0020
     73  N        -26.1350   32.3400  -60.3780 N.am  336  ARG336     -0.1980
     74  CA       -26.2060   30.9400  -59.9990 C.3   336  ARG336      0.1597
     75  C        -27.6240   30.5430  -59.5860 C.2   336  ARG336      0.2287
     76  O        -28.3600   31.3260  -58.9910 O.2   336  ARG336     -0.2864
     77  CB       -25.1730   30.6330  -58.9000 C.3   336  ARG336      0.0334
     78  CG       -25.5710   29.6350  -57.8560 C.3   336  ARG336      0.0492
     79  CD       -25.0670   30.0730  -56.4950 C.3   336  ARG336      0.2205
     80  NE       -23.6290   30.1190  -56.4700 N.pl3 336  ARG336     -0.0865
     81  CZ       -22.8990   30.4200  -55.4020 C.cat 336  ARG336      0.5346
     82  NH1      -23.4710   30.7090  -54.2410 N.pl3 336  ARG336      0.1354
     83  NH2      -21.5790   30.4030  -55.5000 N.pl3 336  ARG336      0.1354
@<TRIPOS>BOND
     1    15    13    1
     2    13    12    2
     3    13    14    1
     4    12    11    1
     5    11    10    1
     6    10     9    1
     7     9     6    1
     8    19    18    2
     9    18    17    1
    10     6     7    1
    11     6     5    1
    12    16     7   am
    13    16    17    1
    14     7     8    2
    15    17    20    1
    16    71    70    1
    17     4     3    2
    18    56    55    1
    19    56    57    1
    20    56    59    1
    21     5     3   am
    22    60    59    1
    23    60    61    1
    24     3     2    1
    25    57    58    2
    26    62    61    1
    27    62    63    2
    28    70    72    1
    29    70    67    1
    30    20    22    1
    31    20    21    1
    32    21    23    1
    33    64    63    1
    34    66    67    1
    35     2     1    1
    36    63    65    1
    37    69    68    2
    38    67    68    1
    39    68    73   am
    40    37    36    2
    41    73    74    1
    42    74    75    1
    43    74    77    1
    44    75    76    2
    45    40    38    1
    46    36    35    1
    47    27    26    2
    48    34    35    1
    49    77    78    1
    50    35    38    1
    51    38    39    1
    52    26    25    1
    53    78    79    1
    54    24    25    1
    55    25    28    1
    56    79    80    1
    57    80    81    2
    58    28    29    1
    59    83    81    1
    60    81    82    1
    61    47    45    1
    62    46    48    1
    63    46    45    1
    64    29    31   ar
    65    29    30   ar
    66    31    33   ar
    67    50    53    1
    68    50    51    1
    69    50    49    1
    70    42    45    1
    71    42    41    1
    72    42    43    1
    73    53    54    1
    74    51    52    2
    75    43    44    2
    76    30    32   ar
    77    33    32   ar
