@<TRIPOS>MOLECULE
tmp/3khpB00.pdb
 93 90 0 0 0
SMALL
GASTEIGER

@<TRIPOS>ATOM
      1  N         26.8600   66.6970   30.5210 N.3    65  PHE65      -0.1241
      2  CA        27.7980   66.3660   29.4390 C.3    65  PHE65       0.1605
      3  C         27.3100   65.3000   28.4530 C.2    65  PHE65       0.2264
      4  O         27.8710   65.1820   27.3840 O.2    65  PHE65      -0.2867
      5  CB        29.1590   65.9160   29.9980 C.3    65  PHE65       0.0534
      6  CG        30.1140   67.0360   30.3090 C.ar   65  PHE65      -0.0203
      7  CD1       30.7170   67.7690   29.2990 C.ar   65  PHE65      -0.0042
      8  CD2       30.4820   67.2970   31.6110 C.ar   65  PHE65      -0.0042
      9  CE1       31.6560   68.7810   29.5970 C.ar   65  PHE65      -0.0003
     10  CE2       31.4010   68.3210   31.9290 C.ar   65  PHE65      -0.0003
     11  CZ        31.9930   69.0560   30.9100 C.ar   65  PHE65      -0.0000
     12  N         34.4650   69.0730   25.0610 N.3    77  ALA77      -0.1231
     13  CA        34.5970   68.6930   26.4800 C.3    77  ALA77       0.1694
     14  C         35.2190   69.7660   27.4000 C.2    77  ALA77       0.2592
     15  O         34.8590   69.8450   28.5720 O.2    77  ALA77      -0.2718
     16  CB        35.3830   67.3580   26.6180 C.3    77  ALA77       0.0304
     17  N         36.1420   70.5720   26.8860 N.am   78  ALA78      -0.1966
     18  CA        36.8880   71.5000   27.7180 C.3    78  ALA78       0.1728
     19  C         36.0120   72.5610   28.3960 C.2    78  ALA78       0.2616
     20  O         35.2110   73.2160   27.7300 O.2    78  ALA78      -0.2715
     21  CB        37.9970   72.1640   26.9140 C.3    78  ALA78       0.0334
     22  N         36.1910   72.7080   29.7090 N.am   79  LEU79      -0.1963
     23  CA        35.4850   73.6680   30.5410 C.3    79  LEU79       0.1728
     24  C         36.1740   74.9790   30.6310 C.2    79  LEU79       0.2616
     25  O         35.5760   75.9280   31.1040 O.2    79  LEU79      -0.2715
     26  CB        35.2840   73.1590   31.9900 C.3    79  LEU79       0.0311
     27  CG        34.0530   72.3180   32.2790 C.3    79  LEU79       0.0022
     28  CD1       33.9420   71.9570   33.7730 C.3    79  LEU79       0.0001
     29  CD2       32.7910   73.0280   31.8210 C.3    79  LEU79       0.0001
     30  N         37.4380   75.0540   30.2250 N.am   80  LEU80      -0.1977
     31  CA        38.1250   76.3320   30.2710 C.3    80  LEU80       0.1596
     32  C         37.3160   77.4040   29.4940 C.2    80  LEU80       0.2287
     33  O         36.8250   77.1670   28.4090 O.2    80  LEU80      -0.2864
     34  CB        39.5910   76.2150   29.8160 C.3    80  LEU80       0.0297
     35  CG        40.5340   77.4060   30.0720 C.3    80  LEU80       0.0022
     36  CD1       40.7270   77.7150   31.5660 C.3    80  LEU80       0.0001
     37  CD2       41.8940   77.2260   29.3600 C.3    80  LEU80       0.0001
     38  N         35.8820   61.6380   36.0630 N.3   187  ASP187     -0.1239
     39  CA        36.5470   62.3320   34.9820 C.3   187  ASP187      0.1674
     40  C         38.0500   61.9410   34.9000 C.2   187  ASP187      0.2266
     41  O         38.9530   62.5710   35.5100 O.2   187  ASP187     -0.2867
     42  CB        36.3180   63.8480   35.0710 C.3   187  ASP187      0.1410
     43  CG        37.0350   64.6250   33.9510 C.2   187  ASP187      0.3668
     44  OD1       37.7330   63.9790   33.1390 O.co2 187  ASP187     -0.2456
     45  OD2       36.8760   65.8740   33.9000 O.co2 187  ASP187     -0.2456
     46  N         40.0720   62.2780   32.4420 N.3   189  ASN189     -0.1240
     47  CA        40.8260   63.0840   31.4910 C.3   189  ASN189      0.1653
     48  C         42.3150   63.2270   31.8750 C.2   189  ASN189      0.2266
     49  O         42.6320   63.7520   32.9110 O.2   189  ASN189     -0.2867
     50  CB        40.1580   64.4450   31.3040 C.3   189  ASN189      0.1155
     51  CG        40.9770   65.4120   30.4390 C.2   189  ASN189      0.2627
     52  OD1       41.9140   65.0250   29.7610 O.2   189  ASN189     -0.2716
     53  ND2       40.6000   66.6780   30.4610 N.am  189  ASN189     -0.0877
     54  N         44.6720   65.0700   31.1020 N.3   191  LEU191     -0.1231
     55  CA        45.0990   66.4070   31.4390 C.3   191  LEU191      0.1693
     56  C         45.3080   66.6640   32.9470 C.2   191  LEU191      0.2592
     57  O         46.0600   67.5550   33.3150 O.2   191  LEU191     -0.2718
     58  CB        44.0960   67.4040   30.9050 C.3   191  LEU191      0.0284
     59  CG        44.4380   68.8840   31.0830 C.3   191  LEU191      0.0019
     60  CD1       45.8650   69.1680   30.5360 C.3   191  LEU191      0.0001
     61  CD2       43.3330   69.8210   30.4610 C.3   191  LEU191      0.0001
     62  N         44.6170   65.9150   33.7940 N.am  192  HIS192     -0.1976
     63  CA        44.6600   66.1140   35.2150 C.3   192  HIS192      0.1656
     64  C         45.5080   65.0990   35.9740 C.2   192  HIS192      0.2291
     65  O         45.6840   65.2730   37.1790 O.2   192  HIS192     -0.2864
     66  CB        43.2300   66.0810   35.7640 C.3   192  HIS192      0.0771
     67  CG        42.3440   67.0510   35.0890 C.ar  192  HIS192      0.0820
     68  ND1       42.6030   68.4030   35.1060 N.ar  192  HIS192     -0.2267
     69  CD2       41.2580   66.8770   34.3070 C.ar  192  HIS192      0.1154
     70  CE1       41.7110   69.0170   34.3640 C.ar  192  HIS192      0.1986
     71  NE2       40.8840   68.1170   33.8730 N.ar  192  HIS192     -0.2212
     72  N         41.2950   69.5370   37.8810 N.3   210  HIS210     -0.1226
     73  CA        39.9590   69.6500   37.2660 C.3   210  HIS210      0.1752
     74  C         39.2520   70.9570   37.6730 C.2   210  HIS210      0.2597
     75  O         39.1520   71.3090   38.8650 O.2   210  HIS210     -0.2718
     76  CB        39.0120   68.5620   37.7350 C.3   210  HIS210      0.0759
     77  CG        39.4290   67.1710   37.4510 C.ar  210  HIS210      0.0818
     78  ND1       40.4560   66.5440   38.1240 N.ar  210  HIS210     -0.2268
     79  CD2       38.8670   66.2270   36.6570 C.ar  210  HIS210      0.1154
     80  CE1       40.5450   65.2860   37.7140 C.ar  210  HIS210      0.1986
     81  NE2       39.5810   65.0680   36.8290 N.ar  210  HIS210     -0.2212
     82  N         38.6780   71.6240   36.7030 N.am  211  GLY211     -0.1942
     83  CA        37.8150   72.7840   36.9520 C.3   211  GLY211      0.2014
     84  C         36.7050   72.4520   37.9190 C.2   211  GLY211      0.2638
     85  O         36.3880   73.2370   38.8050 O.2   211  GLY211     -0.2714
     86  N         36.1310   71.2770   37.7740 N.am  212  LEU212     -0.1977
     87  CA        34.9900   70.9050   38.5750 C.3   212  LEU212      0.1596
     88  C         35.3950   70.6010   40.0190 C.2   212  LEU212      0.2287
     89  O         34.5580   70.6450   40.9180 O.2   212  LEU212     -0.2864
     90  CB        34.1900   69.7530   37.9480 C.3   212  LEU212      0.0297
     91  CG        33.3710   70.1380   36.6900 C.3   212  LEU212      0.0022
     92  CD1       32.5460   68.9570   36.1360 C.3   212  LEU212      0.0001
     93  CD2       32.4420   71.3440   36.9460 C.3   212  LEU212      0.0001
@<TRIPOS>BOND
     1    12    13    1
     2    13    16    1
     3    13    14    1
     4    17    14   am
     5    17    18    1
     6    21    18    1
     7     4     3    2
     8    14    15    2
     9    18    19    1
    10    20    19    2
    11    19    22   am
    12    33    32    2
    13     3     2    1
    14     7     9   ar
    15     7     6   ar
    16    37    35    1
    17     2     5    1
    18     2     1    1
    19    32    31    1
    20     9    11   ar
    21    22    23    1
    22    52    51    2
    23    34    35    1
    24    34    31    1
    25     5     6    1
    26    35    36    1
    27    30    31    1
    28    30    24   am
    29     6     8   ar
    30    51    53   am
    31    51    50    1
    32    61    59    1
    33    60    59    1
    34    23    24    1
    35    23    26    1
    36    24    25    2
    37    58    59    1
    38    58    55    1
    39    11    10   ar
    40    54    55    1
    41    50    47    1
    42    55    56    1
    43    47    48    1
    44    47    46    1
    45     8    10   ar
    46    29    27    1
    47    48    49    2
    48    26    27    1
    49    27    28    1
    50    56    57    2
    51    56    62   am
    52    44    43   ar
    53    62    63    1
    54    71    69   ar
    55    71    70   ar
    56    45    43   ar
    57    43    42    1
    58    69    67   ar
    59    70    68   ar
    60    40    39    1
    61    40    41    2
    62    39    42    1
    63    39    38    1
    64    67    68   ar
    65    67    66    1
    66    63    66    1
    67    63    64    1
    68    64    65    2
    69    92    91    1
    70    79    81   ar
    71    79    77   ar
    72    91    93    1
    73    91    90    1
    74    82    83    1
    75    82    74   am
    76    81    80   ar
    77    83    84    1
    78    73    74    1
    79    73    76    1
    80    73    72    1
    81    77    76    1
    82    77    78   ar
    83    74    75    2
    84    80    78   ar
    85    86    84   am
    86    86    87    1
    87    84    85    2
    88    90    87    1
    89    87    88    1
    90    88    89    2
