@<TRIPOS>MOLECULE
tmp/3khsB00.pdb
 112 108 0 0 0
SMALL
GASTEIGER

@<TRIPOS>ATOM
      1  N          7.3450   72.4530   -5.0440 N.3    30  SER30      -0.1217
      2  CA         6.7350   71.2860   -4.4100 C.3    30  SER30       0.1889
      3  C          5.2640   71.0560   -4.7580 C.2    30  SER30       0.2288
      4  O          4.4290   71.9340   -4.5500 O.2    30  SER30      -0.2866
      5  CB         6.8900   71.3680   -2.8930 C.3    30  SER30       0.2089
      6  OG         8.2510   71.2940   -2.5550 O.3    30  SER30      -0.2183
      7  N         17.6700   72.0210   -3.3340 N.3    78  HIS78      -0.1241
      8  CA        17.6760   72.9720   -2.2130 C.3    78  HIS78       0.1621
      9  C         18.8830   72.8380   -1.3250 C.2    78  HIS78       0.2264
     10  O         19.4060   71.7280   -1.1280 O.2    78  HIS78      -0.2867
     11  CB        16.4850   72.7720   -1.2560 C.3    78  HIS78       0.0745
     12  CG        15.1710   72.5560   -1.9260 C.ar   78  HIS78       0.0817
     13  ND1       14.8340   71.3660   -2.5300 N.ar   78  HIS78      -0.2268
     14  CD2       14.0960   73.3700   -2.0660 C.ar   78  HIS78       0.1154
     15  CE1       13.6070   71.4510   -3.0170 C.ar   78  HIS78       0.1986
     16  NE2       13.1350   72.6560   -2.7480 N.ar   78  HIS78      -0.2212
     17  N         18.9660   72.7450    1.8180 N.3    80  TYR80      -0.1241
     18  CA        18.7570   71.7970    2.9150 C.3    80  TYR80       0.1605
     19  C         19.0380   70.3400    2.5710 C.2    80  TYR80       0.2264
     20  O         19.1630   69.5070    3.4840 O.2    80  TYR80      -0.2867
     21  CB        17.3400   71.9290    3.5420 C.3    80  TYR80       0.0534
     22  CG        16.1990   71.5160    2.6420 C.ar   80  TYR80      -0.0201
     23  CD1       15.3360   72.4750    2.0850 C.ar   80  TYR80      -0.0009
     24  CD2       15.9970   70.1750    2.3070 C.ar   80  TYR80      -0.0009
     25  CE1       14.2920   72.1070    1.2110 C.ar   80  TYR80       0.0417
     26  CE2       14.9660   69.7960    1.4370 C.ar   80  TYR80       0.0417
     27  CZ        14.1110   70.7770    0.8950 C.ar   80  TYR80       0.1957
     28  OH        13.0460   70.4150    0.0970 O.3    80  TYR80      -0.2866
     29  N          6.8760   77.7390   -6.2360 N.3   107  ASN107     -0.1225
     30  CA         7.2640   77.0640   -5.0010 C.3   107  ASN107      0.1785
     31  C          6.0710   77.0470   -4.0720 C.2   107  ASN107      0.2597
     32  O          5.0660   77.7150   -4.3200 O.2   107  ASN107     -0.2718
     33  CB         8.4380   77.7630   -4.3220 C.3   107  ASN107      0.1169
     34  CG         8.1060   79.1720   -3.8410 C.2   107  ASN107      0.2627
     35  OD1        7.0900   79.3940   -3.1850 O.2   107  ASN107     -0.2716
     36  ND2        8.9840   80.1220   -4.1320 N.am  107  ASN107     -0.0877
     37  N          6.1800   76.2520   -3.0200 N.am  108  ALA108     -0.1966
     38  CA         5.1490   76.1510   -2.0020 C.3   108  ALA108      0.1728
     39  C          5.7940   76.8880   -0.8300 C.2   108  ALA108      0.2616
     40  O          6.9710   76.6600   -0.5310 O.2   108  ALA108     -0.2715
     41  CB         4.8970   74.6880   -1.6440 C.3   108  ALA108      0.0334
     42  N          5.0560   77.7980   -0.2020 N.am  109  ALA109     -0.1963
     43  CA         5.6050   78.5520    0.9120 C.3   109  ALA109      0.1728
     44  C          4.5990   78.7700    2.0430 C.2   109  ALA109      0.2616
     45  O          3.4150   78.5320    1.8740 O.2   109  ALA109     -0.2715
     46  CB         6.1160   79.8630    0.4200 C.3   109  ALA109      0.0334
     47  N          5.1100   79.1900    3.1960 N.am  110  GLY110     -0.1955
     48  CA         4.2710   79.4680    4.3420 C.3   110  GLY110      0.1869
     49  C          3.9610   80.9490    4.3650 C.2   110  GLY110      0.2309
     50  O          4.8750   81.7760    4.2590 O.2   110  GLY110     -0.2863
     51  N          9.2650   87.5160   -0.6510 N.3   184  TYR184     -0.1241
     52  CA         9.5890   86.1060   -0.3070 C.3   184  TYR184      0.1605
     53  C         10.8560   86.0220    0.5210 C.2   184  TYR184      0.2264
     54  O         11.8930   86.5140    0.1140 O.2   184  TYR184     -0.2867
     55  CB         9.7760   85.2430   -1.5680 C.3   184  TYR184      0.0534
     56  CG        10.0990   83.7900   -1.2950 C.ar  184  TYR184     -0.0201
     57  CD1        9.1360   82.7860   -1.4550 C.ar  184  TYR184     -0.0009
     58  CD2       11.3960   83.4080   -0.9460 C.ar  184  TYR184     -0.0009
     59  CE1        9.4740   81.4070   -1.2850 C.ar  184  TYR184      0.0417
     60  CE2       11.7320   82.0670   -0.7790 C.ar  184  TYR184      0.0417
     61  CZ        10.7800   81.0800   -0.9560 C.ar  184  TYR184      0.1957
     62  OH        11.2150   79.7740   -0.8650 O.3   184  TYR184     -0.2866
     63  N         11.4100   74.0040   10.2510 N.3   192  PHE192     -0.1241
     64  CA        10.6110   75.2100   10.1790 C.3   192  PHE192      0.1605
     65  C         11.0980   76.0940   11.3010 C.2   192  PHE192      0.2264
     66  O         11.7650   75.6130   12.2440 O.2   192  PHE192     -0.2867
     67  CB         9.1190   74.8890   10.3200 C.3   192  PHE192      0.0534
     68  CG         8.5350   74.2110    9.0950 C.ar  192  PHE192     -0.0203
     69  CD1        8.6870   74.7870    7.8240 C.ar  192  PHE192     -0.0042
     70  CD2        7.8170   73.0160    9.2060 C.ar  192  PHE192     -0.0042
     71  CE1        8.1310   74.1850    6.6830 C.ar  192  PHE192     -0.0003
     72  CE2        7.2560   72.4020    8.0680 C.ar  192  PHE192     -0.0003
     73  CZ         7.4160   72.9910    6.8070 C.ar  192  PHE192     -0.0000
     74  N          7.5060   82.6610    3.6190 N.3   209  VAL209     -0.1231
     75  CA         8.8270   82.0660    3.8470 C.3   209  VAL209      0.1692
     76  C          8.9240   80.6770    3.2420 C.2   209  VAL209      0.2593
     77  O          8.0060   79.8630    3.3580 O.2   209  VAL209     -0.2718
     78  CB         9.1500   81.9820    5.3580 C.3   209  VAL209      0.0266
     79  CG1        8.1030   81.1570    6.0810 C.3   209  VAL209      0.0020
     80  CG2       10.5240   81.3860    5.5730 C.3   209  VAL209      0.0020
     81  N         10.0380   80.4270    2.5630 N.am  210  GLY210     -0.1942
     82  CA        10.2630   79.1320    1.9500 C.3   210  GLY210      0.2014
     83  C         11.7560   78.7960    1.9220 C.2   210  GLY210      0.2639
     84  O         12.5800   79.5940    2.3430 O.2   210  GLY210     -0.2714
     85  N         12.1290   77.6390    1.3970 N.am  211  MET211     -0.1963
     86  CA        13.5340   77.2780    1.4110 C.3   211  MET211      0.1736
     87  C         14.1870   77.1650    0.0300 C.2   211  MET211      0.2617
     88  O         15.1200   76.3610   -0.1600 O.2   211  MET211     -0.2715
     89  CB        13.7030   75.9770    2.2010 C.3   211  MET211      0.0427
     90  CG        13.0800   76.0200    3.6210 C.3   211  MET211      0.0599
     91  SD        12.7270   74.3630    4.2520 S.3   211  MET211     -0.1393
     92  CE        11.9090   74.7220    5.8080 C.3   211  MET211      0.0692
     93  N         13.7310   77.9950   -0.9130 N.am  212  SER212     -0.1950
     94  CA        14.2750   77.9560   -2.2730 C.3   212  SER212      0.1924
     95  C         14.0810   79.2410   -3.0350 C.2   212  SER212      0.2314
     96  O         13.9710   80.3170   -2.4580 O.2   212  SER212     -0.2863
     97  CB        13.6000   76.8590   -3.0850 C.3   212  SER212      0.2116
     98  OG        12.2600   77.2110   -3.3650 O.3   212  SER212     -0.2180
     99  N          0.8430   77.3800    0.7360 N.3   234  SER234     -0.1202
    100  CA         0.2970   76.1030    1.1720 C.3   234  SER234      0.2020
    101  C         -0.2560   76.0900    2.6070 C.2   234  SER234      0.2618
    102  O         -1.1260   75.2900    2.9250 O.2   234  SER234     -0.2717
    103  CB         1.3510   75.0090    0.9940 C.3   234  SER234      0.2103
    104  OG         2.5910   75.3900    1.5510 O.3   234  SER234     -0.2182
    105  N          0.2430   76.9800    3.4600 N.am  235  ASN235     -0.1974
    106  CA        -0.2060   77.0650    4.8420 C.3   235  ASN235      0.1688
    107  C          0.0630   78.5010    5.2730 C.2   235  ASN235      0.2292
    108  O          0.8030   79.2220    4.5980 O.2   235  ASN235     -0.2864
    109  CB         0.5800   76.0930    5.7430 C.3   235  ASN235      0.1181
    110  CG         2.0220   76.5570    5.9920 C.2   235  ASN235      0.2629
    111  OD1        2.9540   76.2620    5.2080 O.2   235  ASN235     -0.2716
    112  ND2        2.2090   77.3120    7.0790 N.am  235  ASN235     -0.0877
@<TRIPOS>BOND
     1    29    30    1
     2     1     2    1
     3    30    33    1
     4    30    31    1
     5     3     4    2
     6     3     2    1
     7     2     5    1
     8    33    34    1
     9    32    31    2
    10    36    34   am
    11    31    37   am
    12    34    35    2
    13    98    97    1
    14     7     8    1
    15    97    94    1
    16    95    96    2
    17    95    94    1
    18    37    38    1
    19    15    16   ar
    20    15    13   ar
    21     5     6    1
    22    16    14   ar
    23    13    12   ar
    24    94    93    1
    25     8     9    1
    26     8    11    1
    27    14    12   ar
    28    38    41    1
    29    38    39    1
    30    12    11    1
    31    55    56    1
    32    55    52    1
    33    57    56   ar
    34    57    59   ar
    35     9    10    2
    36    56    58   ar
    37    59    61   ar
    38    61    62    1
    39    61    60   ar
    40    58    60   ar
    41    93    87   am
    42    39    40    2
    43    39    42   am
    44    51    52    1
    45    52    53    1
    46    42    43    1
    47    88    87    2
    48    87    86    1
    49    28    27    1
    50    54    53    2
    51    46    43    1
    52    99   100    1
    53    27    25   ar
    54    27    26   ar
    55    43    44    1
    56   103   100    1
    57   103   104    1
    58   100   101    1
    59    25    23   ar
    60    85    86    1
    61    85    83   am
    62    86    89    1
    63    26    24   ar
    64    17    18    1
    65    45    44    2
    66    83    82    1
    67    83    84    2
    68    82    81    1
    69    44    47   am
    70    23    22   ar
    71    89    90    1
    72    24    22   ar
    73    81    76   am
    74    19    18    1
    75    19    20    2
    76   101   102    2
    77   101   105   am
    78    22    21    1
    79    18    21    1
    80    47    48    1
    81    76    77    2
    82    76    75    1
    83   105   106    1
    84    74    75    1
    85    90    91    1
    86    75    78    1
    87    91    92    1
    88    50    49    2
    89    48    49    1
    90   108   107    2
    91   106   107    1
    92   106   109    1
    93   111   110    2
    94    78    80    1
    95    78    79    1
    96   109   110    1
    97   110   112   am
    98    71    73   ar
    99    71    69   ar
   100    73    72   ar
   101    69    68   ar
   102    72    70   ar
   103    68    70   ar
   104    68    67    1
   105    64    63    1
   106    64    67    1
   107    64    65    1
   108    65    66    2
