@<TRIPOS>MOLECULE
tmp/3khuE01.pdb
 217 203 0 0 0
SMALL
GASTEIGER

@<TRIPOS>ATOM
      1  N        -51.7870 -103.5510   -9.5700 N.3    10  ILE10      -0.1231
      2  CA       -51.2670 -103.0470   -8.2970 C.3    10  ILE10       0.1692
      3  C        -51.8200 -101.6330   -8.1280 C.2    10  ILE10       0.2593
      4  O        -51.4270 -100.6630   -8.8390 O.2    10  ILE10      -0.2718
      5  CB       -49.7320 -103.0360   -8.2200 C.3    10  ILE10       0.0266
      6  CG1      -49.1460 -104.4300   -8.5350 C.3    10  ILE10       0.0019
      7  CG2      -49.3220 -102.5490   -6.8540 C.3    10  ILE10       0.0020
      8  CD1      -47.6210 -104.4210   -8.6090 C.3    10  ILE10       0.0001
      9  N        -52.7430 -101.5040   -7.1890 N.am   11  GLY11      -0.1942
     10  CA       -53.3450 -100.2140   -6.8970 C.3    11  GLY11       0.2014
     11  C        -54.8430 -100.2260   -7.1670 C.2    11  GLY11       0.2639
     12  O        -55.2710 -100.2800   -8.3160 O.2    11  GLY11      -0.2714
     13  N        -55.6410 -100.1630   -6.1060 N.am   12  ALA12      -0.1963
     14  CA       -57.1120 -100.2550   -6.2180 C.3    12  ALA12       0.1728
     15  C        -57.7590  -98.8690   -6.0510 C.2    12  ALA12       0.2617
     16  O        -58.7160  -98.6780   -5.2860 O.2    12  ALA12      -0.2715
     17  CB       -57.6660 -101.2110   -5.1760 C.3    12  ALA12       0.0334
     18  N        -57.2260  -97.8980   -6.7740 N.am   13  GLY13      -0.1940
     19  CA       -57.6040  -96.5260   -6.5860 C.3    13  GLY13       0.2014
     20  C        -58.6140  -96.0060   -7.5960 C.2    13  GLY13       0.2639
     21  O        -59.3530  -96.7730   -8.1880 O.2    13  GLY13      -0.2714
     22  N        -58.6170  -94.6980   -7.8350 N.am   14  TYR14      -0.1959
     23  CA       -59.5710  -94.0810   -8.7710 C.3    14  TYR14       0.1771
     24  C        -59.3380  -94.5980  -10.1990 C.2    14  TYR14       0.2619
     25  O        -60.2620  -94.7080  -10.9540 O.2    14  TYR14      -0.2715
     26  CB       -59.5330  -92.5240   -8.7130 C.3    14  TYR14       0.0574
     27  CG       -60.3440  -91.9250   -7.5640 C.ar   14  TYR14      -0.0198
     28  CD1      -59.8110  -91.8360   -6.2810 C.ar   14  TYR14      -0.0009
     29  CD2      -61.6450  -91.4760   -7.7560 C.ar   14  TYR14      -0.0009
     30  CE1      -60.5460  -91.3160   -5.2290 C.ar   14  TYR14       0.0417
     31  CE2      -62.3870  -90.9650   -6.7090 C.ar   14  TYR14       0.0417
     32  CZ       -61.8290  -90.8880   -5.4540 C.ar   14  TYR14       0.1957
     33  OH       -62.5520  -90.3880   -4.4130 O.3    14  TYR14      -0.2866
     34  N        -58.1000  -94.9070  -10.5600 N.am   15  VAL15      -0.1963
     35  CA       -57.8030  -95.4530  -11.8850 C.3    15  VAL15       0.1727
     36  C        -57.8480  -96.9820  -11.9500 C.2    15  VAL15       0.2616
     37  O        -58.5310  -97.5090  -12.8150 O.2    15  VAL15      -0.2715
     38  CB       -56.4470  -94.9960  -12.3820 C.3    15  VAL15       0.0290
     39  CG1      -56.1500  -95.5980  -13.7700 C.3    15  VAL15       0.0023
     40  CG2      -56.4360  -93.5110  -12.4450 C.3    15  VAL15       0.0023
     41  N        -57.1250  -97.6640  -11.0540 N.am   16  GLY16      -0.1955
     42  CA       -56.9870  -99.1120  -11.1090 C.3    16  GLY16       0.1869
     43  C        -58.2900  -99.8830  -10.9820 C.2    16  GLY16       0.2309
     44  O        -58.5660 -100.7750  -11.7740 O.2    16  GLY16      -0.2863
     45  N        -53.8800 -104.1580   -3.3190 N.3    36  ASP36      -0.1225
     46  CA       -53.5430 -102.8810   -2.6680 C.3    36  ASP36       0.1805
     47  C        -53.0060 -103.1140   -1.2620 C.2    36  ASP36       0.2598
     48  O        -53.4650 -104.0210   -0.6030 O.2    36  ASP36      -0.2718
     49  CB       -54.8170 -102.0380   -2.5890 C.3    36  ASP36       0.1424
     50  CG       -54.5550 -100.5190   -2.4480 C.2    36  ASP36       0.3668
     51  OD1      -53.9730 -100.1070   -1.4200 O.co2  36  ASP36      -0.2456
     52  OD2      -54.9690  -99.7230   -3.3440 O.co2  36  ASP36      -0.2456
     53  N        -52.0310 -102.3180   -0.8170 N.am   37  VAL37      -0.1966
     54  CA       -51.5140 -102.4340    0.5670 C.3    37  VAL37       0.1727
     55  C        -52.6120 -102.0500    1.5740 C.2    37  VAL37       0.2616
     56  O        -52.6290 -102.5090    2.7210 O.2    37  VAL37      -0.2715
     57  CB       -50.2520 -101.5620    0.8430 C.3    37  VAL37       0.0290
     58  CG1      -49.0150 -102.1240    0.1110 C.3    37  VAL37       0.0023
     59  CG2      -50.5140 -100.0990    0.4640 C.3    37  VAL37       0.0023
     60  N        -53.5370 -101.2110    1.1400 N.am   38  ASN38      -0.1972
     61  CA       -54.5550 -100.6830    2.0290 C.3    38  ASN38       0.1688
     62  C        -55.7100 -101.6470    2.2510 C.2    38  ASN38       0.2292
     63  O        -56.6250 -101.7080    1.4620 O.2    38  ASN38      -0.2864
     64  CB       -55.0760  -99.3600    1.4740 C.3    38  ASN38       0.1181
     65  CG       -56.1230  -98.6770    2.3830 C.2    38  ASN38       0.2629
     66  OD1      -56.8160  -99.3040    3.1840 O.2    38  ASN38      -0.2716
     67  ND2      -56.2480  -97.3860    2.2250 N.am   38  ASN38      -0.0877
     68  N        -59.4250 -100.4130    2.1290 N.3    41  ARG41      -0.1245
     69  CA       -59.9130 -100.1190    0.7800 C.3    41  ARG41       0.1563
     70  C        -60.3150 -101.4040    0.0170 C.2    41  ARG41       0.2260
     71  O        -61.3600 -101.4080   -0.6610 O.2    41  ARG41      -0.2867
     72  CB       -58.8520  -99.3340    0.0030 C.3    41  ARG41       0.0307
     73  CG       -59.2320  -98.9420   -1.3990 C.3    41  ARG41       0.0489
     74  CD       -58.3730  -97.7980   -1.9170 C.3    41  ARG41       0.2205
     75  NE       -58.9660  -96.4830   -1.6600 N.pl3  41  ARG41      -0.0865
     76  CZ       -58.5250  -95.3400   -2.1760 C.cat  41  ARG41       0.5346
     77  NH1      -59.1410  -94.2110   -1.8830 N.pl3  41  ARG41       0.1354
     78  NH2      -57.4720  -95.3190   -3.0030 N.pl3  41  ARG41       0.1354
     79  N        -50.6360 -109.2660   -2.5790 N.3    75  ILE75      -0.1245
     80  CA       -49.9260 -108.6990   -3.7190 C.3    75  ILE75       0.1561
     81  C        -48.9520 -109.6610   -4.3670 C.2    75  ILE75       0.2260
     82  O        -48.9400 -109.7480   -5.5900 O.2    75  ILE75      -0.2867
     83  CB       -49.1550 -107.4570   -3.2750 C.3    75  ILE75       0.0252
     84  CG1      -50.1470 -106.3960   -2.7950 C.3    75  ILE75       0.0019
     85  CG2      -48.3060 -106.8920   -4.3850 C.3    75  ILE75       0.0019
     86  CD1      -49.5150 -105.2190   -2.0260 C.3    75  ILE75       0.0001
     87  N        -50.6300  -99.2290  -11.0780 N.3    88  SER88      -0.1202
     88  CA       -51.6700  -98.2140  -11.0420 C.3    88  SER88       0.2020
     89  C        -51.6680  -97.3920   -9.7560 C.2    88  SER88       0.2619
     90  O        -52.7310  -97.1220   -9.1950 O.2    88  SER88      -0.2717
     91  CB       -53.0230  -98.8910  -11.2280 C.3    88  SER88       0.2103
     92  OG       -54.0030  -97.9070  -11.4200 O.3    88  SER88      -0.2182
     93  N        -50.4740  -97.0180   -9.3020 N.am   89  VAL89      -0.1965
     94  CA       -50.2940  -96.3010   -8.0520 C.3    89  VAL89       0.1727
     95  C        -50.1350  -94.8090   -8.3540 C.2    89  VAL89       0.2616
     96  O        -49.8520  -94.4250   -9.4840 O.2    89  VAL89      -0.2715
     97  CB       -49.0700  -96.8380   -7.2560 C.3    89  VAL89       0.0290
     98  CG1      -49.2750  -98.3150   -6.9070 C.3    89  VAL89       0.0023
     99  CG2      -47.7950  -96.6270   -8.0160 C.3    89  VAL89       0.0023
    100  N        -50.3190  -93.9610   -7.3420 N.am   90  ASN90      -0.1972
    101  CA       -50.2030  -92.5140   -7.5050 C.3    90  ASN90       0.1688
    102  C        -48.7430  -92.1320   -7.5930 C.2    90  ASN90       0.2292
    103  O        -47.9120  -92.7910   -6.9750 O.2    90  ASN90      -0.2864
    104  CB       -50.9200  -91.7640   -6.3570 C.3    90  ASN90       0.1181
    105  CG       -50.3260  -92.0470   -4.9620 C.2    90  ASN90       0.2629
    106  OD1      -50.2450  -93.2040   -4.5070 O.2    90  ASN90      -0.2716
    107  ND2      -49.9570  -90.9720   -4.2620 N.am   90  ASN90      -0.0877
    108  N        -43.3830  -94.7980   -5.3090 N.3   108  TYR108     -0.1241
    109  CA       -44.3070  -95.9110   -5.3630 C.3   108  TYR108      0.1605
    110  C        -44.1550  -96.7040   -6.6250 C.2   108  TYR108      0.2264
    111  O        -44.2990  -97.9190   -6.5640 O.2   108  TYR108     -0.2867
    112  CB       -45.7510  -95.4400   -5.2240 C.3   108  TYR108      0.0534
    113  CG       -46.0370  -94.6990   -3.9430 C.ar  108  TYR108     -0.0201
    114  CD1      -45.7130  -95.2470   -2.7000 C.ar  108  TYR108     -0.0009
    115  CD2      -46.6560  -93.4580   -3.9670 C.ar  108  TYR108     -0.0009
    116  CE1      -45.9940  -94.5760   -1.5310 C.ar  108  TYR108      0.0417
    117  CE2      -46.9440  -92.7770   -2.7940 C.ar  108  TYR108      0.0417
    118  CZ       -46.6120  -93.3350   -1.5920 C.ar  108  TYR108      0.1957
    119  OH       -46.9200  -92.6180   -0.4700 O.3   108  TYR108     -0.2866
    120  N        -41.1110  -98.8270   -5.9280 N.3   111  ALA111     -0.1231
    121  CA       -41.4170  -99.9080   -4.9850 C.3   111  ALA111      0.1694
    122  C        -42.1730 -101.0490   -5.6630 C.2   111  ALA111      0.2592
    123  O        -41.8920 -102.2200   -5.3760 O.2   111  ALA111     -0.2718
    124  CB       -42.1910  -99.3770   -3.8080 C.3   111  ALA111      0.0304
    125  N        -43.0870 -100.7090   -6.5730 N.am  112  CYS112     -0.1970
    126  CA       -43.7790 -101.7240   -7.3670 C.3   112  CYS112      0.1712
    127  C        -42.8350 -102.4610   -8.2520 C.2   112  CYS112      0.2296
    128  O        -42.9000 -103.6770   -8.2900 O.2   112  CYS112     -0.2864
    129  CB       -44.8760 -101.1200   -8.2530 C.3   112  CYS112      0.0983
    130  SG       -46.2950 -100.3710   -7.4220 S.3   112  CYS112     -0.0798
    131  N        -51.4960  -95.6940  -14.3860 N.3   130  SER130     -0.1202
    132  CA       -51.7240  -94.3740  -13.8040 C.3   130  SER130      0.2020
    133  C        -50.7860  -93.3560  -14.4590 C.2   130  SER130      0.2619
    134  O        -49.8500  -93.7210  -15.1360 O.2   130  SER130     -0.2717
    135  CB       -51.4830  -94.4050  -12.2770 C.3   130  SER130      0.2103
    136  OG       -52.6730  -94.6920  -11.5410 O.3   130  SER130     -0.2182
    137  N        -51.0300  -92.0800  -14.2190 N.am  131  THR131     -0.1952
    138  CA       -50.2620  -91.0150  -14.8790 C.3   131  THR131      0.1897
    139  C        -48.8660  -90.8970  -14.2770 C.2   131  THR131      0.2313
    140  O        -48.7150  -90.8140  -13.0680 O.2   131  THR131     -0.2863
    141  CB       -50.9680  -89.6740  -14.7800 C.3   131  THR131      0.1794
    142  OG1      -52.2620  -89.7830  -15.3840 O.3   131  THR131     -0.2208
    143  CG2      -50.1460  -88.5240  -15.4910 C.3   131  THR131      0.0378
    144  N        -54.5200  -93.7080  -18.9120 N.3   161  GLN161     -0.1245
    145  CA       -55.9380  -93.6950  -18.9020 C.3   161  GLN161      0.1566
    146  C        -56.4590  -92.2580  -18.9880 C.2   161  GLN161      0.2260
    147  O        -55.7980  -91.2760  -18.6230 O.2   161  GLN161     -0.2867
    148  CB       -56.4680  -94.4040  -17.6360 C.3   161  GLN161      0.0367
    149  CG       -56.7560  -95.9850  -17.7440 C.3   161  GLN161      0.0905
    150  CD       -57.0460  -96.5100  -19.1580 C.2   161  GLN161      0.2608
    151  OE1      -56.2590  -97.2850  -19.7170 O.2   161  GLN161     -0.2717
    152  NE2      -58.1440  -96.0580  -19.7500 N.am  161  GLN161     -0.0878
    153  N        -59.7970  -91.0740  -17.7810 N.3   163  LEU163     -0.1245
    154  CA       -61.0380  -91.0380  -17.0410 C.3   163  LEU163      0.1561
    155  C        -61.2530  -89.6110  -16.5330 C.2   163  LEU163      0.2260
    156  O        -60.3190  -89.0170  -16.0120 O.2   163  LEU163     -0.2867
    157  CB       -60.9760  -92.0090  -15.8570 C.3   163  LEU163      0.0270
    158  CG       -60.4140  -93.3900  -16.1530 C.3   163  LEU163      0.0019
    159  CD1      -60.4710  -94.2060  -14.8850 C.3   163  LEU163      0.0001
    160  CD2      -61.1860  -94.0500  -17.2890 C.3   163  LEU163      0.0001
    161  N        -63.6370  -87.3930  -13.7680 N.3   165  GLU165     -0.1245
    162  CA       -64.4650  -87.6160  -12.5810 C.3   165  GLU165      0.1567
    163  C        -65.9300  -87.5450  -13.0120 C.2   165  GLU165      0.2260
    164  O        -66.3380  -86.6620  -13.7590 O.2   165  GLU165     -0.2867
    165  CB       -64.1170  -86.6270  -11.4410 C.3   165  GLU165      0.0388
    166  CG       -64.1220  -87.2440   -9.9780 C.3   165  GLU165      0.1160
    167  CD       -65.5220  -87.3060   -9.3720 C.2   165  GLU165      0.3649
    168  OE1      -66.4490  -86.7340   -9.9760 O.co2 165  GLU165     -0.2457
    169  OE2      -65.7050  -87.9120   -8.2920 O.co2 165  GLU165     -0.2457
    170  N        -50.2180  -88.2530  -22.6390 N.3   220  LYS220     -0.1245
    171  CA       -51.1750  -88.0620  -21.5440 C.3   220  LYS220      0.1561
    172  C        -51.0370  -86.6610  -21.0030 C.2   220  LYS220      0.2260
    173  O        -52.0250  -85.9930  -20.8750 O.2   220  LYS220     -0.2867
    174  CB       -50.9550  -89.0920  -20.4200 C.3   220  LYS220      0.0271
    175  CG       -51.8000  -88.8680  -19.1660 C.3   220  LYS220      0.0035
    176  CD       -53.2990  -88.8870  -19.4120 C.3   220  LYS220      0.0206
    177  CE       -54.0980  -88.5050  -18.1570 C.3   220  LYS220      0.1093
    178  NZ       -55.5960  -88.4240  -18.4350 N.3   220  LYS220     -0.1314
    179  N        -57.5380  -82.9220   -9.7850 N.3   275  SER275     -0.1202
    180  CA       -56.2920  -83.5130   -9.4100 C.3   275  SER275      0.2020
    181  C        -55.4180  -83.8180  -10.5960 C.2   275  SER275      0.2619
    182  O        -54.3290  -84.2760  -10.4010 O.2   275  SER275     -0.2717
    183  CB       -56.5390  -84.8220   -8.6390 C.3   275  SER275      0.2103
    184  OG       -57.2440  -85.7710   -9.4220 O.3   275  SER275     -0.2182
    185  N        -55.8570  -83.4910  -11.8070 N.am  276  CYS276     -0.1969
    186  CA       -55.0740  -83.7610  -13.0100 C.3   276  CYS276      0.1712
    187  C        -54.3560  -82.5570  -13.6340 C.2   276  CYS276      0.2296
    188  O        -53.1360  -82.6090  -13.8540 O.2   276  CYS276     -0.2864
    189  CB       -56.0080  -84.3510  -14.0820 C.3   276  CYS276      0.0983
    190  SG       -56.7570  -85.9690  -13.5960 S.3   276  CYS276     -0.0798
    191  N        -50.3540  -82.0690  -13.8060 N.3   280  ASP280     -0.1239
    192  CA       -49.7360  -82.5410  -15.0530 C.3   280  ASP280      0.1674
    193  C        -49.0420  -81.4210  -15.8360 C.2   280  ASP280      0.2266
    194  O        -47.9450  -81.6220  -16.3750 O.2   280  ASP280     -0.2867
    195  CB       -50.7640  -83.2440  -15.9260 C.3   280  ASP280      0.1410
    196  CG       -51.2780  -84.5670  -15.3110 C.2   280  ASP280      0.3668
    197  OD1      -50.7930  -84.9900  -14.2500 O.co2 280  ASP280     -0.2456
    198  OD2      -52.1940  -85.1830  -15.9040 O.co2 280  ASP280     -0.2456
    199  N        -65.6570  -84.0730   -4.8750 N.3   344  ASP344     -0.1239
    200  CA       -64.2000  -83.9320   -4.9200 C.3   344  ASP344      0.1674
    201  C        -63.8620  -82.4530   -4.9180 C.2   344  ASP344      0.2266
    202  O        -64.4480  -81.6870   -5.6950 O.2   344  ASP344     -0.2867
    203  CB       -63.6870  -84.5650   -6.2140 C.3   344  ASP344      0.1410
    204  CG       -62.1430  -84.6530   -6.2960 C.2   344  ASP344      0.3668
    205  OD1      -61.4130  -84.0570   -5.4750 O.co2 344  ASP344     -0.2456
    206  OD2      -61.6570  -85.3420   -7.2040 O.co2 344  ASP344     -0.2456
    207  N        -60.4530  -81.3760   -4.9430 N.3   346  ARG346     -0.1245
    208  CA       -59.0110  -81.2250   -5.2140 C.3   346  ARG346      0.1563
    209  C        -58.6790  -80.1110   -6.2060 C.2   346  ARG346      0.2260
    210  O        -59.2140  -80.0670   -7.3170 O.2   346  ARG346     -0.2867
    211  CB       -58.3970  -82.5340   -5.6330 C.3   346  ARG346      0.0307
    212  CG       -58.1390  -83.4640   -4.4070 C.3   346  ARG346      0.0489
    213  CD       -57.7450  -84.8750   -4.7780 C.3   346  ARG346      0.2205
    214  NE       -58.7990  -85.5510   -5.5170 N.pl3 346  ARG346     -0.0865
    215  CZ       -58.6780  -86.7450   -6.0980 C.cat 346  ARG346      0.5346
    216  NH1      -57.5450  -87.4230   -6.0230 N.pl3 346  ARG346      0.1354
    217  NH2      -59.7060  -87.2620   -6.7560 N.pl3 346  ARG346      0.1354
@<TRIPOS>BOND
     1   170   171    1
     2   171   172    1
     3   171   174    1
     4   172   173    2
     5   174   175    1
     6   152   150   am
     7   151   150    2
     8   176   175    1
     9   176   177    1
    10   150   149    1
    11   146   145    1
    12   146   147    2
    13   144   145    1
    14   145   148    1
    15   178   177    1
    16   153   154    1
    17   149   148    1
    18   160   158    1
    19   154   155    1
    20   154   157    1
    21   155   156    2
    22   194   193    2
    23   158   157    1
    24   158   159    1
    25   195   196    1
    26   195   192    1
    27   198   196   ar
    28   193   192    1
    29   143   141    1
    30   142   141    1
    31   196   197   ar
    32   134   133    2
    33   192   191    1
    34   138   141    1
    35   138   139    1
    36   138   137    1
    37   133   137   am
    38   133   132    1
    39   131   132    1
    40   139   140    2
    41   189   190    1
    42   189   186    1
    43   188   187    2
    44   132   135    1
    45    39    38    1
    46   161   162    1
    47   164   163    2
    48   187   186    1
    49   163   162    1
    50   186   185    1
    51    37    36    2
    52   162   165    1
    53    40    38    1
    54    38    35    1
    55   135   136    1
    56    36    35    1
    57    36    41   am
    58    35    34    1
    59   185   181   am
    60    44    43    2
    61   165   166    1
    62    92    91    1
    63    91    88    1
    64    42    41    1
    65    42    43    1
    66    87    88    1
    67    88    89    1
    68    25    24    2
    69   181   182    2
    70   181   180    1
    71    34    24   am
    72    24    23    1
    73   166   167    1
    74   168   167   ar
    75   179   180    1
    76    89    93   am
    77    89    90    2
    78     1     2    1
    79    96    95    2
    80   184   183    1
    81   180   183    1
    82   167   169   ar
    83    93    94    1
    84     4     3    2
    85    23    26    1
    86    23    22    1
    87    26    27    1
    88     8     6    1
    89     6     5    1
    90    95    94    1
    91    95   100   am
    92    12    11    2
    93     2     5    1
    94     2     3    1
    95   128   127    2
    96   129   130    1
    97   129   126    1
    98   127   126    1
    99     5     7    1
   100    21    20    2
   101     3     9   am
   102    94    97    1
   103    99    97    1
   104    22    20   am
   105    29    27   ar
   106    29    31   ar
   107    20    19    1
   108   102   101    1
   109   102   103    2
   110    27    28   ar
   111   101   100    1
   112   101   104    1
   113   126   125    1
   114   210   209    2
   115    97    98    1
   116   206   204   ar
   117     9    10    1
   118    11    10    1
   119    11    13   am
   120    18    19    1
   121    18    15   am
   122   217   215    1
   123    31    32   ar
   124   110   111    2
   125   110   109    1
   126   125   122   am
   127   104   105    1
   128   204   203    1
   129   204   205   ar
   130    28    30   ar
   131    14    13    1
   132    14    15    1
   133    14    17    1
   134   203   200    1
   135   209   208    1
   136   215   216    1
   137   215   214    2
   138    15    16    2
   139   120   121    1
   140   202   201    2
   141   122   123    2
   142   122   121    1
   143   211   208    1
   144   211   212    1
   145    82    81    2
   146   214   213    1
   147    32    30   ar
   148    32    33    1
   149   109   108    1
   150   109   112    1
   151   112   113    1
   152   208   207    1
   153   121   124    1
   154   105   106    2
   155   105   107   am
   156   200   201    1
   157   200   199    1
   158   213   212    1
   159    85    83    1
   160    81    80    1
   161   115   113   ar
   162   115   117   ar
   163   113   114   ar
   164    80    83    1
   165    80    79    1
   166    52    50   ar
   167    45    46    1
   168    83    84    1
   169    78    76    1
   170    84    86    1
   171   117   118   ar
   172   114   116   ar
   173    46    49    1
   174    46    47    1
   175    49    50    1
   176    50    51   ar
   177    76    77    1
   178    76    75    2
   179    74    75    1
   180    74    73    1
   181   118   116   ar
   182   118   119    1
   183    73    72    1
   184    47    53   am
   185    47    48    2
   186    53    54    1
   187    71    70    2
   188    72    69    1
   189    70    69    1
   190    58    57    1
   191    59    57    1
   192    54    57    1
   193    54    55    1
   194    69    68    1
   195    60    55   am
   196    60    61    1
   197    63    62    2
   198    64    61    1
   199    64    65    1
   200    55    56    2
   201    61    62    1
   202    67    65   am
   203    65    66    2
