@<TRIPOS>MOLECULE
tmp/3kiaA00.pdb
 139 130 0 0 0
SMALL
GASTEIGER

@<TRIPOS>ATOM
      1  N         50.5020  -21.6020   -8.9610 N.3    36  PRO36      -0.2102
      2  CA        49.4880  -22.2380   -9.8070 C.3    36  PRO36       0.1504
      3  C         48.3830  -21.2260  -10.0720 C.2    36  PRO36       0.2576
      4  O         47.8240  -20.6750   -9.1210 O.2    36  PRO36      -0.2718
      5  CB        48.9660  -23.3790   -8.9290 C.3    36  PRO36       0.0282
      6  CG        50.0460  -23.6340   -7.9700 C.3    36  PRO36       0.0208
      7  CD        50.6590  -22.3030   -7.6810 C.3    36  PRO36       0.0893
      8  N         48.0800  -20.9730  -11.3370 N.am   37  SER37      -0.1938
      9  CA        47.1300  -19.9230  -11.6630 C.3    37  SER37       0.2055
     10  C         45.9700  -20.3900  -12.5190 C.2    37  SER37       0.2642
     11  O         46.1560  -21.0100  -13.5630 O.2    37  SER37      -0.2714
     12  CB        47.8470  -18.7640  -12.3360 C.3    37  SER37       0.2130
     13  OG        48.8340  -18.2590  -11.4620 O.3    37  SER37      -0.2179
     14  N         44.7660  -20.0740  -12.0640 N.am   38  ARG38      -0.1977
     15  CA        43.5720  -20.3930  -12.8100 C.3    38  ARG38       0.1597
     16  C         42.5650  -19.2640  -12.6740 C.2    38  ARG38       0.2287
     17  O         41.9200  -19.1190  -11.6450 O.2    38  ARG38      -0.2864
     18  CB        42.9880  -21.7020  -12.3130 C.3    38  ARG38       0.0334
     19  CG        41.8470  -22.2190  -13.1440 C.3    38  ARG38       0.0492
     20  CD        41.1590  -23.3290  -12.4030 C.3    38  ARG38       0.2205
     21  NE        39.7630  -23.4480  -12.7990 N.pl3  38  ARG38      -0.0865
     22  CZ        39.2950  -24.4020  -13.5950 C.cat  38  ARG38       0.5346
     23  NH1       40.1210  -25.3290  -14.0790 N.pl3  38  ARG38       0.1354
     24  NH2       38.0020  -24.4260  -13.9050 N.pl3  38  ARG38       0.1354
     25  N         42.9870  -15.8780  -12.4760 N.3    40  VAL40      -0.1245
     26  CA        43.3480  -14.9640  -11.4050 C.3    40  VAL40       0.1561
     27  C         43.9090  -13.6670  -11.9870 C.2    40  VAL40       0.2260
     28  O         44.7330  -13.0060  -11.3640 O.2    40  VAL40      -0.2867
     29  CB        44.3770  -15.6010  -10.4510 C.3    40  VAL40       0.0252
     30  CG1       43.7570  -16.7600   -9.7070 C.3    40  VAL40       0.0019
     31  CG2       45.6000  -16.0680  -11.2270 C.3    40  VAL40       0.0019
     32  N         52.3370  -20.9510  -13.2060 N.3    67  VAL67      -0.1231
     33  CA        51.9130  -22.0950  -14.0160 C.3    67  VAL67       0.1692
     34  C         50.4090  -22.0220  -14.2930 C.2    67  VAL67       0.2592
     35  O         49.5990  -22.4240  -13.4680 O.2    67  VAL67      -0.2718
     36  CB        52.2550  -23.4280  -13.3160 C.3    67  VAL67       0.0266
     37  CG1       51.7150  -24.6010  -14.1020 C.3    67  VAL67       0.0020
     38  CG2       53.7600  -23.5510  -13.1280 C.3    67  VAL67       0.0020
     39  N         50.0500  -21.5130  -15.4660 N.am   68  ASP68      -0.1960
     40  CA        48.6720  -21.1470  -15.7920 C.3    68  ASP68       0.1840
     41  C         47.8270  -22.3150  -16.2850 C.2    68  ASP68       0.2621
     42  O         48.3240  -23.2150  -16.9520 O.2    68  ASP68      -0.2715
     43  CB        48.6930  -20.0510  -16.8610 C.3    68  ASP68       0.1450
     44  CG        47.3170  -19.5000  -17.1650 C.2    68  ASP68       0.3671
     45  OD1       46.6490  -19.0140  -16.2240 O.co2  68  ASP68      -0.2456
     46  OD2       46.9060  -19.5540  -18.3490 O.co2  68  ASP68      -0.2456
     47  N         46.5370  -22.2870  -15.9740 N.am   69  ALA69      -0.1977
     48  CA        45.6230  -23.3230  -16.4480 C.3    69  ALA69       0.1597
     49  C         44.8980  -22.8570  -17.7010 C.2    69  ALA69       0.2287
     50  O         43.6740  -22.9960  -17.8070 O.2    69  ALA69      -0.2864
     51  CB        44.6250  -23.7070  -15.3750 C.3    69  ALA69       0.0319
     52  N         50.0670  -25.2160  -17.8250 N.3    89  GLU89      -0.1245
     53  CA        50.0870  -26.5040  -17.1540 C.3    89  GLU89       0.1567
     54  C         50.0490  -27.6400  -18.1760 C.2    89  GLU89       0.2260
     55  O         50.4620  -28.7690  -17.8920 O.2    89  GLU89      -0.2867
     56  CB        48.9120  -26.6160  -16.1880 C.3    89  GLU89       0.0388
     57  CG        47.5410  -26.5900  -16.8550 C.3    89  GLU89       0.1160
     58  CD        46.4140  -26.5580  -15.8340 C.2    89  GLU89       0.3649
     59  OE1       46.7100  -26.2440  -14.6590 O.co2  89  GLU89      -0.2457
     60  OE2       45.2510  -26.8510  -16.1960 O.co2  89  GLU89      -0.2457
     61  N         43.7790  -30.7680  -13.0220 N.3   101  GLY101     -0.1210
     62  CA        43.6230  -29.8960  -11.8710 C.3   101  GLY101      0.1956
     63  C         44.8730  -29.4020  -11.1690 C.2   101  GLY101      0.2611
     64  O         46.0030  -29.5910  -11.6270 O.2   101  GLY101     -0.2717
     65  N         44.6570  -28.7650  -10.0260 N.am  102  LYS102     -0.1979
     66  CA        45.7170  -28.0670   -9.3050 C.3   102  LYS102      0.1596
     67  C         46.9180  -28.9430   -8.9450 C.2   102  LYS102      0.2287
     68  O         48.0630  -28.5190   -9.0790 O.2   102  LYS102     -0.2864
     69  CB        45.1460  -27.4140   -8.0450 C.3   102  LYS102      0.0298
     70  CG        46.0790  -26.4170   -7.4180 C.3   102  LYS102      0.0038
     71  CD        45.4090  -25.6770   -6.2880 C.3   102  LYS102      0.0206
     72  CE        45.2900  -26.5370   -5.0390 C.3   102  LYS102      0.1093
     73  NZ        44.7690  -25.7530   -3.8810 N.3   102  LYS102     -0.1314
     74  N         49.1980  -29.3610  -11.9190 N.3   105  ALA105     -0.1245
     75  CA        49.9800  -28.1720  -12.2380 C.3   105  ALA105      0.1562
     76  C         51.1760  -28.0640  -11.3040 C.2   105  ALA105      0.2260
     77  O         52.2810  -27.7180  -11.7250 O.2   105  ALA105     -0.2867
     78  CB        49.1190  -26.9140  -12.1610 C.3   105  ALA105      0.0290
     79  N         49.7240  -19.1850   -3.3570 N.3   122  ASP122     -0.1225
     80  CA        48.4430  -19.1070   -4.0410 C.3   122  ASP122      0.1805
     81  C         48.3630  -17.7830   -4.7800 C.2   122  ASP122      0.2598
     82  O         48.9700  -16.7980   -4.3640 O.2   122  ASP122     -0.2718
     83  CB        47.2750  -19.2760   -3.0650 C.3   122  ASP122      0.1424
     84  CG        46.9580  -20.7420   -2.7740 C.2   122  ASP122      0.3668
     85  OD1       47.5000  -21.6380   -3.4690 O.co2 122  ASP122     -0.2456
     86  OD2       46.1470  -20.9990   -1.8570 O.co2 122  ASP122     -0.2456
     87  N         47.6190  -17.7680   -5.8820 N.am  123  ALA123     -0.1966
     88  CA        47.6110  -16.6310   -6.8000 C.3   123  ALA123      0.1728
     89  C         46.2860  -15.8790   -6.7780 C.2   123  ALA123      0.2616
     90  O         46.1110  -14.8990   -7.5010 O.2   123  ALA123     -0.2715
     91  CB        47.9270  -17.1050   -8.2190 C.3   123  ALA123      0.0334
     92  N         45.3570  -16.3410   -5.9470 N.am  124  ASP124     -0.1971
     93  CA        44.0200  -15.7530   -5.8870 C.3   124  ASP124      0.1709
     94  C         43.8690  -14.7190   -4.7610 C.2   124  ASP124      0.2293
     95  O         42.7940  -14.1490   -4.5640 O.2   124  ASP124     -0.2864
     96  CB        42.9520  -16.8580   -5.7880 C.3   124  ASP124      0.1436
     97  CG        43.1760  -17.8070   -4.6080 C.2   124  ASP124      0.3671
     98  OD1       44.1870  -17.6640   -3.8860 O.co2 124  ASP124     -0.2456
     99  OD2       42.3400  -18.7140   -4.3970 O.co2 124  ASP124     -0.2456
    100  N         42.2460  -31.5790   -6.2910 N.3   207  TYR207     -0.1241
    101  CA        42.2060  -30.9500   -4.9720 C.3   207  TYR207      0.1605
    102  C         42.7010  -31.8600   -3.8460 C.2   207  TYR207      0.2264
    103  O         42.7440  -31.4630   -2.6850 O.2   207  TYR207     -0.2867
    104  CB        40.8060  -30.4180   -4.6660 C.3   207  TYR207      0.0534
    105  CG        40.4940  -29.1260   -5.3870 C.ar  207  TYR207     -0.0201
    106  CD1       39.4780  -29.0580   -6.3400 C.ar  207  TYR207     -0.0009
    107  CD2       41.2290  -27.9740   -5.1290 C.ar  207  TYR207     -0.0009
    108  CE1       39.1960  -27.8700   -7.0060 C.ar  207  TYR207      0.0417
    109  CE2       40.9570  -26.7830   -5.7940 C.ar  207  TYR207      0.0417
    110  CZ        39.9390  -26.7380   -6.7280 C.ar  207  TYR207      0.1957
    111  OH        39.6690  -25.5540   -7.3810 O.3   207  TYR207     -0.2866
    112  N         39.1960  -16.5830   -0.1290 N.3   237  ARG237     -0.1245
    113  CA        38.1600  -16.5230   -1.1500 C.3   237  ARG237      0.1563
    114  C         36.9690  -17.3750   -0.7300 C.2   237  ARG237      0.2260
    115  O         37.1260  -18.5460   -0.3810 O.2   237  ARG237     -0.2867
    116  CB        38.6920  -17.0060   -2.4980 C.3   237  ARG237      0.0307
    117  CG        39.5840  -16.0100   -3.2110 C.3   237  ARG237      0.0489
    118  CD        39.9450  -16.5100   -4.5980 C.3   237  ARG237      0.2205
    119  NE        38.7630  -16.7610   -5.4180 N.pl3 237  ARG237     -0.0865
    120  CZ        38.8020  -17.2570   -6.6500 C.cat 237  ARG237      0.5346
    121  NH1       39.9660  -17.5590   -7.2090 N.pl3 237  ARG237      0.1354
    122  NH2       37.6770  -17.4520   -7.3240 N.pl3 237  ARG237      0.1354
    123  N         33.8300  -19.5960   -1.5010 N.3   239  GLN239     -0.1245
    124  CA        33.3800  -20.4580   -2.5900 C.3   239  GLN239      0.1566
    125  C         32.0640  -21.1160   -2.1940 C.2   239  GLN239      0.2260
    126  O         31.6890  -21.1010   -1.0240 O.2   239  GLN239     -0.2867
    127  CB        34.4470  -21.5090   -2.9340 C.3   239  GLN239      0.0367
    128  CG        34.2630  -22.1730   -4.3040 C.3   239  GLN239      0.0905
    129  CD        35.5800  -22.6470   -4.9260 C.2   239  GLN239      0.2608
    130  OE1       36.6680  -22.3280   -4.4370 O.2   239  GLN239     -0.2717
    131  NE2       35.4790  -23.4090   -6.0150 N.am  239  GLN239     -0.0878
    132  N         35.5580  -30.9700   -3.1350 N.3   247  MET247     -0.1245
    133  CA        36.8860  -30.8370   -2.5450 C.3   247  MET247      0.1570
    134  C         37.0810  -31.7460   -1.3300 C.2   247  MET247      0.2261
    135  O         38.1150  -32.3960   -1.2010 O.2   247  MET247     -0.2867
    136  CB        37.1670  -29.3830   -2.1650 C.3   247  MET247      0.0387
    137  CG        37.3250  -28.4600   -3.3600 C.3   247  MET247      0.0595
    138  SD        37.6800  -26.7410   -2.9140 S.3   247  MET247     -0.1393
    139  CE        38.8610  -26.9700   -1.5820 C.3   247  MET247      0.0692
@<TRIPOS>BOND
     1    46    44   ar
     2    54    55    2
     3    54    53    1
     4    52    53    1
     5    50    49    2
     6    49    48    1
     7    44    43    1
     8    44    45   ar
     9    53    56    1
    10    42    41    2
    11    43    40    1
    12    57    56    1
    13    57    58    1
    14    48    47    1
    15    48    51    1
    16    41    47   am
    17    41    40    1
    18    60    58   ar
    19    58    59   ar
    20    40    39    1
    21    39    34   am
    22    34    33    1
    23    34    35    2
    24    37    36    1
    25    23    22    1
    26    33    36    1
    27    33    32    1
    28    24    22    1
    29    22    21    2
    30    11    10    2
    31    36    38    1
    32    19    20    1
    33    19    18    1
    34    61    62    1
    35    15    16    1
    36    15    18    1
    37    15    14    1
    38    21    20    1
    39    16    17    2
    40    10    14   am
    41    10     9    1
    42    25    26    1
    43    12     9    1
    44    12    13    1
    45    75    78    1
    46    75    74    1
    47    75    76    1
    48    27    26    1
    49    27    28    2
    50    62    63    1
    51    77    76    2
    52     9     8    1
    53    64    63    2
    54    26    29    1
    55     8     3   am
    56    31    29    1
    57    63    65   am
    58    29    30    1
    59     3     2    1
    60     3     4    2
    61    65    66    1
    62     2     1    1
    63     2     5    1
    64    66    67    1
    65    66    69    1
    66    68    67    2
    67     1     7    1
    68     5     6    1
    69    91    88    1
    70    69    70    1
    71     6     7    1
    72    90    89    2
    73    70    71    1
    74   111   110    1
    75   122   120    1
    76   121   120    1
    77   108   110   ar
    78   108   106   ar
    79    88    89    1
    80    88    87    1
    81    89    92   am
    82   110   109   ar
    83   120   119    2
    84   106   105   ar
    85   100   101    1
    86    71    72    1
    87   131   129   am
    88    92    93    1
    89    93    96    1
    90    93    94    1
    91    87    81   am
    92   109   107   ar
    93    96    97    1
    94   119   118    1
    95   105   107   ar
    96   105   104    1
    97    72    73    1
    98   101   104    1
    99   101   102    1
   100   129   130    2
   101   129   128    1
   102    81    82    2
   103    81    80    1
   104    94    95    2
   105    97    99   ar
   106    97    98   ar
   107   118   117    1
   108   128   127    1
   109    80    79    1
   110    80    83    1
   111   102   103    2
   112    85    84   ar
   113   137   138    1
   114   137   136    1
   115   117   116    1
   116   132   133    1
   117    83    84    1
   118   127   124    1
   119   138   139    1
   120    84    86   ar
   121   124   125    1
   122   124   123    1
   123   133   136    1
   124   133   134    1
   125   116   113    1
   126   125   126    2
   127   134   135    2
   128   113   114    1
   129   113   112    1
   130   114   115    2
