@<TRIPOS>MOLECULE
tmp/3kicQ00.pdb
 110 110 0 0 0
SMALL
GASTEIGER

@<TRIPOS>ATOM
      1  N        -41.9760  -74.4490  -22.5340 N.3   201  ASP201     -0.1225
      2  CA       -42.1350  -74.2190  -23.9650 C.3   201  ASP201      0.1805
      3  C        -42.6700  -75.4700  -24.6480 C.2   201  ASP201      0.2598
      4  O        -41.9460  -76.4480  -24.8440 O.2   201  ASP201     -0.2718
      5  CB       -40.8110  -73.7960  -24.6060 C.3   201  ASP201      0.1424
      6  CG       -40.3900  -72.3910  -24.2110 C.2   201  ASP201      0.3668
      7  OD1      -40.5320  -72.0330  -23.0220 O.co2 201  ASP201     -0.2456
      8  OD2      -39.9090  -71.6460  -25.0910 O.co2 201  ASP201     -0.2456
      9  N        -43.9480  -75.4320  -25.0010 N.am  202  VAL202     -0.1966
     10  CA       -44.5910  -76.5520  -25.6710 C.3   202  VAL202      0.1712
     11  C        -45.3290  -76.0370  -26.9050 C.2   202  VAL202      0.2458
     12  O        -46.1010  -75.0800  -26.8180 O.2   202  VAL202     -0.2730
     13  CB       -45.5610  -77.2890  -24.7200 C.3   202  VAL202      0.0289
     14  CG1      -46.6030  -76.3270  -24.1670 C.3   202  VAL202      0.0023
     15  CG2      -46.2180  -78.4610  -25.4220 C.3   202  VAL202      0.0023
     16  N        -45.0770  -76.6630  -28.0650 N.am  203  PRO203     -0.2727
     17  CA       -45.6150  -76.2170  -29.3550 C.3   203  PRO203      0.1402
     18  C        -47.1110  -75.9180  -29.3130 C.2   203  PRO203      0.2269
     19  O        -47.8610  -76.5790  -28.5930 O.2   203  PRO203     -0.2865
     20  CB       -45.3490  -77.4130  -30.2700 C.3   203  PRO203      0.0296
     21  CG       -44.1510  -78.0690  -29.6850 C.3   203  PRO203      0.0237
     22  CD       -44.2590  -77.8820  -28.1970 C.3   203  PRO203      0.0939
     23  N        -51.0410  -84.3530  -35.2470 N.3   393  ASP393     -0.1239
     24  CA       -51.3270  -85.0240  -33.9780 C.3   393  ASP393      0.1674
     25  C        -52.8300  -85.0830  -33.6890 C.2   393  ASP393      0.2266
     26  O        -53.6270  -84.4550  -34.3850 O.2   393  ASP393     -0.2867
     27  CB       -50.5780  -84.3460  -32.8200 C.3   393  ASP393      0.1410
     28  CG       -49.0750  -84.6270  -32.8380 C.2   393  ASP393      0.3668
     29  OD1      -48.6240  -85.4470  -33.6680 O.co2 393  ASP393     -0.2456
     30  OD2      -48.3440  -84.0270  -32.0160 O.co2 393  ASP393     -0.2456
     31  N        -44.5430  -86.2060  -19.1580 N.3   406  ILE406     -0.1245
     32  CA       -43.6870  -87.0660  -19.9520 C.3   406  ILE406      0.1561
     33  C        -42.8300  -87.9190  -19.0320 C.2   406  ILE406      0.2260
     34  O        -42.0480  -87.3910  -18.2400 O.2   406  ILE406     -0.2867
     35  CB       -42.7920  -86.2600  -20.8940 C.3   406  ILE406      0.0252
     36  CG1      -43.6490  -85.5640  -21.9530 C.3   406  ILE406      0.0019
     37  CG2      -41.7670  -87.1680  -21.5470 C.3   406  ILE406      0.0019
     38  CD1      -42.9170  -84.4900  -22.7150 C.3   406  ILE406      0.0001
     39  N        -37.4600  -90.8780  -25.5910 N.3   412  HIS412     -0.1226
     40  CA       -38.8180  -90.5860  -26.0230 C.3   412  HIS412      0.1752
     41  C        -38.7420  -90.4090  -27.5300 C.2   412  HIS412      0.2596
     42  O        -37.6500  -90.3030  -28.0830 O.2   412  HIS412     -0.2718
     43  CB       -39.3310  -89.2900  -25.3900 C.3   412  HIS412      0.0759
     44  CG       -38.7630  -89.0030  -24.0340 C.ar  412  HIS412      0.0818
     45  ND1      -39.1890  -89.6510  -22.8940 N.ar  412  HIS412     -0.2268
     46  CD2      -37.8150  -88.1230  -23.6340 C.ar  412  HIS412      0.1154
     47  CE1      -38.5210  -89.1890  -21.8520 C.ar  412  HIS412      0.1986
     48  NE2      -37.6810  -88.2610  -22.2730 N.ar  412  HIS412     -0.2212
     49  N        -39.8820  -90.3780  -28.2070 N.am  413  PHE413     -0.1962
     50  CA       -39.8610  -90.0330  -29.6220 C.3   413  PHE413      0.1771
     51  C        -40.5770  -88.7150  -29.8760 C.2   413  PHE413      0.2620
     52  O        -39.9550  -87.6500  -29.9330 O.2   413  PHE413     -0.2715
     53  CB       -40.4560  -91.1390  -30.4900 C.3   413  PHE413      0.0574
     54  CG       -40.4130  -90.8290  -31.9600 C.ar  413  PHE413     -0.0200
     55  CD1      -39.2020  -90.7260  -32.6240 C.ar  413  PHE413     -0.0042
     56  CD2      -41.5800  -90.6240  -32.6760 C.ar  413  PHE413     -0.0042
     57  CE1      -39.1560  -90.4310  -33.9740 C.ar  413  PHE413     -0.0003
     58  CE2      -41.5400  -90.3300  -34.0270 C.ar  413  PHE413     -0.0003
     59  CZ       -40.3250  -90.2350  -34.6760 C.ar  413  PHE413     -0.0000
     60  N        -41.8900  -88.7900  -30.0360 N.am  414  HIS414     -0.1960
     61  CA       -42.6930  -87.5940  -30.1860 C.3   414  HIS414      0.1772
     62  C        -43.5720  -87.5110  -28.9480 C.2   414  HIS414      0.2462
     63  O        -44.6760  -88.0520  -28.9280 O.2   414  HIS414     -0.2730
     64  CB       -43.5290  -87.6780  -31.4590 C.3   414  HIS414      0.0785
     65  CG       -43.8210  -86.3480  -32.0800 C.ar  414  HIS414      0.0821
     66  ND1      -45.0560  -85.7420  -31.9930 N.ar  414  HIS414     -0.2267
     67  CD2      -43.0390  -85.5110  -32.8020 C.ar  414  HIS414      0.1154
     68  CE1      -45.0230  -84.5880  -32.6350 C.ar  414  HIS414      0.1986
     69  NE2      -43.8100  -84.4240  -33.1350 N.ar  414  HIS414     -0.2212
     70  N        -43.0620  -86.8460  -27.9000 N.am  415  PRO415     -0.2716
     71  CA       -43.6260  -86.8210  -26.5420 C.3   415  PRO415      0.1536
     72  C        -44.9910  -86.1420  -26.4220 C.2   415  PRO415      0.2599
     73  O        -45.3090  -85.6040  -25.3600 O.2   415  PRO415     -0.2715
     74  CB       -42.5810  -86.0320  -25.7430 C.3   415  PRO415      0.0310
     75  CG       -41.3360  -86.0790  -26.5640 C.3   415  PRO415      0.0237
     76  CD       -41.8030  -86.0870  -27.9820 C.3   415  PRO415      0.0939
     77  N        -45.7840  -86.1690  -27.4860 N.am  416  SER416     -0.1950
     78  CA       -47.1480  -85.6670  -27.4240 C.3   416  SER416      0.1924
     79  C        -48.0450  -86.7600  -26.8540 C.2   416  SER416      0.2314
     80  O        -48.0630  -87.8770  -27.3730 O.2   416  SER416     -0.2863
     81  CB       -47.6290  -85.2610  -28.8180 C.3   416  SER416      0.2116
     82  OG       -48.8730  -84.5860  -28.7540 O.3   416  SER416     -0.2180
     83  N        -53.1050  -83.4580  -26.6660 N.3   421  GLY421     -0.1210
     84  CA       -52.7590  -82.3810  -25.7620 C.3   421  GLY421      0.1956
     85  C        -51.2790  -82.0770  -25.6580 C.2   421  GLY421      0.2612
     86  O        -50.4970  -82.3560  -26.5710 O.2   421  GLY421     -0.2717
     87  N        -50.9010  -81.5010  -24.5210 N.am  422  PHE422     -0.1962
     88  CA       -49.5470  -81.0090  -24.3070 C.3   422  PHE422      0.1771
     89  C        -48.7540  -81.9250  -23.3770 C.2   422  PHE422      0.2620
     90  O        -49.1640  -82.1830  -22.2460 O.2   422  PHE422     -0.2715
     91  CB       -49.5910  -79.5890  -23.7280 C.3   422  PHE422      0.0574
     92  CG       -50.3550  -78.5980  -24.5770 C.ar  422  PHE422     -0.0200
     93  CD1      -51.6810  -78.2980  -24.2980 C.ar  422  PHE422     -0.0042
     94  CD2      -49.7400  -77.9560  -25.6420 C.ar  422  PHE422     -0.0042
     95  CE1      -52.3800  -77.3850  -25.0710 C.ar  422  PHE422     -0.0003
     96  CE2      -50.4330  -77.0430  -26.4170 C.ar  422  PHE422     -0.0003
     97  CZ       -51.7550  -76.7580  -26.1310 C.ar  422  PHE422     -0.0000
     98  N        -47.6150  -82.4110  -23.8610 N.am  423  GLY423     -0.1954
     99  CA       -46.7490  -83.2600  -23.0650 C.3   423  GLY423      0.1869
    100  C        -45.6950  -82.4350  -22.3570 C.2   423  GLY423      0.2309
    101  O        -44.9420  -81.6980  -22.9940 O.2   423  GLY423     -0.2863
    102  N        -42.5070  -82.1580  -19.4560 N.3   425  LYS425     -0.1245
    103  CA       -41.5030  -82.7440  -18.5810 C.3   425  LYS425      0.1561
    104  C        -41.8610  -82.4240  -17.1400 C.2   425  LYS425      0.2260
    105  O        -41.7420  -83.2650  -16.2530 O.2   425  LYS425     -0.2867
    106  CB       -40.1250  -82.1680  -18.8950 C.3   425  LYS425      0.0271
    107  CG       -39.4930  -82.6850  -20.1710 C.3   425  LYS425      0.0035
    108  CD       -38.7340  -83.9750  -19.9230 C.3   425  LYS425      0.0206
    109  CE       -37.8340  -84.3210  -21.1010 C.3   425  LYS425      0.1093
    110  NZ       -37.0510  -85.5650  -20.8610 N.3   425  LYS425     -0.1314
@<TRIPOS>BOND
     1    23    24    1
     2    59    58   ar
     3    59    57   ar
     4    26    25    2
     5    58    56   ar
     6    24    25    1
     7    24    27    1
     8    57    55   ar
     9    29    28   ar
    10    69    67   ar
    11    69    68   ar
    12    28    27    1
    13    28    30   ar
    14    67    65   ar
    15    56    54   ar
    16    68    66   ar
    17    55    54   ar
    18    65    66   ar
    19    65    64    1
    20    54    53    1
    21    64    61    1
    22    53    50    1
    23    20    21    1
    24    20    17    1
    25    61    60    1
    26    61    62    1
    27    60    51   am
    28    52    51    2
    29    51    50    1
    30    21    22    1
    31    50    49    1
    32    17    18    1
    33    17    16    1
    34    18    19    2
    35    62    63    2
    36    62    70   am
    37    81    82    1
    38    81    78    1
    39    49    41   am
    40    22    16    1
    41    42    41    2
    42    16    11   am
    43    76    70    1
    44    76    75    1
    45    70    71    1
    46    41    40    1
    47    77    78    1
    48    77    72   am
    49    78    79    1
    50    80    79    2
    51    11    12    2
    52    11    10    1
    53    83    84    1
    54    86    85    2
    55    75    74    1
    56    71    72    1
    57    71    74    1
    58    72    73    2
    59    96    97   ar
    60    96    94   ar
    61    97    95   ar
    62    40    39    1
    63    40    43    1
    64    84    85    1
    65    10     9    1
    66    10    13    1
    67    85    87   am
    68    94    92   ar
    69    15    13    1
    70    43    44    1
    71     8     6   ar
    72    95    93   ar
    73     9     3   am
    74     4     3    2
    75    13    14    1
    76     3     2    1
    77     5     6    1
    78     5     2    1
    79    92    93   ar
    80    92    91    1
    81    87    88    1
    82    88    91    1
    83    88    89    1
    84     6     7   ar
    85    44    46   ar
    86    44    45   ar
    87     2     1    1
    88    98    89   am
    89    98    99    1
    90    46    48   ar
    91    89    90    2
    92    99   100    1
    93   101   100    2
    94    45    47   ar
    95    38    36    1
    96    48    47   ar
    97    36    35    1
    98    37    35    1
    99   109   110    1
   100   109   108    1
   101    35    32    1
   102   107   108    1
   103   107   106    1
   104    32    31    1
   105    32    33    1
   106   102   103    1
   107    33    34    2
   108   106   103    1
   109   103   104    1
   110   104   105    2
