@<TRIPOS>MOLECULE
tmp/3kidA00.pdb
 138 136 0 0 0
SMALL
GASTEIGER

@<TRIPOS>ATOM
      1  N         -4.5680  -23.1410   -3.9740 N.3    25  VAL25      -0.1231
      2  CA        -3.1960  -23.4620   -4.3340 C.3    25  VAL25       0.1692
      3  C         -2.9770  -24.9660   -4.3160 C.2    25  VAL25       0.2592
      4  O         -2.6880  -25.5820   -5.3490 O.2    25  VAL25      -0.2718
      5  CB        -2.1800  -22.8400   -3.3490 C.3    25  VAL25       0.0266
      6  CG1       -0.7780  -23.2740   -3.7270 C.3    25  VAL25       0.0020
      7  CG2       -2.2790  -21.3160   -3.3570 C.3    25  VAL25       0.0020
      8  N         -3.1410  -25.5410   -3.1250 N.am   26  CYS26      -0.1970
      9  CA        -2.9230  -26.9620   -2.8850 C.3    26  CYS26       0.1712
     10  C         -3.5440  -27.4260   -1.5940 C.2    26  CYS26       0.2296
     11  O         -4.0110  -26.6210   -0.7890 O.2    26  CYS26      -0.2864
     12  CB        -1.4290  -27.2420   -2.7760 C.3    26  CYS26       0.0983
     13  SG        -0.5310  -27.1670   -4.3430 S.3    26  CYS26      -0.0798
     14  N          6.7380  -27.8680   -4.3740 N.3    41  HIS41      -0.1241
     15  CA         6.3850  -27.3890   -5.7100 C.3    41  HIS41       0.1621
     16  C          5.1730  -26.4770   -5.7190 C.2    41  HIS41       0.2264
     17  O          4.9800  -25.7140   -6.6630 O.2    41  HIS41      -0.2867
     18  CB         6.1520  -28.5590   -6.6790 C.3    41  HIS41       0.0745
     19  CG         4.7160  -28.9550   -6.8340 C.ar   41  HIS41       0.0817
     20  ND1        4.1820  -30.0620   -6.2120 N.ar   41  HIS41      -0.2268
     21  CD2        3.7110  -28.4120   -7.5630 C.ar   41  HIS41       0.1154
     22  CE1        2.9130  -30.1840   -6.5520 C.ar   41  HIS41       0.1986
     23  NE2        2.6010  -29.1960   -7.3710 N.ar   41  HIS41      -0.2212
     24  N        -12.4420  -26.4110  -10.7240 N.3   142  TYR142     -0.1241
     25  CA       -12.1290  -27.3860   -9.6900 C.3   142  TYR142      0.1605
     26  C        -13.4800  -27.7060   -9.0450 C.2   142  TYR142      0.2264
     27  O        -14.4030  -26.9010   -9.1220 O.2   142  TYR142     -0.2867
     28  CB       -11.1940  -26.7760   -8.6460 C.3   142  TYR142      0.0534
     29  CG        -9.7280  -26.6990   -9.0360 C.ar  142  TYR142     -0.0201
     30  CD1       -9.2980  -26.9430  -10.3460 C.ar  142  TYR142     -0.0009
     31  CD2       -8.7660  -26.3710   -8.0840 C.ar  142  TYR142     -0.0009
     32  CE1       -7.9440  -26.8580  -10.6890 C.ar  142  TYR142      0.0417
     33  CE2       -7.4220  -26.2780   -8.4140 C.ar  142  TYR142      0.0417
     34  CZ        -7.0160  -26.5210   -9.7130 C.ar  142  TYR142      0.1957
     35  OH        -5.6790  -26.3850  -10.0060 O.3   142  TYR142     -0.2866
     36  N         -7.9540  -41.3390   -9.8130 N.3   184  ASP184     -0.1225
     37  CA        -6.6020  -40.8390   -9.6540 C.3   184  ASP184      0.1805
     38  C         -6.6370  -39.4030   -9.1740 C.2   184  ASP184      0.2598
     39  O         -7.6840  -38.7390   -9.1790 O.2   184  ASP184     -0.2718
     40  CB        -5.9010  -40.8950  -11.0260 C.3   184  ASP184      0.1424
     41  CG        -4.4130  -40.6470  -10.9520 C.2   184  ASP184      0.3668
     42  OD1       -3.8360  -40.6480   -9.8430 O.co2 184  ASP184     -0.2456
     43  OD2       -3.8120  -40.4720  -12.0310 O.co2 184  ASP184     -0.2456
     44  N         -5.4700  -38.9230   -8.7710 N.am  185  SER185     -0.1938
     45  CA        -5.3480  -37.5450   -8.3580 C.3   185  SER185      0.2055
     46  C         -5.1020  -36.7400   -9.6340 C.2   185  SER185      0.2643
     47  O         -4.5720  -37.2650  -10.6160 O.2   185  SER185     -0.2714
     48  CB        -4.1850  -37.3940   -7.3800 C.3   185  SER185      0.2130
     49  OG        -3.0210  -37.9320   -7.9360 O.3   185  SER185     -0.2179
     50  N         -5.5170  -35.4790   -9.6250 N.am  186  CYS186     -0.1953
     51  CA        -5.3030  -34.6160  -10.7700 C.3   186  CYS186      0.1843
     52  C         -4.8940  -33.2180  -10.3180 C.2   186  CYS186      0.2625
     53  O         -4.8270  -32.9390   -9.1240 O.2   186  CYS186     -0.2714
     54  CB        -6.5600  -34.5510  -11.6310 C.3   186  CYS186      0.0997
     55  SG        -6.1890  -34.0640  -13.3450 S.3   186  CYS186     -0.0797
     56  N         -4.6110  -32.3460  -11.2760 N.am  187  GLN187     -0.1963
     57  CA        -4.2090  -30.9840  -10.9510 C.3   187  GLN187      0.1733
     58  C         -5.1490  -30.4050   -9.8970 C.2   187  GLN187      0.2616
     59  O         -6.3760  -30.5090  -10.0140 O.2   187  GLN187     -0.2715
     60  CB        -4.1950  -30.1170  -12.2140 C.3   187  GLN187      0.0408
     61  CG        -4.0350  -28.6530  -11.9280 C.3   187  GLN187      0.0908
     62  CD        -3.8110  -27.8400  -13.1700 C.2   187  GLN187      0.2608
     63  OE1       -2.8110  -28.0090  -13.8640 O.2   187  GLN187     -0.2717
     64  NE2       -4.7400  -26.9500  -13.4620 N.am  187  GLN187     -0.0878
     65  N         -4.5560  -29.8070   -8.8690 N.am  188  GLY188     -0.1955
     66  CA        -5.3330  -29.2670   -7.7740 C.3   188  GLY188      0.1869
     67  C         -5.2410  -30.1410   -6.5230 C.2   188  GLY188      0.2309
     68  O         -5.5240  -29.6750   -5.4160 O.2   188  GLY188     -0.2863
     69  N         -2.4250  -31.5860   -5.4060 N.3   190  SER190     -0.1217
     70  CA        -1.0720  -31.5850   -4.8720 C.3   190  SER190      0.1889
     71  C         -0.9400  -31.1410   -3.4270 C.2   190  SER190      0.2288
     72  O         -1.7300  -30.3500   -2.9230 O.2   190  SER190     -0.2866
     73  CB        -0.1510  -30.7400   -5.7350 C.3   190  SER190      0.2089
     74  OG         0.1190  -31.3530   -6.9670 O.3   190  SER190     -0.2183
     75  N          0.6150  -35.9050   -2.2000 N.3   208  VAL208     -0.1231
     76  CA         0.3980  -35.7740   -3.6360 C.3   208  VAL208      0.1692
     77  C          1.5420  -34.9250   -4.1860 C.2   208  VAL208      0.2593
     78  O          1.6830  -33.7520   -3.8250 O.2   208  VAL208     -0.2718
     79  CB        -0.9550  -35.0810   -3.9350 C.3   208  VAL208      0.0266
     80  CG1       -1.2950  -35.1840   -5.4280 C.3   208  VAL208      0.0020
     81  CG2       -2.0550  -35.7170   -3.0990 C.3   208  VAL208      0.0020
     82  N          2.3690  -35.5170   -5.0450 N.am  209  SER209     -0.1938
     83  CA         3.5000  -34.7790   -5.5960 C.3   209  SER209      0.2055
     84  C          3.4930  -34.4800   -7.1000 C.2   209  SER209      0.2643
     85  O          3.6030  -33.3250   -7.4950 O.2   209  SER209     -0.2714
     86  CB         4.8020  -35.4820   -5.2150 C.3   209  SER209      0.2130
     87  OG         5.9120  -34.7380   -5.6730 O.3   209  SER209     -0.2179
     88  N          3.3820  -35.5060   -7.9370 N.am  210  TRP210     -0.1959
     89  CA         3.3800  -35.3050   -9.3870 C.3   210  TRP210      0.1771
     90  C          2.9040  -36.5470  -10.1330 C.2   210  TRP210      0.2620
     91  O          2.6720  -37.5950   -9.5350 O.2   210  TRP210     -0.2715
     92  CB         4.7850  -34.9520   -9.8850 C.3   210  TRP210      0.0590
     93  CG         5.7810  -36.0790   -9.7430 C.ar  210  TRP210      0.0006
     94  CD1        6.4930  -36.4230   -8.6150 C.ar  210  TRP210      0.0946
     95  CD2        6.1480  -37.0320  -10.7520 C.ar  210  TRP210      0.0152
     96  NE1        7.2730  -37.5250   -8.8680 N.ar  210  TRP210     -0.2442
     97  CE2        7.0840  -37.9210  -10.1680 C.ar  210  TRP210      0.0810
     98  CE3        5.7770  -37.2230  -12.0900 C.ar  210  TRP210      0.0012
     99  CZ2        7.6550  -38.9820  -10.8800 C.ar  210  TRP210      0.0191
    100  CZ3        6.3450  -38.2790  -12.7950 C.ar  210  TRP210      0.0001
    101  CH2        7.2740  -39.1460  -12.1860 C.ar  210  TRP210      0.0015
    102  N          2.7790  -36.4230  -11.4490 N.am  211  GLY211     -0.1954
    103  CA         2.3340  -37.5360  -12.2680 C.3   211  GLY211      0.1869
    104  C          2.1150  -37.0880  -13.6970 C.2   211  GLY211      0.2309
    105  O          1.7820  -35.9350  -13.9370 O.2   211  GLY211     -0.2863
    106  N         -0.0410  -36.7520  -16.4170 N.3   213  GLY213     -0.1210
    107  CA        -1.4640  -36.7520  -16.6860 C.3   213  GLY213      0.1956
    108  C         -2.3130  -37.0490  -15.4640 C.2   213  GLY213      0.2612
    109  O         -1.9180  -36.8040  -14.3280 O.2   213  GLY213     -0.2717
    110  N         -3.5020  -37.5750  -15.7310 N.am  214  CYS214     -0.1970
    111  CA        -4.4720  -37.9360  -14.7150 C.3   214  CYS214      0.1712
    112  C         -5.2480  -39.1540  -15.2050 C.2   214  CYS214      0.2296
    113  O         -5.9230  -39.1050  -16.2300 O.2   214  CYS214     -0.2864
    114  CB        -5.4360  -36.7790  -14.4860 C.3   214  CYS214      0.0983
    115  SG        -4.6390  -35.2890  -13.8320 S.3   214  CYS214     -0.0798
    116  N          0.1010  -41.8190  -10.0530 N.3   221  GLY221     -0.1210
    117  CA         0.3080  -40.5190   -9.4560 C.3   221  GLY221      0.1956
    118  C          1.5250  -40.7750   -8.5800 C.2   221  GLY221      0.2612
    119  O          1.7520  -41.9160   -8.1570 O.2   221  GLY221     -0.2717
    120  N          2.3280  -39.7520   -8.3150 N.am  222  VAL222     -0.1965
    121  CA         3.5080  -39.9610   -7.4860 C.3   222  VAL222      0.1727
    122  C          3.3110  -39.2080   -6.1890 C.2   222  VAL222      0.2616
    123  O          2.6600  -38.1700   -6.1520 O.2   222  VAL222     -0.2715
    124  CB         4.8220  -39.4980   -8.2000 C.3   222  VAL222      0.0290
    125  CG1        6.0440  -39.8420   -7.3550 C.3   222  VAL222      0.0023
    126  CG2        4.9420  -40.1840   -9.5620 C.3   222  VAL222      0.0023
    127  N          3.8560  -39.7460   -5.1090 N.am  223  TYR223     -0.1974
    128  CA         3.6940  -39.1080   -3.8190 C.3   223  TYR223      0.1639
    129  C          4.9990  -39.0750   -3.0400 C.2   223  TYR223      0.2290
    130  O          5.8150  -39.9800   -3.1560 O.2   223  TYR223     -0.2864
    131  CB         2.6120  -39.8430   -3.0370 C.3   223  TYR223      0.0560
    132  CG         1.2860  -39.9260   -3.7660 C.ar  223  TYR223     -0.0198
    133  CD1        1.1110  -40.7900   -4.8450 C.ar  223  TYR223     -0.0009
    134  CD2        0.2010  -39.1520   -3.3600 C.ar  223  TYR223     -0.0009
    135  CE1       -0.1150  -40.8950   -5.5020 C.ar  223  TYR223      0.0417
    136  CE2       -1.0320  -39.2410   -4.0010 C.ar  223  TYR223      0.0417
    137  CZ        -1.1830  -40.1170   -5.0710 C.ar  223  TYR223      0.1957
    138  OH        -2.4170  -40.2340   -5.6720 O.3   223  TYR223     -0.2866
@<TRIPOS>BOND
     1   107   106    1
     2   107   108    1
     3   113   112    2
     4   110   108   am
     5   110   111    1
     6   108   109    2
     7   112   111    1
     8   111   114    1
     9   114   115    1
    10   105   104    2
    11    63    62    2
    12   115    55    1
    13   104   103    1
    14    64    62   am
    15    55    54    1
    16    62    61    1
    17   100   101   ar
    18   100    98   ar
    19   103   102    1
    20    60    61    1
    21    60    57    1
    22   101    99   ar
    23    98    95   ar
    24    43    41   ar
    25    54    51    1
    26   102    90   am
    27    56    57    1
    28    56    52   am
    29    40    41    1
    30    40    37    1
    31    41    42   ar
    32    57    58    1
    33    99    97   ar
    34    51    52    1
    35    51    50    1
    36    95    97   ar
    37    95    93   ar
    38    24    25    1
    39    32    30   ar
    40    32    34   ar
    41    47    46    2
    42    30    29   ar
    43    52    53    2
    44    97    96   ar
    45    90    91    2
    46    90    89    1
    47   116   117    1
    48    59    58    2
    49    35    34    1
    50    58    65   am
    51    92    93    1
    52    92    89    1
    53    36    37    1
    54    93    94   ar
    55    34    33   ar
    56    25    26    1
    57    25    28    1
    58    37    38    1
    59    46    50   am
    60    46    45    1
    61   126   124    1
    62   117   118    1
    63    89    88    1
    64    39    38    2
    65    38    44   am
    66    27    26    2
    67    29    28    1
    68    29    31   ar
    69    65    66    1
    70    96    94   ar
    71    44    45    1
    72   118   120   am
    73   118   119    2
    74    33    31   ar
    75    45    48    1
    76   120   121    1
    77   124   121    1
    78   124   125    1
    79    88    84   am
    80    49    48    1
    81    66    67    1
    82    21    23   ar
    83    21    19   ar
    84    85    84    2
    85   121   122    1
    86    23    22   ar
    87    84    83    1
    88    74    73    1
    89    19    18    1
    90    19    20   ar
    91    18    15    1
    92    17    16    2
    93    22    20   ar
    94    67    68    2
    95   122   123    2
    96   122   127   am
    97    73    70    1
    98    16    15    1
    99    15    14    1
   100    87    86    1
   101   138   137    1
   102    83    86    1
   103    83    82    1
   104   135   137   ar
   105   135   133   ar
   106    80    79    1
   107    69    70    1
   108     4     3    2
   109   127   128    1
   110   137   136   ar
   111    82    77   am
   112    70    71    1
   113   133   132   ar
   114    13    12    1
   115     2     3    1
   116     2     1    1
   117     2     5    1
   118     3     8   am
   119    77    78    2
   120    77    76    1
   121   136   134   ar
   122    79    76    1
   123    79    81    1
   124   128   129    1
   125   128   131    1
   126   132   134   ar
   127   132   131    1
   128     6     5    1
   129    76    75    1
   130    71    72    2
   131     7     5    1
   132   130   129    2
   133     8     9    1
   134     9    12    1
   135     9    10    1
   136    10    11    2
