@<TRIPOS>MOLECULE
tmp/3kigA01.pdb
 129 127 0 0 0
SMALL
GASTEIGER

@<TRIPOS>ATOM
      1  N          7.2890   10.2440   12.8940 N.3    89  ILE89      -0.1231
      2  CA         8.1640   10.6460   11.8010 C.3    89  ILE89       0.1692
      3  C          8.4620    9.4780   10.8680 C.2    89  ILE89       0.2591
      4  O          8.5450    9.6940    9.6530 O.2    89  ILE89      -0.2718
      5  CB         9.4870   11.2840   12.2920 C.3    89  ILE89       0.0266
      6  CG1       10.4120   11.6670   11.1400 C.3    89  ILE89       0.0019
      7  CG2       10.2500   10.3950   13.2820 C.3    89  ILE89       0.0020
      8  CD1       11.6470   12.4490   11.5770 C.3    89  ILE89       0.0001
      9  N          8.5980    8.2550   11.3750 N.am   90  GLN90      -0.1979
     10  CA         8.8420    7.1050   10.5210 C.3    90  GLN90       0.1601
     11  C          8.5800    5.8280   11.3070 C.2    90  GLN90       0.2287
     12  O          8.5140    5.8590   12.5430 O.2    90  GLN90      -0.2864
     13  CB        10.2750    7.0460   10.0040 C.3    90  GLN90       0.0394
     14  CG        11.2700    7.0610   11.1440 C.3    90  GLN90       0.0908
     15  CD        12.0520    5.7920   11.2810 C.2    90  GLN90       0.2608
     16  OE1       11.5110    4.7070   11.3840 O.2    90  GLN90      -0.2717
     17  NE2       13.3670    5.9770   11.3430 N.am   90  GLN90      -0.0878
     18  N         10.1340    1.6150   11.0420 N.3    92  HIS92      -0.1241
     19  CA        10.9700    0.6070   10.4260 C.3    92  HIS92       0.1621
     20  C         10.9020   -0.6770   11.2610 C.2    92  HIS92       0.2264
     21  O         10.3100   -0.6610   12.3440 O.2    92  HIS92      -0.2867
     22  CB        12.4160    1.0890   10.3370 C.3    92  HIS92       0.0745
     23  CG        12.9780    1.3720   11.6990 C.ar   92  HIS92       0.0817
     24  ND1       12.7930    2.5430   12.3770 N.ar   92  HIS92      -0.2268
     25  CD2       13.6790    0.5860   12.5420 C.ar   92  HIS92       0.1154
     26  CE1       13.3780    2.4780   13.5420 C.ar   92  HIS92       0.1986
     27  NE2       13.9320    1.2900   13.6910 N.ar   92  HIS92      -0.2212
     28  N         13.1740   -4.4010   12.5600 N.3    94  HIS94      -0.1241
     29  CA        14.3560   -5.2330   12.7270 C.3    94  HIS94       0.1621
     30  C         13.9260   -6.6820   12.5960 C.2    94  HIS94       0.2264
     31  O         12.8630   -7.0120   13.1330 O.2    94  HIS94      -0.2867
     32  CB        15.0190   -4.9730   14.0700 C.3    94  HIS94       0.0745
     33  CG        15.3290   -3.5260   14.3130 C.ar   94  HIS94       0.0817
     34  ND1       16.5880   -3.0120   14.1630 N.ar   94  HIS94      -0.2268
     35  CD2       14.5410   -2.4810   14.6720 C.ar   94  HIS94       0.1154
     36  CE1       16.5670   -1.7380   14.4220 C.ar   94  HIS94       0.1986
     37  NE2       15.3430   -1.3500   14.7440 N.ar   94  HIS94      -0.2212
     38  N          9.2700   -0.6170   14.9950 N.3   117  HIS117     -0.1241
     39  CA         9.4890    0.6070   15.7460 C.3   117  HIS117      0.1621
     40  C          8.7610    1.7670   15.0600 C.2   117  HIS117      0.2264
     41  O          9.1280    2.1040   13.9290 O.2   117  HIS117     -0.2867
     42  CB        10.9780    0.9050   15.8090 C.3   117  HIS117      0.0745
     43  CG        11.7010   -0.0420   16.6870 C.ar  117  HIS117      0.0817
     44  ND1       13.0630   -0.1850   16.6730 N.ar  117  HIS117     -0.2268
     45  CD2       11.2030   -0.8980   17.6170 C.ar  117  HIS117      0.1154
     46  CE1       13.4020   -1.1040   17.5620 C.ar  117  HIS117      0.1986
     47  NE2       12.3060   -1.5480   18.1670 N.ar  117  HIS117     -0.2212
     48  N          8.4440    5.5960   15.3570 N.3   119  VAL119     -0.1245
     49  CA         9.3020    6.5930   15.9820 C.3   119  VAL119      0.1561
     50  C          8.6090    7.9580   15.9940 C.2   119  VAL119      0.2260
     51  O          8.1320    8.3880   14.9280 O.2   119  VAL119     -0.2867
     52  CB        10.6580    6.7010   15.2490 C.3   119  VAL119      0.0252
     53  CG1       11.5470    7.7230   15.9560 C.3   119  VAL119      0.0019
     54  CG2       11.3460    5.3530   15.1210 C.3   119  VAL119      0.0019
     55  N         13.0280   17.0240   14.8930 N.3   128  PHE128     -0.1241
     56  CA        13.6210   15.7660   15.3090 C.3   128  PHE128      0.1605
     57  C         15.0750   15.8930   15.7650 C.2   128  PHE128      0.2264
     58  O         15.5550   15.2890   16.7330 O.2   128  PHE128     -0.2867
     59  CB        13.5130   14.8020   14.1280 C.3   128  PHE128      0.0534
     60  CG        14.1160   13.4380   14.3730 C.ar  128  PHE128     -0.0203
     61  CD1       13.3200   12.4800   14.9760 C.ar  128  PHE128     -0.0042
     62  CD2       15.4250   13.1400   14.0180 C.ar  128  PHE128     -0.0042
     63  CE1       13.8260   11.2320   15.2490 C.ar  128  PHE128     -0.0003
     64  CE2       15.9340   11.8750   14.2940 C.ar  128  PHE128     -0.0003
     65  CZ        15.1380   10.9240   14.8850 C.ar  128  PHE128     -0.0000
     66  N          9.2780    5.8020   21.1940 N.3   140  VAL140     -0.1245
     67  CA         9.2330    4.7400   20.2220 C.3   140  VAL140      0.1561
     68  C          8.2610    3.6680   20.7320 C.2   140  VAL140      0.2260
     69  O          8.3960    3.1550   21.8350 O.2   140  VAL140     -0.2867
     70  CB        10.5900    4.1280   19.8820 C.3   140  VAL140      0.0252
     71  CG1       10.4540    3.0850   18.7780 C.3   140  VAL140      0.0019
     72  CG2       11.5670    5.2300   19.4230 C.3   140  VAL140      0.0019
     73  N         18.2080    5.1350   21.3090 N.3   195  LEU195     -0.1231
     74  CA        18.2280    4.6080   19.9670 C.3   195  LEU195      0.1693
     75  C         18.9600    3.2560   19.9670 C.2   195  LEU195      0.2593
     76  O         19.9470    3.1220   20.7260 O.2   195  LEU195     -0.2718
     77  CB        18.9490    5.5510   19.0110 C.3   195  LEU195      0.0284
     78  CG        18.4200    6.9770   18.9020 C.3   195  LEU195      0.0019
     79  CD1       19.3280    7.7980   18.0200 C.3   195  LEU195      0.0001
     80  CD2       16.9930    6.9900   18.4060 C.3   195  LEU195      0.0001
     81  N         18.5300    2.3360   19.1020 N.am  196  THR196     -0.1939
     82  CA        19.2110    1.0480   19.0760 C.3   196  THR196      0.2028
     83  C         20.2010    0.9140   17.9300 C.2   196  THR196      0.2643
     84  O         20.7880   -0.1510   17.7690 O.2   196  THR196     -0.2714
     85  CB        18.2090   -0.1140   18.9900 C.3   196  THR196      0.1808
     86  OG1       17.5240   -0.0160   17.7350 O.3   196  THR196     -0.2208
     87  CG2       17.1910   -0.0420   20.1350 C.3   196  THR196      0.0379
     88  N         20.4470    1.9910   17.2110 N.am  197  THR197     -0.1937
     89  CA        21.5470    2.1210   16.2800 C.3   197  THR197      0.2013
     90  C         22.3640    3.3750   16.6120 C.2   197  THR197      0.2484
     91  O         21.8550    4.2940   17.2460 O.2   197  THR197     -0.2729
     92  CB        21.0600    2.2470   14.8360 C.3   197  THR197      0.1807
     93  OG1       20.2410    3.4180   14.7190 O.3   197  THR197     -0.2208
     94  CG2       20.2450    1.0260   14.4540 C.3   197  THR197      0.0379
     95  N         23.6120    3.3810   16.1900 N.am  198  PRO198     -0.2715
     96  CA        24.3920    4.6350   16.2880 C.3   198  PRO198      0.1521
     97  C         23.6070    5.7940   15.7360 C.2   198  PRO198      0.2440
     98  O         22.9480    5.5910   14.7060 O.2   198  PRO198     -0.2731
     99  CB        25.6270    4.2700   15.4650 C.3   198  PRO198      0.0310
    100  CG        25.7880    2.7920   15.7030 C.3   198  PRO198      0.0237
    101  CD        24.3850    2.2490   15.6540 C.3   198  PRO198      0.0939
    102  N         23.5850    6.9580   16.3630 N.am  199  PRO199     -0.2727
    103  CA        24.4610    7.2950   17.4770 C.3   199  PRO199      0.1402
    104  C         24.0650    6.8500   18.8810 C.2   199  PRO199      0.2269
    105  O         24.7000    7.2780   19.8800 O.2   199  PRO199     -0.2865
    106  CB        24.4370    8.8300   17.3860 C.3   199  PRO199      0.0296
    107  CG        23.0820    9.1700   16.8630 C.3   199  PRO199      0.0237
    108  CD        22.7320    8.0830   15.8940 C.3   199  PRO199      0.0939
    109  N         15.1770    8.2340   24.3960 N.3   204  VAL204     -0.1245
    110  CA        13.9270    7.5470   24.0490 C.3   204  VAL204      0.1561
    111  C         13.1630    7.0820   25.2860 C.2   204  VAL204      0.2260
    112  O         13.7330    6.4410   26.1760 O.2   204  VAL204     -0.2867
    113  CB        14.1830    6.3270   23.1540 C.3   204  VAL204      0.0252
    114  CG1       12.8940    5.6380   22.7930 C.3   204  VAL204      0.0019
    115  CG2       14.9510    6.7090   21.8760 C.3   204  VAL204      0.0019
    116  N         10.7320    4.2800   25.8000 N.3   206  TRP206     -0.1241
    117  CA        10.2590    3.1170   25.1030 C.3   206  TRP206      0.1605
    118  C          8.8860    2.7030   25.6410 C.2   206  TRP206      0.2264
    119  O          8.6690    2.6420   26.8400 O.2   206  TRP206     -0.2867
    120  CB        11.2750    1.9700   25.2830 C.3   206  TRP206      0.0550
    121  CG        12.4000    2.1290   24.2910 C.ar  206  TRP206      0.0003
    122  CD1       13.6280    2.7000   24.4550 C.ar  206  TRP206      0.0946
    123  CD2       12.3610    1.6760   22.9260 C.ar  206  TRP206      0.0152
    124  NE1       14.3490    2.6400   23.3050 N.ar  206  TRP206     -0.2442
    125  CE2       13.6020    2.0210   22.3490 C.ar  206  TRP206      0.0810
    126  CE3       11.3990    1.0150   22.1580 C.ar  206  TRP206      0.0012
    127  CZ2       13.9200    1.7420   21.0400 C.ar  206  TRP206      0.0191
    128  CZ3       11.7210    0.7390   20.8430 C.ar  206  TRP206      0.0001
    129  CH2       12.9630    1.0990   20.3060 C.ar  206  TRP206      0.0015
@<TRIPOS>BOND
     1     4     3    2
     2    13    10    1
     3    13    14    1
     4    22    19    1
     5    22    23    1
     6    19    18    1
     7    19    20    1
     8    10    11    1
     9    10     9    1
    10     3     9   am
    11     3     2    1
    12     6     8    1
    13     6     5    1
    14    14    15    1
    15    20    21    2
    16    15    17   am
    17    15    16    2
    18    11    12    2
    19    23    24   ar
    20    23    25   ar
    21     2     5    1
    22     2     1    1
    23     5     7    1
    24    24    26   ar
    25    25    27   ar
    26    28    29    1
    27    30    29    1
    28    30    31    2
    29    29    32    1
    30    26    27   ar
    31    41    40    2
    32    62    64   ar
    33    62    60   ar
    34    32    33    1
    35    59    60    1
    36    59    56    1
    37    34    33   ar
    38    34    36   ar
    39    64    65   ar
    40    33    35   ar
    41    60    61   ar
    42    36    37   ar
    43    94    92    1
    44    35    37   ar
    45    98    97    2
    46    93    92    1
    47    92    89    1
    48    65    63   ar
    49    55    56    1
    50    51    50    2
    51    61    63   ar
    52    38    39    1
    53    40    39    1
    54    54    52    1
    55    52    53    1
    56    52    49    1
    57    56    57    1
    58    48    49    1
    59    99   100    1
    60    99    96    1
    61   101   100    1
    62   101    95    1
    63    97    96    1
    64    97   102   am
    65    39    42    1
    66    57    58    2
    67    42    43    1
    68   108   102    1
    69   108   107    1
    70    49    50    1
    71    95    96    1
    72    95    90   am
    73    89    90    1
    74    89    88    1
    75   102   103    1
    76    90    91    2
    77    44    43   ar
    78    44    46   ar
    79    43    45   ar
    80   107   106    1
    81    88    83   am
    82   106   103    1
    83   103   104    1
    84    46    47   ar
    85    45    47   ar
    86    86    85    1
    87    84    83    2
    88    83    82    1
    89    79    78    1
    90    80    78    1
    91    71    70    1
    92   104   105    2
    93    78    77    1
    94    85    82    1
    95    85    87    1
    96    77    74    1
    97    82    81    1
    98    81    75   am
    99    72    70    1
   100    70    67    1
   101    75    74    1
   102    75    76    2
   103    74    73    1
   104    67    68    1
   105    67    66    1
   106   129   128   ar
   107   129   127   ar
   108    68    69    2
   109   128   126   ar
   110   127   125   ar
   111   115   113    1
   112   126   123   ar
   113   125   123   ar
   114   125   124   ar
   115   114   113    1
   116   123   121   ar
   117   113   110    1
   118   124   122   ar
   119   110   109    1
   120   110   111    1
   121   121   122   ar
   122   121   120    1
   123   117   120    1
   124   117   118    1
   125   117   116    1
   126   111   112    2
   127   118   119    2
