@<TRIPOS>MOLECULE
tmp/3kigA00.pdb
 118 117 0 0 0
SMALL
GASTEIGER

@<TRIPOS>ATOM
      1  N         28.0380    5.0070    6.2950 N.3     1  HIS1       -0.1226
      2  CA        28.6130    4.9020    7.6410 C.3     1  HIS1        0.1752
      3  C         29.4020    3.6170    7.8570 C.2     1  HIS1        0.2596
      4  O         29.1570    2.5570    7.2840 O.2     1  HIS1       -0.2718
      5  CB        27.5230    5.0360    8.7120 C.3     1  HIS1        0.0759
      6  CG        26.3420    4.1230    8.6070 C.ar    1  HIS1        0.0818
      7  ND1       26.3770    2.7740    8.9020 N.ar    1  HIS1       -0.2268
      8  CD2       25.0700    4.3800    8.2360 C.ar    1  HIS1        0.1154
      9  CE1       25.1770    2.2370    8.7110 C.ar    1  HIS1        0.1986
     10  NE2       24.3390    3.2120    8.3020 N.ar    1  HIS1       -0.2212
     11  N         30.3950    3.6720    8.7440 N.am    2  HIS2       -0.1961
     12  CA        31.2360    2.5130    9.0340 C.3     2  HIS2        0.1787
     13  C         30.5190    1.4080    9.7840 C.2     2  HIS2        0.2620
     14  O         30.6860    0.2240    9.5060 O.2     2  HIS2       -0.2715
     15  CB        32.4680    2.9940    9.8240 C.3     2  HIS2        0.0785
     16  CG        33.3780    1.9180   10.3440 C.ar    2  HIS2        0.0821
     17  ND1       33.4720    1.5790   11.6760 N.ar    2  HIS2       -0.2267
     18  CD2       34.2570    1.0880    9.7260 C.ar    2  HIS2        0.1154
     19  CE1       34.3450    0.6050   11.8420 C.ar    2  HIS2        0.1986
     20  NE2       34.8390    0.2780   10.6610 N.ar    2  HIS2       -0.2212
     21  N         29.6830    1.7300   10.7680 N.am    3  TRP3       -0.1960
     22  CA        29.0300    0.7210   11.5760 C.3     3  TRP3        0.1771
     23  C         28.0670   -0.1140   10.7390 C.2     3  TRP3        0.2620
     24  O         27.5580    0.2850    9.6990 O.2     3  TRP3       -0.2715
     25  CB        28.3040    1.3830   12.7420 C.3     3  TRP3        0.0590
     26  CG        27.1100    2.2050   12.3910 C.ar    3  TRP3        0.0006
     27  CD1       27.0380    3.5370   12.1190 C.ar    3  TRP3        0.0946
     28  CD2       25.7720    1.7290   12.2800 C.ar    3  TRP3        0.0152
     29  NE1       25.7650    3.9090   11.8450 N.ar    3  TRP3       -0.2442
     30  CE2       24.9520    2.8200   11.9380 C.ar    3  TRP3        0.0810
     31  CE3       25.1810    0.4850   12.4380 C.ar    3  TRP3        0.0012
     32  CZ2       23.5890    2.6710   11.7570 C.ar    3  TRP3        0.0191
     33  CZ3       23.8320    0.3550   12.2560 C.ar    3  TRP3        0.0001
     34  CH2       23.0320    1.4470   11.9130 C.ar    3  TRP3        0.0015
     35  N         27.8020   -1.3070   11.2440 N.am    4  GLY4       -0.1940
     36  CA        26.8200   -2.2200   10.6590 C.3     4  GLY4        0.2014
     37  C         26.4620   -3.3150   11.6630 C.2     4  GLY4        0.2639
     38  O         26.4510   -3.0700   12.8610 O.2     4  GLY4       -0.2714
     39  N         26.1630   -4.4780   11.0820 N.am    5  TYR5       -0.1959
     40  CA        25.7390   -5.6200   11.8690 C.3     5  TYR5        0.1771
     41  C         26.6440   -6.8260   11.6810 C.2     5  TYR5        0.2620
     42  O         26.3740   -7.9200   12.1650 O.2     5  TYR5       -0.2715
     43  CB        24.2810   -5.9610   11.5200 C.3     5  TYR5        0.0574
     44  CG        23.2910   -4.9160   12.0110 C.ar    5  TYR5       -0.0198
     45  CD1       22.8960   -4.8940   13.3370 C.ar    5  TYR5       -0.0009
     46  CD2       22.7580   -3.9740   11.1550 C.ar    5  TYR5       -0.0009
     47  CE1       21.9970   -3.9460   13.7900 C.ar    5  TYR5        0.0417
     48  CE2       21.8640   -3.0240   11.5750 C.ar    5  TYR5        0.0417
     49  CZ        21.4740   -3.0210   12.9060 C.ar    5  TYR5        0.1957
     50  OH        20.5940   -2.0790   13.3720 O.3     5  TYR5       -0.2866
     51  N         27.7430   -6.6370   10.9720 N.am    6  GLY6       -0.1954
     52  CA        28.6570   -7.7420   10.7390 C.3     6  GLY6        0.1869
     53  C         29.6440   -8.0320   11.8370 C.2     6  GLY6        0.2309
     54  O         29.6770   -7.3260   12.8500 O.2     6  GLY6       -0.2863
     55  N         31.9790   -4.9770   12.1980 N.3     9  ASN9       -0.1240
     56  CA        31.4970   -3.6180   12.4490 C.3     9  ASN9        0.1653
     57  C         30.1830   -3.5870   13.2050 C.2     9  ASN9        0.2266
     58  O         29.5360   -2.5430   13.2240 O.2     9  ASN9       -0.2867
     59  CB        31.3780   -2.9100   11.0990 C.3     9  ASN9        0.1155
     60  CG        30.3250   -3.5290   10.2080 C.2     9  ASN9        0.2627
     61  OD1       29.6400   -4.4810   10.6260 O.2     9  ASN9       -0.2716
     62  ND2       30.1800   -2.9680    9.0100 N.am    9  ASN9       -0.0877
     63  N         20.1450    0.9850    3.7390 N.3    61  GLY61      -0.1210
     64  CA        21.3310    0.1840    3.9130 C.3    61  GLY61       0.1956
     65  C         21.3340   -0.6820    5.1330 C.2    61  GLY61       0.2612
     66  O         22.1480   -1.6150    5.2400 O.2    61  GLY61      -0.2717
     67  N         20.4500   -0.3960    6.0780 N.am   62  CYS62      -0.1970
     68  CA        20.3630   -1.1440    7.3330 C.3    62  CYS62       0.1712
     69  C         18.9710   -1.6710    7.6240 C.2    62  CYS62       0.2296
     70  O         18.8480   -2.7440    8.2080 O.2    62  CYS62      -0.2864
     71  CB        20.7960   -0.2870    8.5380 C.3    62  CYS62       0.0983
     72  SG        22.5090    0.2780    8.3610 S.3    62  CYS62      -0.0798
     73  N         20.4540   -0.5090   -1.1430 N.3   167  LYS167     -0.1245
     74  CA        20.7250    0.7100   -0.4030 C.3   167  LYS167      0.1561
     75  C         20.5920    1.9690   -1.2440 C.2   167  LYS167      0.2260
     76  O         21.1760    2.0530   -2.3320 O.2   167  LYS167     -0.2867
     77  CB        22.1270    0.6370    0.1860 C.3   167  LYS167      0.0271
     78  CG        22.6000    1.8900    0.9010 C.3   167  LYS167      0.0035
     79  CD        23.8650    1.7160    1.6870 C.3   167  LYS167      0.0206
     80  CE        24.9170    0.7780    1.1760 C.3   167  LYS167      0.1093
     81  NZ        26.2030    1.0050    1.9050 N.3   167  LYS167     -0.1314
     82  N         21.4780   -5.2290    2.0140 N.3   228  PHE228     -0.1227
     83  CA        22.2430   -4.1760    2.6640 C.3   228  PHE228      0.1736
     84  C         23.0710   -3.3410    1.7010 C.2   228  PHE228      0.2595
     85  O         23.2930   -2.1440    1.9390 O.2   228  PHE228     -0.2718
     86  CB        23.2400   -4.7750    3.6360 C.3   228  PHE228      0.0547
     87  CG        22.7400   -5.3300    4.9540 C.ar  228  PHE228     -0.0202
     88  CD1       21.9640   -4.6320    5.8480 C.ar  228  PHE228     -0.0042
     89  CD2       23.1170   -6.6100    5.3250 C.ar  228  PHE228     -0.0042
     90  CE1       21.5790   -5.1480    7.0710 C.ar  228  PHE228     -0.0003
     91  CE2       22.7300   -7.1640    6.5510 C.ar  228  PHE228     -0.0003
     92  CZ        21.9650   -6.4180    7.4340 C.ar  228  PHE228     -0.0000
     93  N         23.5620   -4.0160    0.6550 N.am  229  ASN229     -0.1974
     94  CA        24.4380   -3.3780   -0.3180 C.3   229  ASN229      0.1688
     95  C         23.6870   -2.4620   -1.2780 C.2   229  ASN229      0.2292
     96  O         22.4690   -2.5610   -1.4050 O.2   229  ASN229     -0.2864
     97  CB        25.1790   -4.4770   -1.1050 C.3   229  ASN229      0.1181
     98  CG        24.1990   -5.4560   -1.7190 C.2   229  ASN229      0.2629
     99  OD1       23.6580   -6.2950   -0.9970 O.2   229  ASN229     -0.2716
    100  ND2       23.9320   -5.3270   -3.0060 N.am  229  ASN229     -0.0877
    101  N         26.5530   -4.0060   -6.3900 N.3   233  GLU233     -0.1245
    102  CA        27.5930   -4.5290   -5.5030 C.3   233  GLU233      0.1567
    103  C         27.2660   -5.9730   -5.1320 C.2   233  GLU233      0.2260
    104  O         26.1180   -6.4250   -5.3130 O.2   233  GLU233     -0.2867
    105  CB        27.7130   -3.6570   -4.2710 C.3   233  GLU233      0.0388
    106  CG        27.8940   -2.1730   -4.5080 C.3   233  GLU233      0.1160
    107  CD        27.7780   -1.3140   -3.2660 C.2   233  GLU233      0.3649
    108  OE1       27.2500   -1.6940   -2.2150 O.co2 233  GLU233     -0.2457
    109  OE2       28.2430   -0.1500   -3.2700 O.co2 233  GLU233     -0.2457
    110  N         24.4320   -8.8500   -0.2380 N.3   236  GLU236     -0.1245
    111  CA        24.4210   -9.1580    1.1750 C.3   236  GLU236      0.1567
    112  C         22.9750   -9.0890    1.6450 C.2   236  GLU236      0.2260
    113  O         22.4170   -7.9880    1.7370 O.2   236  GLU236     -0.2867
    114  CB        25.2820   -8.1930    1.9830 C.3   236  GLU236      0.0388
    115  CG        26.6410   -7.9480    1.3930 C.3   236  GLU236      0.1160
    116  CD        27.3980   -6.8130    2.0690 C.2   236  GLU236      0.3649
    117  OE1       27.5570   -6.8310    3.3130 O.co2 236  GLU236     -0.2457
    118  OE2       27.8380   -5.9090    1.3290 O.co2 236  GLU236     -0.2457
@<TRIPOS>BOND
     1   101   102    1
     2   102   103    1
     3   102   105    1
     4   104   103    2
     5   106   105    1
     6   106   107    1
     7   109   107   ar
     8   107   108   ar
     9   100    98   am
    10    76    75    2
    11    98    97    1
    12    98    99    2
    13    96    95    2
    14    95    94    1
    15    75    74    1
    16    73    74    1
    17    97    94    1
    18    74    77    1
    19    94    93    1
    20   110   111    1
    21    77    78    1
    22    93    84   am
    23    78    79    1
    24   111   112    1
    25   111   114    1
    26    80    79    1
    27    80    81    1
    28   118   116   ar
    29   115   114    1
    30   115   116    1
    31   112   113    2
    32    84    85    2
    33    84    83    1
    34    82    83    1
    35   116   117   ar
    36    83    86    1
    37    86    87    1
    38    63    64    1
    39    64    65    1
    40    87    89   ar
    41    87    88   ar
    42    65    66    2
    43    65    67   am
    44    89    91   ar
    45    88    90   ar
    46    67    68    1
    47     1     2    1
    48    91    92   ar
    49    90    92   ar
    50     4     3    2
    51    68    69    1
    52    68    71    1
    53    69    70    2
    54     2     3    1
    55     2     5    1
    56     3    11   am
    57     8    10   ar
    58     8     6   ar
    59    10     9   ar
    60    72    71    1
    61     6     5    1
    62     6     7   ar
    63     9     7   ar
    64    11    12    1
    65    62    60   am
    66    12    13    1
    67    12    15    1
    68    14    13    2
    69    24    23    2
    70    18    16   ar
    71    18    20   ar
    72    13    21   am
    73    15    16    1
    74    60    61    2
    75    60    59    1
    76    16    17   ar
    77    36    35    1
    78    36    37    1
    79    20    19   ar
    80    52    51    1
    81    52    53    1
    82    23    35   am
    83    23    22    1
    84    21    22    1
    85    51    41   am
    86    39    37   am
    87    39    40    1
    88    59    56    1
    89    46    48   ar
    90    46    44   ar
    91    43    40    1
    92    43    44    1
    93    48    49   ar
    94    22    25    1
    95    37    38    2
    96    17    19   ar
    97    41    40    1
    98    41    42    2
    99    32    34   ar
   100    32    30   ar
   101    53    54    2
   102    29    30   ar
   103    29    27   ar
   104    34    33   ar
   105    30    28   ar
   106    44    45   ar
   107    27    26   ar
   108    55    56    1
   109    33    31   ar
   110    28    26   ar
   111    28    31   ar
   112    26    25    1
   113    56    57    1
   114    49    50    1
   115    49    47   ar
   116    57    58    2
   117    45    47   ar
