@<TRIPOS>MOLECULE
tmp/3kjdB00.pdb
 130 125 0 0 0
SMALL
GASTEIGER

@<TRIPOS>ATOM
      1  N          3.3820   70.1200   42.9030 N.3   106  SER106     -0.1217
      2  CA         4.5690   70.1410   42.0820 C.3   106  SER106      0.1889
      3  C          5.8310   70.6090   42.8150 C.2   106  SER106      0.2288
      4  O          6.9070   70.0390   42.6150 O.2   106  SER106     -0.2866
      5  CB         4.3550   71.0150   40.8390 C.3   106  SER106      0.2089
      6  OG         5.4730   70.9250   39.9860 O.3   106  SER106     -0.2183
      7  N          9.2470   68.4950   43.3340 N.3   110  GLN110     -0.1245
      8  CA        10.5820   68.9940   42.9730 C.3   110  GLN110      0.1566
      9  C         11.5580   68.9740   44.1560 C.2   110  GLN110      0.2260
     10  O         12.7810   68.7790   43.9870 O.2   110  GLN110     -0.2867
     11  CB        10.4340   70.3950   42.4110 C.3   110  GLN110      0.0367
     12  CG         9.9980   70.3740   40.9540 C.3   110  GLN110      0.0905
     13  CD         9.7810   71.7600   40.3990 C.2   110  GLN110      0.2608
     14  OE1       10.7410   72.5280   40.2340 O.2   110  GLN110     -0.2717
     15  NE2        8.5190   72.1030   40.1260 N.am  110  GLN110     -0.0878
     16  N         12.5160   65.2830   44.1910 N.3   113  GLU113     -0.1245
     17  CA        13.4570   65.0440   43.1000 C.3   113  GLU113      0.1567
     18  C         14.8940   65.5020   43.4360 C.2   113  GLU113      0.2260
     19  O         15.8390   64.7830   43.1880 O.2   113  GLU113     -0.2867
     20  CB        12.9590   65.6620   41.7940 C.3   113  GLU113      0.0388
     21  CG        11.7600   64.9100   41.2260 C.3   113  GLU113      0.1160
     22  CD        11.0950   65.5680   40.0350 C.2   113  GLU113      0.3649
     23  OE1       11.1540   66.8230   39.8660 O.co2 113  GLU113     -0.2457
     24  OE2       10.4410   64.7920   39.2810 O.co2 113  GLU113     -0.2457
     25  N         17.8140   71.0160   28.6190 N.3   206  HIS206     -0.1226
     26  CA        17.2820   70.6100   29.9210 C.3   206  HIS206      0.1752
     27  C         18.0450   71.3330   31.0160 C.2   206  HIS206      0.2596
     28  O         19.2970   71.2660   31.0730 O.2   206  HIS206     -0.2718
     29  CB        17.4270   69.0740   30.1280 C.3   206  HIS206      0.0759
     30  CG        16.7820   68.5640   31.3920 C.ar  206  HIS206      0.0818
     31  ND1       15.4810   68.1150   31.4320 N.ar  206  HIS206     -0.2268
     32  CD2       17.2660   68.4160   32.6490 C.ar  206  HIS206      0.1154
     33  CE1       15.1950   67.7200   32.6640 C.ar  206  HIS206      0.1986
     34  NE2       16.2690   67.8750   33.4150 N.ar  206  HIS206     -0.2212
     35  N         17.3030   72.0090   31.8930 N.am  207  GLY207     -0.1957
     36  CA        17.8220   72.6740   33.0480 C.3   207  GLY207      0.1869
     37  C         17.4160   71.9270   34.3330 C.2   207  GLY207      0.2309
     38  O         16.3860   71.2490   34.3970 O.2   207  GLY207     -0.2863
     39  N          1.7960   65.8940   39.0950 N.3   232  GLY232     -0.1210
     40  CA         2.9680   66.7420   39.1000 C.3   232  GLY232      0.1956
     41  C          3.5790   67.0350   37.7410 C.2   232  GLY232      0.2612
     42  O          4.5070   67.8350   37.6380 O.2   232  GLY232     -0.2717
     43  N          3.0570   66.4000   36.7060 N.am  233  TYR233     -0.1962
     44  CA         3.6990   66.3230   35.3950 C.3   233  TYR233      0.1771
     45  C          2.6810   66.6420   34.3200 C.2   233  TYR233      0.2619
     46  O          1.7820   65.8290   34.0660 O.2   233  TYR233     -0.2715
     47  CB         4.2760   64.8940   35.2100 C.3   233  TYR233      0.0574
     48  CG         5.3050   64.5970   36.2640 C.ar  233  TYR233     -0.0198
     49  CD1        6.6250   65.0440   36.1260 C.ar  233  TYR233     -0.0009
     50  CD2        4.9510   63.9540   37.4450 C.ar  233  TYR233     -0.0009
     51  CE1        7.5410   64.8190   37.1170 C.ar  233  TYR233      0.0417
     52  CE2        5.8590   63.7130   38.4130 C.ar  233  TYR233      0.0417
     53  CZ         7.1420   64.1440   38.2640 C.ar  233  TYR233      0.1957
     54  OH         8.0270   63.9130   39.2610 O.3   233  TYR233     -0.2866
     55  N          2.8250   67.8130   33.7000 N.am  234  MET234     -0.1977
     56  CA         1.8920   68.3260   32.7040 C.3   234  MET234      0.1605
     57  C          1.5630   67.3150   31.6140 C.2   234  MET234      0.2287
     58  O          0.3900   67.2070   31.1830 O.2   234  MET234     -0.2864
     59  CB         2.4520   69.6170   32.0820 C.3   234  MET234      0.0413
     60  CG         1.5290   70.2970   31.0440 C.3   234  MET234      0.0598
     61  SD         2.0380   71.9970   30.5760 S.3   234  MET234     -0.1393
     62  CE         2.1900   72.7220   32.2080 C.3   234  MET234      0.0692
     63  N          7.6490   61.5050   31.9280 N.3   238  GLY238     -0.1225
     64  CA         8.6490   61.4090   30.8570 C.3   238  GLY238      0.1811
     65  C          9.8400   62.2590   31.1910 C.2   238  GLY238      0.2280
     66  O          9.9670   62.7070   32.3060 O.2   238  GLY238     -0.2866
     67  N         11.6150   65.7600   30.1020 N.3   240  TYR240     -0.1227
     68  CA        11.1260   67.0340   29.5370 C.3   240  TYR240      0.1736
     69  C         12.2790   67.8560   28.9700 C.2   240  TYR240      0.2595
     70  O         13.3460   67.9090   29.5620 O.2   240  TYR240     -0.2718
     71  CB        10.4010   67.8390   30.5980 C.3   240  TYR240      0.0548
     72  CG         9.0290   67.3300   30.9390 C.ar  240  TYR240     -0.0200
     73  CD1        7.8900   68.0680   30.6100 C.ar  240  TYR240     -0.0009
     74  CD2        8.8510   66.1000   31.5490 C.ar  240  TYR240     -0.0009
     75  CE1        6.6410   67.6240   30.9090 C.ar  240  TYR240      0.0417
     76  CE2        7.5860   65.6330   31.8280 C.ar  240  TYR240      0.0417
     77  CZ         6.4870   66.4140   31.5170 C.ar  240  TYR240      0.1957
     78  OH         5.2310   65.9020   31.7850 O.3   240  TYR240     -0.2866
     79  N         12.0400   68.4510   27.8000 N.am  241  PHE241     -0.1962
     80  CA        13.0320   69.2330   27.0430 C.3   241  PHE241      0.1771
     81  C         12.3590   70.5040   26.4650 C.2   241  PHE241      0.2619
     82  O         11.1630   70.4950   26.1490 O.2   241  PHE241     -0.2715
     83  CB        13.6120   68.4250   25.8860 C.3   241  PHE241      0.0574
     84  CG        14.4070   67.1960   26.3100 C.ar  241  PHE241     -0.0200
     85  CD1       15.7360   67.3020   26.7380 C.ar  241  PHE241     -0.0042
     86  CD2       13.8130   65.9500   26.3210 C.ar  241  PHE241     -0.0042
     87  CE1       16.4400   66.1840   27.1410 C.ar  241  PHE241     -0.0003
     88  CE2       14.5060   64.8420   26.7200 C.ar  241  PHE241     -0.0003
     89  CZ        15.8270   64.9420   27.0960 C.ar  241  PHE241     -0.0000
     90  N         13.1220   71.5950   26.3610 N.am  242  ALA242     -0.1977
     91  CA        12.6630   72.8440   25.7160 C.3   242  ALA242      0.1597
     92  C         13.4690   73.1410   24.4320 C.2   242  ALA242      0.2287
     93  O         14.6290   72.6970   24.2810 O.2   242  ALA242     -0.2864
     94  CB        12.7570   74.0400   26.7420 C.3   242  ALA242      0.0319
     95  N         13.5370   78.7580   28.7350 N.3   247  LYS247     -0.1231
     96  CA        12.4960   77.9050   29.3330 C.3   247  LYS247      0.1693
     97  C         13.1420   76.8230   30.2500 C.2   247  LYS247      0.2592
     98  O         12.7570   76.6400   31.4240 O.2   247  LYS247     -0.2718
     99  CB        11.6550   77.2350   28.2670 C.3   247  LYS247      0.0285
    100  CG        10.4810   76.4330   28.8840 C.3   247  LYS247      0.0035
    101  CD         9.4560   75.9660   27.8870 C.3   247  LYS247      0.0206
    102  CE         8.3150   75.1690   28.5690 C.3   247  LYS247      0.1093
    103  NZ         7.1960   74.8470   27.6380 N.3   247  LYS247     -0.1314
    104  N         14.1730   76.1610   29.7400 N.am  248  SER248     -0.1952
    105  CA        14.9640   75.2560   30.5920 C.3   248  SER248      0.1924
    106  C         15.7790   75.9500   31.6730 C.2   248  SER248      0.2314
    107  O         15.8760   75.4300   32.8010 O.2   248  SER248     -0.2863
    108  CB        15.8670   74.3320   29.7640 C.3   248  SER248      0.2116
    109  OG        15.1280   73.4400   28.9620 O.3   248  SER248     -0.2180
    110  N         14.4040   76.4530   35.0960 N.3   251  TYR251     -0.1241
    111  CA        14.5000   75.2740   36.0010 C.3   251  TYR251      0.1605
    112  C         15.8270   75.0930   36.6910 C.2   251  TYR251      0.2264
    113  O         15.9820   74.1890   37.5270 O.2   251  TYR251     -0.2867
    114  CB        14.0900   74.0240   35.2320 C.3   251  TYR251      0.0534
    115  CG        12.6050   74.0330   34.9140 C.ar  251  TYR251     -0.0201
    116  CD1       11.6460   73.8790   35.9240 C.ar  251  TYR251     -0.0009
    117  CD2       12.1630   74.2370   33.6160 C.ar  251  TYR251     -0.0009
    118  CE1       10.2800   73.9110   35.6150 C.ar  251  TYR251      0.0417
    119  CE2       10.8450   74.2630   33.3030 C.ar  251  TYR251      0.0417
    120  CZ         9.9060   74.1160   34.3010 C.ar  251  TYR251      0.1957
    121  OH         8.6030   74.1290   33.9170 O.3   251  TYR251     -0.2866
    122  N          7.2260   72.3140   24.5370 N.3   331  GLU331     -0.1245
    123  CA         8.0560   71.3990   25.3240 C.3   331  GLU331      0.1567
    124  C          7.8830   70.0170   24.7570 C.2   331  GLU331      0.2260
    125  O          6.8540   69.7320   24.1220 O.2   331  GLU331     -0.2867
    126  CB         7.7120   71.4880   26.7930 C.3   331  GLU331      0.0388
    127  CG         6.3080   71.2000   27.1990 C.3   331  GLU331      0.1160
    128  CD         6.0460   71.6060   28.6400 C.2   331  GLU331      0.3649
    129  OE1        5.8170   70.7170   29.5170 O.co2 331  GLU331     -0.2457
    130  OE2        6.1540   72.8400   28.9130 O.co2 331  GLU331     -0.2457
@<TRIPOS>BOND
     1   125   124    2
     2    93    92    2
     3    92    91    1
     4   122   123    1
     5   124   123    1
     6   123   126    1
     7    91    90    1
     8    91    94    1
     9    83    84    1
    10    83    80    1
    11    82    81    2
    12    84    86   ar
    13    84    85   ar
    14    86    88   ar
    15    90    81   am
    16    81    80    1
    17    88    89   ar
    18    85    87   ar
    19   126   127    1
    20    80    79    1
    21    89    87   ar
    22   127   128    1
    23   103   102    1
    24    79    69   am
    25   101   102    1
    26   101   100    1
    27    99   100    1
    28    99    96    1
    29    25    26    1
    30   128   130   ar
    31   128   129   ar
    32    95    96    1
    33   109   108    1
    34    69    68    1
    35    69    70    2
    36    96    97    1
    37    68    67    1
    38    68    71    1
    39   104    97   am
    40   104   105    1
    41   108   105    1
    42    26    29    1
    43    26    27    1
    44    29    30    1
    45    97    98    2
    46    61    60    1
    47    61    62    1
    48   105   106    1
    49    71    72    1
    50    73    75   ar
    51    73    72   ar
    52    64    65    1
    53    64    63    1
    54    75    77   ar
    55    72    74   ar
    56    27    28    2
    57    27    35   am
    58    60    59    1
    59    58    57    2
    60    65    66    2
    61    30    31   ar
    62    30    32   ar
    63    31    33   ar
    64    77    78    1
    65    77    76   ar
    66    74    76   ar
    67    57    56    1
    68   106   107    2
    69    35    36    1
    70    59    56    1
    71    32    34   ar
    72    33    34   ar
    73    56    55    1
    74    36    37    1
    75   119   117   ar
    76   119   120   ar
    77   117   115   ar
    78    55    45   am
    79   121   120    1
    80    46    45    2
    81   120   118   ar
    82    45    44    1
    83    37    38    2
    84   115   114    1
    85   115   116   ar
    86   110   111    1
    87    47    44    1
    88    47    48    1
    89   114   111    1
    90    44    43    1
    91   118   116   ar
    92   111   112    1
    93    49    48   ar
    94    49    51   ar
    95    48    50   ar
    96   112   113    2
    97    43    41   am
    98    51    53   ar
    99    50    52   ar
   100    42    41    2
   101    41    40    1
   102    53    52   ar
   103    53    54    1
   104    39    40    1
   105    24    22   ar
   106    23    22   ar
   107     6     5    1
   108    22    21    1
   109    15    13   am
   110    14    13    2
   111    13    12    1
   112     5     2    1
   113    12    11    1
   114    21    20    1
   115    20    17    1
   116     2     3    1
   117     2     1    1
   118    11     8    1
   119     4     3    2
   120     8     7    1
   121     8     9    1
   122    17    18    1
   123    17    16    1
   124    19    18    2
   125    10     9    2
