@<TRIPOS>MOLECULE
tmp/3kjfB00.pdb
 120 123 0 0 0
SMALL
GASTEIGER

@<TRIPOS>ATOM
      1  N         11.9780   -6.6160   12.0400 N.3    29  TYR29      -0.1227
      2  CA        13.3020   -6.0850   11.7630 C.3    29  TYR29       0.1736
      3  C         13.4510   -5.7380   10.2810 C.2    29  TYR29       0.2596
      4  O         12.7810   -6.3090    9.4270 O.2    29  TYR29      -0.2718
      5  CB        14.4030   -7.1060   12.1090 C.3    29  TYR29       0.0548
      6  CG        14.6740   -7.3140   13.5900 C.ar   29  TYR29      -0.0200
      7  CD1       15.0770   -6.2600   14.4030 C.ar   29  TYR29      -0.0009
      8  CD2       14.5540   -8.5670   14.1650 C.ar   29  TYR29      -0.0009
      9  CE1       15.3360   -6.4480   15.7510 C.ar   29  TYR29       0.0417
     10  CE2       14.8170   -8.7690   15.5240 C.ar   29  TYR29       0.0417
     11  CZ        15.2090   -7.7010   16.3040 C.ar   29  TYR29       0.1957
     12  OH        15.4780   -7.8810   17.6440 O.3    29  TYR29      -0.2866
     13  N         14.3460   -4.7990    9.9950 N.am   30  SER30      -0.1938
     14  CA        14.7720   -4.4680    8.6450 C.3    30  SER30       0.2055
     15  C         16.2950   -4.5710    8.5990 C.2    30  SER30       0.2643
     16  O         16.9620   -4.2300    9.5860 O.2    30  SER30      -0.2714
     17  CB        14.3410   -3.0390    8.3130 C.3    30  SER30       0.2130
     18  OG        14.8210   -2.6350    7.0510 O.3    30  SER30      -0.2179
     19  N         16.8350   -5.0010    7.4510 N.am   31  TRP31      -0.1959
     20  CA        18.2340   -5.4260    7.3450 C.3    31  TRP31       0.1771
     21  C         19.1200   -4.5290    6.4700 C.2    31  TRP31       0.2620
     22  O         18.6800   -3.9500    5.4590 O.2    31  TRP31      -0.2715
     23  CB        18.3070   -6.8690    6.8400 C.3    31  TRP31       0.0590
     24  CG        17.6000   -7.8320    7.7220 C.ar   31  TRP31       0.0006
     25  CD1       16.4550   -8.5070    7.4380 C.ar   31  TRP31       0.0946
     26  CD2       17.9800   -8.2260    9.0440 C.ar   31  TRP31       0.0152
     27  NE1       16.0960   -9.3060    8.4990 N.ar   31  TRP31      -0.2442
     28  CE2       17.0150   -9.1510    9.4990 C.ar   31  TRP31       0.0810
     29  CE3       19.0530   -7.8990    9.8840 C.ar   31  TRP31       0.0012
     30  CZ2       17.0750   -9.7400   10.7570 C.ar   31  TRP31       0.0191
     31  CZ3       19.1200   -8.4940   11.1360 C.ar   31  TRP31       0.0001
     32  CH2       18.1310   -9.4040   11.5600 C.ar   31  TRP31       0.0015
     33  N         20.3840   -4.4390    6.8760 N.am   32  ARG32      -0.1963
     34  CA        21.3520   -3.5620    6.2520 C.3    32  ARG32       0.1729
     35  C         22.7210   -4.2450    6.1630 C.2    32  ARG32       0.2616
     36  O         23.2090   -4.8030    7.1410 O.2    32  ARG32      -0.2715
     37  CB        21.4320   -2.2600    7.0510 C.3    32  ARG32       0.0348
     38  CG        22.6270   -1.3620    6.7720 C.3    32  ARG32       0.0492
     39  CD        22.5100   -0.0410    7.5250 C.3    32  ARG32       0.2205
     40  NE        22.1560   -0.2550    8.9200 N.pl3  32  ARG32      -0.0865
     41  CZ        22.9530   -0.7600    9.8610 C.cat  32  ARG32       0.5346
     42  NH1       24.2210   -1.0850    9.6060 N.pl3  32  ARG32       0.1354
     43  NH2       22.4740   -0.9280   11.0920 N.pl3  32  ARG32       0.1354
     44  N         23.3070   -4.1980    4.9690 N.am   33  ASN33      -0.1958
     45  CA        24.6610   -4.6500    4.7170 C.3    33  ASN33       0.1819
     46  C         25.6190   -3.4860    5.0030 C.2    33  ASN33       0.2622
     47  O         25.4060   -2.3770    4.5070 O.2    33  ASN33      -0.2715
     48  CB        24.7610   -5.1200    3.2500 C.3    33  ASN33       0.1195
     49  CG        26.1010   -5.7410    2.9180 C.2    33  ASN33       0.2630
     50  OD1       27.1160   -5.0540    2.8900 O.2    33  ASN33      -0.2716
     51  ND2       26.1070   -7.0420    2.6340 N.am   33  ASN33      -0.0877
     52  N         26.6710   -3.7340    5.7890 N.am   34  SER34      -0.1950
     53  CA        27.5860   -2.6600    6.2160 C.3    34  SER34       0.1924
     54  C         28.3610   -2.0090    5.0690 C.2    34  SER34       0.2314
     55  O         28.8030   -0.8740    5.1980 O.2    34  SER34      -0.2863
     56  CB        28.5530   -3.1530    7.2970 C.3    34  SER34       0.2116
     57  OG        29.3200   -4.2660    6.8500 O.3    34  SER34      -0.2180
     58  N         21.4590   -0.6770    2.8260 N.3    38  SER38      -0.1202
     59  CA        20.2780   -1.4920    3.1470 C.3    38  SER38       0.2020
     60  C         19.7600   -2.1970    1.8980 C.2    38  SER38       0.2618
     61  O         19.9400   -1.7170    0.7800 O.2    38  SER38      -0.2717
     62  CB        19.1790   -0.6490    3.7960 C.3    38  SER38       0.2103
     63  OG        18.7280    0.3860    2.9530 O.3    38  SER38      -0.2182
     64  N         19.1370   -3.3580    2.0910 N.am   39  TRP39      -0.1975
     65  CA        18.5310   -4.0880    0.9800 C.3    39  TRP39       0.1640
     66  C         17.5120   -3.2150    0.2320 C.2    39  TRP39       0.2290
     67  O         17.4910   -3.1570   -1.0070 O.2    39  TRP39      -0.2864
     68  CB        17.8230   -5.3440    1.5000 C.3    39  TRP39       0.0576
     69  CG        18.7280   -6.3460    2.1590 C.ar   39  TRP39       0.0006
     70  CD1       20.0940   -6.3840    2.1220 C.ar   39  TRP39       0.0946
     71  CD2       18.3160   -7.4930    2.9150 C.ar   39  TRP39       0.0152
     72  NE1       20.5550   -7.4660    2.8340 N.ar   39  TRP39      -0.2442
     73  CE2       19.4810   -8.1630    3.3280 C.ar   39  TRP39       0.0810
     74  CE3       17.0710   -8.0120    3.2870 C.ar   39  TRP39       0.0012
     75  CZ2       19.4380   -9.3260    4.0920 C.ar   39  TRP39       0.0191
     76  CZ3       17.0330   -9.1680    4.0380 C.ar   39  TRP39       0.0001
     77  CH2       18.2080   -9.8100    4.4340 C.ar   39  TRP39       0.0015
     78  N         19.1120  -12.3500    1.7270 N.3    73  GLU73      -0.1231
     79  CA        19.0050  -13.1170    2.9490 C.3    73  GLU73       0.1699
     80  C         20.1310  -12.7250    3.9040 C.2    73  GLU73       0.2593
     81  O         21.2710  -12.5620    3.4780 O.2    73  GLU73      -0.2718
     82  CB        19.0820  -14.5960    2.6080 C.3    73  GLU73       0.0402
     83  CG        18.5040  -15.4910    3.6410 C.3    73  GLU73       0.1161
     84  CD        18.5870  -16.9450    3.2310 C.2    73  GLU73       0.3649
     85  OE1       17.9990  -17.3020    2.1840 O.co2  73  GLU73      -0.2457
     86  OE2       19.2420  -17.7180    3.9500 O.co2  73  GLU73      -0.2457
     87  N         19.8240  -12.5970    5.1960 N.am   74  SER74      -0.1938
     88  CA        20.8350  -12.1840    6.1730 C.3    74  SER74       0.2055
     89  C         21.8860  -13.2670    6.4090 C.2    74  SER74       0.2643
     90  O         21.6330  -14.4490    6.2060 O.2    74  SER74      -0.2714
     91  CB        20.1920  -11.7890    7.5010 C.3    74  SER74       0.2130
     92  OG        19.8020  -12.9150    8.2710 O.3    74  SER74      -0.2179
     93  N         23.0630  -12.8350    6.8470 N.am   75  PHE75      -0.1959
     94  CA        24.1530  -13.7420    7.1980 C.3    75  PHE75       0.1771
     95  C         24.7470  -13.2780    8.5180 C.2    75  PHE75       0.2620
     96  O         25.0890  -12.1120    8.6600 O.2    75  PHE75      -0.2715
     97  CB        25.2290  -13.7610    6.1060 C.3    75  PHE75       0.0574
     98  CG        26.3800  -14.6840    6.4120 C.ar   75  PHE75      -0.0200
     99  CD1       27.5180  -14.2080    7.0500 C.ar   75  PHE75      -0.0042
    100  CD2       26.3110  -16.0260    6.0910 C.ar   75  PHE75      -0.0042
    101  CE1       28.5730  -15.0520    7.3400 C.ar   75  PHE75      -0.0003
    102  CE2       27.3600  -16.8810    6.3770 C.ar   75  PHE75      -0.0003
    103  CZ        28.4970  -16.3930    7.0050 C.ar   75  PHE75      -0.0000
    104  N         24.8340  -14.1760    9.4920 N.am   76  SER76      -0.1950
    105  CA        25.4090  -13.8360   10.7900 C.3    76  SER76       0.1924
    106  C         25.9560  -15.0720   11.4610 C.2    76  SER76       0.2314
    107  O         25.4330  -16.1700   11.2820 O.2    76  SER76      -0.2863
    108  CB        24.3620  -13.1600   11.7000 C.3    76  SER76       0.2116
    109  OG        24.7840  -13.1540   13.0600 O.3    76  SER76      -0.2180
    110  N         20.1270  -14.2850   14.1620 N.3    81  PHE81      -0.1241
    111  CA        19.9980  -13.2640   13.1230 C.3    81  PHE81       0.1605
    112  C         20.4380  -13.7170   11.7180 C.2    81  PHE81       0.2264
    113  O         20.5880  -12.8890   10.8090 O.2    81  PHE81      -0.2867
    114  CB        20.7690  -12.0040   13.5570 C.3    81  PHE81       0.0534
    115  CG        20.3800  -11.5040   14.9380 C.ar   81  PHE81      -0.0203
    116  CD1       19.0730  -11.0910   15.1990 C.ar   81  PHE81      -0.0042
    117  CD2       21.3090  -11.4590   15.9760 C.ar   81  PHE81      -0.0042
    118  CE1       18.7020  -10.6340   16.4740 C.ar   81  PHE81      -0.0003
    119  CE2       20.9400  -11.0020   17.2550 C.ar   81  PHE81      -0.0003
    120  CZ        19.6340  -10.5910   17.4970 C.ar   81  PHE81      -0.0000
@<TRIPOS>BOND
     1    67    66    2
     2    66    65    1
     3    61    60    2
     4    65    68    1
     5    65    64    1
     6    68    69    1
     7    78    79    1
     8    60    64   am
     9    60    59    1
    10    70    69   ar
    11    70    72   ar
    12    69    71   ar
    13    85    84   ar
    14    82    79    1
    15    82    83    1
    16    51    49   am
    17    58    59    1
    18    72    73   ar
    19    50    49    2
    20    71    74   ar
    21    71    73   ar
    22    49    48    1
    23    79    80    1
    24    63    62    1
    25    59    62    1
    26    84    83    1
    27    84    86   ar
    28    48    45    1
    29    74    76   ar
    30    73    75   ar
    31    81    80    2
    32    80    87   am
    33    76    77   ar
    34    75    77   ar
    35    47    46    2
    36    45    44    1
    37    45    46    1
    38    44    35   am
    39    46    52   am
    40    54    55    2
    41    54    53    1
    42    87    88    1
    43    22    21    2
    44    52    53    1
    45   100   102   ar
    46   100    98   ar
    47    97    98    1
    48    97    94    1
    49    35    34    1
    50    35    36    2
    51    88    89    1
    52    88    91    1
    53    90    89    2
    54    53    56    1
    55    34    33    1
    56    34    37    1
    57   102   103   ar
    58    89    93   am
    59    98    99   ar
    60    21    33   am
    61    21    20    1
    62    38    37    1
    63    38    39    1
    64    23    20    1
    65    23    24    1
    66    93    94    1
    67    57    56    1
    68   103   101   ar
    69    99   101   ar
    70    18    17    1
    71    94    95    1
    72    20    19    1
    73    25    24   ar
    74    25    27   ar
    75    19    15   am
    76    91    92    1
    77    39    40    1
    78    24    26   ar
    79    17    14    1
    80    27    28   ar
    81    95    96    2
    82    95   104   am
    83    15    14    1
    84    15    16    2
    85    14    13    1
    86    40    41    2
    87    26    28   ar
    88    26    29   ar
    89     4     3    2
    90   104   105    1
    91    28    30   ar
    92    42    41    1
    93    41    43    1
    94    29    31   ar
    95    13     3   am
    96     3     2    1
    97    30    32   ar
    98   105   106    1
    99   105   108    1
   100   113   112    2
   101    31    32   ar
   102   107   106    2
   103   108   109    1
   104   112   111    1
   105     2     1    1
   106     2     5    1
   107     5     6    1
   108   111   114    1
   109   111   110    1
   110   114   115    1
   111     6     8   ar
   112     6     7   ar
   113     8    10   ar
   114     7     9   ar
   115   115   116   ar
   116   115   117   ar
   117   116   118   ar
   118    10    11   ar
   119     9    11   ar
   120   117   119   ar
   121    11    12    1
   122   118   120   ar
   123   119   120   ar
