@<TRIPOS>MOLECULE
tmp/3kjfA00.pdb
 76 71 0 0 0
SMALL
GASTEIGER

@<TRIPOS>ATOM
      1  N         23.7680    1.1150   18.0880 N.3    29  THR29      -0.1218
      2  CA        25.0550    0.9060   17.4330 C.3    29  THR29       0.1862
      3  C         25.0850    1.6920   16.1210 C.2    29  THR29       0.2287
      4  O         24.0430    1.9920   15.5550 O.2    29  THR29      -0.2866
      5  CB        25.3150   -0.6030   17.1690 C.3    29  THR29       0.1770
      6  OG1       24.4230   -1.0670   16.1550 O.3    29  THR29      -0.2211
      7  CG2       25.0880   -1.4240   18.4310 C.3    29  THR29       0.0375
      8  N         25.2890    2.8060   12.2550 N.3    31  ARG31      -0.1231
      9  CA        24.5780    2.2460   11.0940 C.3    31  ARG31       0.1694
     10  C         25.4500    2.2570    9.8320 C.2    31  ARG31       0.2592
     11  O         25.1730    2.9520    8.8500 O.2    31  ARG31      -0.2718
     12  CB        23.2280    2.9580   10.8530 C.3    31  ARG31       0.0321
     13  CG        22.2040    2.7670   11.9820 C.3    31  ARG31       0.0489
     14  CD        20.8050    3.3480   11.6590 C.3    31  ARG31       0.2205
     15  NE        20.2910    2.7930   10.4000 N.pl3  31  ARG31      -0.0865
     16  CZ        20.3380    3.3920    9.2110 C.cat  31  ARG31       0.5346
     17  NH1       20.8270    4.6200    9.0750 N.pl3  31  ARG31       0.1354
     18  NH2       19.8750    2.7540    8.1390 N.pl3  31  ARG31       0.1354
     19  N         26.5000    1.4430    9.8790 N.am   32  SER32      -0.1952
     20  CA        27.4530    1.3120    8.7930 C.3    32  SER32       0.1924
     21  C         26.7640    0.8980    7.4780 C.2    32  SER32       0.2314
     22  O         25.9470   -0.0350    7.4490 O.2    32  SER32      -0.2863
     23  CB        28.5240    0.2840    9.1950 C.3    32  SER32       0.2116
     24  OG        29.6260    0.3460    8.3230 O.3    32  SER32      -0.2180
     25  N         17.4210    5.4440    9.5530 N.3    87  SER87      -0.1202
     26  CA        17.7830    5.3720   10.9630 C.3    87  SER87       0.2020
     27  C         17.3460    4.0600   11.6000 C.2    87  SER87       0.2619
     28  O         16.7910    3.1720   10.9400 O.2    87  SER87      -0.2717
     29  CB        17.1350    6.5290   11.7340 C.3    87  SER87       0.2103
     30  OG        17.7050    6.6640   13.0260 O.3    87  SER87      -0.2182
     31  N         17.5720    3.9700   12.9050 N.am   88  HIS88      -0.1961
     32  CA        16.9340    2.9600   13.7140 C.3    88  HIS88       0.1787
     33  C         15.4660    3.3250   13.8640 C.2    88  HIS88       0.2620
     34  O         15.0840    4.4960   13.7420 O.2    88  HIS88      -0.2715
     35  CB        17.6020    2.8410   15.0860 C.3    88  HIS88       0.0785
     36  CG        18.9760    2.2530   15.0320 C.ar   88  HIS88       0.0821
     37  ND1       19.2110    0.9440   14.6750 N.ar   88  HIS88      -0.2267
     38  CD2       20.1900    2.8020   15.2710 C.ar   88  HIS88       0.1154
     39  CE1       20.5100    0.7060   14.7110 C.ar   88  HIS88       0.1986
     40  NE2       21.1280    1.8170   15.0710 N.ar   88  HIS88      -0.2212
     41  N         14.6470    2.3110   14.1080 N.am   89  GLY89      -0.1954
     42  CA        13.2220    2.5240   14.2900 C.3    89  GLY89       0.1869
     43  C         12.5210    1.3970   14.9990 C.2    89  GLY89       0.2309
     44  O         13.1070    0.3390   15.2620 O.2    89  GLY89      -0.2863
     45  N         13.6240    3.5930    5.8100 N.3   128  GLN128     -0.1231
     46  CA        14.5060    2.4580    6.0830 C.3   128  GLN128      0.1698
     47  C         14.7720    2.4870    7.5800 C.2   128  GLN128      0.2592
     48  O         15.5380    3.3120    8.0600 O.2   128  GLN128     -0.2718
     49  CB        15.8040    2.5810    5.3160 C.3   128  GLN128      0.0381
     50  CG        16.8670    1.5410    5.6880 C.3   128  GLN128      0.0905
     51  CD        16.3550    0.1140    5.6480 C.2   128  GLN128      0.2608
     52  OE1       15.6950   -0.2860    4.6940 O.2   128  GLN128     -0.2717
     53  NE2       16.6830   -0.6670    6.6760 N.am  128  GLN128     -0.0878
     54  N         14.1110    1.5830    8.2910 N.am  129  ALA129     -0.1966
     55  CA        14.1880    1.4720    9.7340 C.3   129  ALA129      0.1728
     56  C         13.4300    0.2080   10.1020 C.2   129  ALA129      0.2616
     57  O         12.5750   -0.2490    9.3280 O.2   129  ALA129     -0.2715
     58  CB        13.5500    2.6930   10.4110 C.3   129  ALA129      0.0334
     59  N         13.7410   -0.3670   11.2640 N.am  130  CYS130     -0.1968
     60  CA        12.9660   -1.4880   11.7890 C.3   130  CYS130      0.1712
     61  C         11.5630   -1.0250   12.1680 C.2   130  CYS130      0.2296
     62  O         11.3450    0.1630   12.4120 O.2   130  CYS130     -0.2864
     63  CB        13.6430   -2.0900   13.0260 C.3   130  CYS130      0.0983
     64  SG        15.1700   -2.9870   12.6690 S.3   130  CYS130     -0.0798
     65  N          9.8560   -3.1250   14.5350 N.3   132  GLY132     -0.1225
     66  CA         9.6580   -4.0410   15.6470 C.3   132  GLY132      0.1811
     67  C         10.8130   -5.0170   15.6800 C.2   132  GLY132      0.2280
     68  O         11.8680   -4.7560   15.0910 O.2   132  GLY132     -0.2866
     69  N         11.1260  -11.7070   13.5170 N.3   135  LEU135     -0.1245
     70  CA        12.1210  -12.3150   12.6280 C.3   135  LEU135      0.1561
     71  C         11.4480  -13.2120   11.5820 C.2   135  LEU135      0.2260
     72  O         10.7270  -14.1560   11.9390 O.2   135  LEU135     -0.2867
     73  CB        13.0950  -13.1640   13.4590 C.3   135  LEU135      0.0270
     74  CG        14.0360  -12.4160   14.4080 C.3   135  LEU135      0.0019
     75  CD1       14.4810  -13.3180   15.5620 C.3   135  LEU135      0.0001
     76  CD2       15.2420  -11.8540   13.6480 C.3   135  LEU135      0.0001
@<TRIPOS>BOND
     1    52    51    2
     2    49    50    1
     3    49    46    1
     4    51    50    1
     5    51    53   am
     6    45    46    1
     7    46    47    1
     8    22    21    2
     9    21    20    1
    10    47    48    2
    11    47    54   am
    12    18    16    1
    13    54    55    1
    14    24    23    1
    15    20    23    1
    16    20    19    1
    17    11    10    2
    18    17    16    1
    19    16    15    2
    20    57    56    2
    21    25    26    1
    22    55    56    1
    23    55    58    1
    24    10    19   am
    25    10     9    1
    26    56    59   am
    27    15    14    1
    28    12     9    1
    29    12    13    1
    30    28    27    2
    31    26    27    1
    32    26    29    1
    33     9     8    1
    34    59    60    1
    35    71    72    2
    36    71    70    1
    37    27    31   am
    38    14    13    1
    39    29    30    1
    40    60    61    1
    41    60    63    1
    42    61    62    2
    43    70    73    1
    44    70    69    1
    45    64    63    1
    46    31    32    1
    47    73    74    1
    48    76    74    1
    49    32    33    1
    50    32    35    1
    51    34    33    2
    52    33    41   am
    53    41    42    1
    54    42    43    1
    55    74    75    1
    56    65    66    1
    57    37    39   ar
    58    37    36   ar
    59    39    40   ar
    60    43    44    2
    61    36    35    1
    62    36    38   ar
    63    40    38   ar
    64    68    67    2
    65     4     3    2
    66    66    67    1
    67     3     2    1
    68     6     5    1
    69     5     2    1
    70     5     7    1
    71     2     1    1
