@<TRIPOS>MOLECULE
tmp/3kjiB00.pdb
 165 159 0 0 0
SMALL
GASTEIGER

@<TRIPOS>ATOM
      1  N          0.8150    4.0880   18.1810 N.3     8  LYS8       -0.1231
      2  CA         2.0770    4.0100   17.4470 C.3     8  LYS8        0.1693
      3  C          3.0870    3.4950   18.4800 C.2     8  LYS8        0.2593
      4  O          2.8270    3.5570   19.6800 O.2     8  LYS8       -0.2718
      5  CB         2.4590    5.4030   16.9330 C.3     8  LYS8        0.0285
      6  CG         3.8530    5.5370   16.2990 C.3     8  LYS8        0.0035
      7  CD         3.8310    5.5670   14.7610 C.3     8  LYS8        0.0206
      8  CE         3.0740    6.7720   14.1960 C.3     8  LYS8        0.1093
      9  NZ         2.9980    6.7250   12.7040 N.3     8  LYS8       -0.1314
     10  N          4.2250    2.9790   18.0410 N.am    9  GLY9       -0.1942
     11  CA         5.1940    2.4930   19.0040 C.3     9  GLY9        0.2014
     12  C          5.7110    3.6550   19.8310 C.2     9  GLY9        0.2639
     13  O          5.8990    4.7520   19.3040 O.2     9  GLY9       -0.2714
     14  N          5.9290    3.4310   21.1230 N.am   10  GLY10      -0.1939
     15  CA         6.4440    4.4900   21.9690 C.3    10  GLY10       0.2014
     16  C          5.4450    5.3090   22.7700 C.2    10  GLY10       0.2639
     17  O          5.8410    5.9170   23.7610 O.2    10  GLY10      -0.2714
     18  N          4.1700    5.3430   22.3660 N.am   11  VAL11      -0.1963
     19  CA         3.1700    6.1270   23.1010 C.3    11  VAL11       0.1727
     20  C          2.8700    5.5870   24.4940 C.2    11  VAL11       0.2617
     21  O          2.4320    6.3330   25.3750 O.2    11  VAL11      -0.2715
     22  CB         1.8130    6.2160   22.3520 C.3    11  VAL11       0.0290
     23  CG1        2.0250    6.7890   20.9910 C.3    11  VAL11       0.0023
     24  CG2        1.1420    4.8390   22.2800 C.3    11  VAL11       0.0023
     25  N          3.1060    4.2940   24.6930 N.am   12  GLY12      -0.1940
     26  CA         2.8170    3.6840   25.9760 C.3    12  GLY12       0.2014
     27  C          1.5460    2.8650   25.8550 C.2    12  GLY12       0.2639
     28  O          0.7670    2.7440   26.8020 O.2    12  GLY12      -0.2714
     29  N          1.3460    2.3150   24.6630 N.am   13  LYS13      -0.1963
     30  CA         0.1860    1.4850   24.3340 C.3    13  LYS13       0.1728
     31  C          0.1290    0.2080   25.1580 C.2    13  LYS13       0.2617
     32  O         -0.9120   -0.1310   25.7080 O.2    13  LYS13      -0.2715
     33  CB         0.2180    1.1040   22.8460 C.3    13  LYS13       0.0311
     34  CG        -0.6270   -0.1110   22.5150 C.3    13  LYS13       0.0038
     35  CD        -0.1810   -0.7870   21.2330 C.3    13  LYS13       0.0206
     36  CE         0.8550   -1.8800   21.4580 C.3    13  LYS13       0.1093
     37  NZ         2.1910   -1.3530   21.7970 N.3    13  LYS13      -0.1314
     38  N          1.2390   -0.5120   25.2300 N.am   14  THR14      -0.1937
     39  CA         1.2680   -1.7600   25.9930 C.3    14  THR14       0.2028
     40  C          1.1900   -1.4650   27.4760 C.2    14  THR14       0.2642
     41  O          0.5850   -2.2200   28.2310 O.2    14  THR14      -0.2714
     42  CB         2.5470   -2.5820   25.6950 C.3    14  THR14       0.1808
     43  OG1        2.5100   -3.0310   24.3350 O.3    14  THR14      -0.2208
     44  CG2        2.6480   -3.8000   26.6230 C.3    14  THR14       0.0379
     45  N          1.7940   -0.3540   27.8880 N.am   15  THR15      -0.1950
     46  CA         1.7690    0.0470   29.2870 C.3    15  THR15       0.1897
     47  C          0.3210    0.2800   29.7000 C.2    15  THR15       0.2313
     48  O         -0.0990   -0.1370   30.7720 O.2    15  THR15      -0.2863
     49  CB         2.5940    1.3420   29.5130 C.3    15  THR15       0.1794
     50  OG1        3.9540    1.1110   29.1220 O.3    15  THR15      -0.2208
     51  CG2        2.5680    1.7550   30.9820 C.3    15  THR15       0.0378
     52  N          1.5960   -6.8550   19.2400 N.3    37  ASP37      -0.1239
     53  CA         2.6380   -5.9320   18.8000 C.3    37  ASP37       0.1674
     54  C          4.0010   -6.5030   19.1880 C.2    37  ASP37       0.2266
     55  O          4.4200   -6.4190   20.3460 O.2    37  ASP37      -0.2867
     56  CB         2.4400   -4.5570   19.4470 C.3    37  ASP37       0.1410
     57  CG         3.5860   -3.5990   19.1520 C.2    37  ASP37       0.3668
     58  OD1        3.5700   -2.4680   19.6860 O.co2  37  ASP37      -0.2456
     59  OD2        4.5050   -3.9710   18.3880 O.co2  37  ASP37      -0.2456
     60  N          6.8170   -5.3830   18.7690 N.3    39  ASP39      -0.1225
     61  CA         7.7690   -4.3630   19.2150 C.3    39  ASP39       0.1805
     62  C          7.6700   -3.9850   20.6920 C.2    39  ASP39       0.2598
     63  O          8.4750   -3.1980   21.1900 O.2    39  ASP39      -0.2718
     64  CB         7.6530   -3.0910   18.3670 C.3    39  ASP39       0.1424
     65  CG         8.2120   -3.2640   16.9620 C.2    39  ASP39       0.3668
     66  OD1        9.0590   -4.1650   16.7360 O.co2  39  ASP39      -0.2456
     67  OD2        7.8080   -2.4720   16.0850 O.co2  39  ASP39      -0.2456
     68  N          6.6770   -4.5370   21.3810 N.am   40  SER40      -0.1952
     69  CA         6.4760   -4.2960   22.8060 C.3    40  SER40       0.1924
     70  C          6.0930   -5.6290   23.4290 C.2    40  SER40       0.2314
     71  O          5.2990   -6.3730   22.8560 O.2    40  SER40      -0.2863
     72  CB         5.3510   -3.2810   23.0410 C.3    40  SER40       0.2116
     73  OG         5.7280   -1.9730   22.6410 O.3    40  SER40      -0.2180
     74  N          5.6060   -6.4260   30.5860 N.3    45  THR45      -0.1218
     75  CA         5.0450   -5.2440   31.2210 C.3    45  THR45       0.1862
     76  C          4.0310   -5.6910   32.2700 C.2    45  THR45       0.2287
     77  O          3.8210   -5.0170   33.2730 O.2    45  THR45      -0.2866
     78  CB         4.4100   -4.2800   30.1860 C.3    45  THR45       0.1770
     79  OG1        3.2570   -4.8780   29.5970 O.3    45  THR45      -0.2211
     80  CG2        5.4050   -3.9730   29.0900 C.3    45  THR45       0.0375
     81  N         -1.6450    9.8590   27.1760 N.3   191  ASN191     -0.1225
     82  CA        -0.5770    9.3970   28.0270 C.3   191  ASN191      0.1785
     83  C          0.6260   10.3270   28.0080 C.2   191  ASN191      0.2597
     84  O          0.8330   11.0670   27.0530 O.2   191  ASN191     -0.2718
     85  CB        -0.1620    8.0000   27.5660 C.3   191  ASN191      0.1169
     86  CG         0.7540    7.3190   28.5390 C.2   191  ASN191      0.2627
     87  OD1        1.5920    6.5020   28.1480 O.2   191  ASN191     -0.2716
     88  ND2        0.5970    7.6330   29.8200 N.am  191  ASN191     -0.0877
     89  N          1.4170   10.2730   29.0740 N.am  192  LYS192     -0.1980
     90  CA         2.6220   11.0770   29.1980 C.3   192  LYS192      0.1596
     91  C          2.3920   12.5920   29.1850 C.2   192  LYS192      0.2287
     92  O          3.1780   13.3340   28.5990 O.2   192  LYS192     -0.2864
     93  CB         3.6260   10.6990   28.0930 C.3   192  LYS192      0.0298
     94  CG         3.9210    9.1990   27.9810 C.3   192  LYS192      0.0038
     95  CD         5.1740    8.9210   27.1440 C.3   192  LYS192      0.0206
     96  CE         5.4850    7.4280   27.0760 C.3   192  LYS192      0.1093
     97  NZ         6.7920    7.1060   26.4120 N.3   192  LYS192     -0.1314
     98  N         -3.2810   10.1830   31.7140 N.3   215  ILE215     -0.1231
     99  CA        -2.2640    9.5520   32.5250 C.3   215  ILE215      0.1678
    100  C         -1.0650   10.4620   32.3440 C.2   215  ILE215      0.2434
    101  O         -0.5480   10.6260   31.2340 O.2   215  ILE215     -0.2733
    102  CB        -1.9080    8.1510   32.0320 C.3   215  ILE215      0.0265
    103  CG1       -3.1630    7.2760   31.9890 C.3   215  ILE215      0.0019
    104  CG2       -0.8780    7.5400   32.9740 C.3   215  ILE215      0.0020
    105  CD1       -2.9130    5.8770   31.4570 C.3   215  ILE215      0.0001
    106  N         -0.6190   11.0850   33.4340 N.am  216  PRO216     -0.2718
    107  CA         0.5250   11.9860   33.3360 C.3   216  PRO216      0.1535
    108  C          1.8740   11.3110   33.2040 C.2   216  PRO216      0.2599
    109  O          2.0400   10.1290   33.4980 O.2   216  PRO216     -0.2715
    110  CB         0.3910   12.8420   34.5920 C.3   216  PRO216      0.0310
    111  CG        -0.2240   11.8980   35.5700 C.3   216  PRO216      0.0237
    112  CD        -1.2460   11.1470   34.7650 C.3   216  PRO216      0.0939
    113  N          2.8350   12.0760   32.7180 N.am  217  TYR217     -0.1960
    114  CA         4.1790   11.5710   32.5450 C.3   217  TYR217      0.1771
    115  C          4.7650   11.2620   33.9190 C.2   217  TYR217      0.2619
    116  O          4.6430   12.0680   34.8340 O.2   217  TYR217     -0.2715
    117  CB         5.0380   12.6250   31.8490 C.3   217  TYR217      0.0574
    118  CG         6.4650   12.1870   31.6660 C.ar  217  TYR217     -0.0198
    119  CD1        6.8080   11.2830   30.6580 C.ar  217  TYR217     -0.0009
    120  CD2        7.4610   12.6050   32.5500 C.ar  217  TYR217     -0.0009
    121  CE1        8.1090   10.8080   30.5290 C.ar  217  TYR217      0.0417
    122  CE2        8.7670   12.1320   32.4320 C.ar  217  TYR217      0.0417
    123  CZ         9.0810   11.2310   31.4210 C.ar  217  TYR217      0.1957
    124  OH        10.3620   10.7570   31.2870 O.3   217  TYR217     -0.2866
    125  N          5.3870   10.0970   34.0720 N.am  218  ASN218     -0.1972
    126  CA         6.0040    9.7460   35.3470 C.3   218  ASN218      0.1688
    127  C          7.2860    8.9610   35.1110 C.2   218  ASN218      0.2292
    128  O          7.2650    7.8710   34.5270 O.2   218  ASN218     -0.2864
    129  CB         5.0500    8.9240   36.2170 C.3   218  ASN218      0.1181
    130  CG         5.4860    8.8790   37.6760 C.2   218  ASN218      0.2629
    131  OD1        6.6320    8.5510   37.9850 O.2   218  ASN218     -0.2716
    132  ND2        4.5690    9.2120   38.5790 N.am  218  ASN218     -0.0877
    133  N          7.5560    4.8570   35.5610 N.3   221  PHE221     -0.1227
    134  CA         7.3600    3.8330   34.5310 C.3   221  PHE221      0.1736
    135  C          8.6560    3.4510   33.8450 C.2   221  PHE221      0.2595
    136  O          8.8690    2.2910   33.4790 O.2   221  PHE221     -0.2718
    137  CB         6.3910    4.3110   33.4430 C.3   221  PHE221      0.0547
    138  CG         5.0050    4.5250   33.9220 C.ar  221  PHE221     -0.0202
    139  CD1        4.6130    5.7640   34.4190 C.ar  221  PHE221     -0.0042
    140  CD2        4.0860    3.4840   33.8980 C.ar  221  PHE221     -0.0042
    141  CE1        3.3210    5.9670   34.8880 C.ar  221  PHE221     -0.0003
    142  CE2        2.7870    3.6730   34.3670 C.ar  221  PHE221     -0.0003
    143  CZ         2.4050    4.9180   34.8620 C.ar  221  PHE221     -0.0000
    144  N          9.5180    4.4410   33.6570 N.am  222  ILE222     -0.1980
    145  CA        10.7770    4.2090   32.9880 C.3   222  ILE222      0.1595
    146  C         11.7620    3.4040   33.8120 C.2   222  ILE222      0.2287
    147  O         12.3190    2.4220   33.3160 O.2   222  ILE222     -0.2864
    148  CB        11.4200    5.5330   32.5640 C.3   222  ILE222      0.0276
    149  CG1       10.4780    6.2610   31.6050 C.3   222  ILE222      0.0022
    150  CG2       12.7610    5.2700   31.8940 C.3   222  ILE222      0.0022
    151  CD1       11.0140    7.5800   31.1000 C.3   222  ILE222      0.0001
    152  N         10.4110   -0.1550   34.7130 N.3   225  SER225     -0.1217
    153  CA        10.4600   -0.8760   33.4540 C.3   225  SER225      0.1889
    154  C         11.8450   -1.4400   33.1320 C.2   225  SER225      0.2288
    155  O         12.0060   -2.6440   32.9600 O.2   225  SER225     -0.2866
    156  CB        10.0000    0.0550   32.3270 C.3   225  SER225      0.2089
    157  OG        10.2010   -0.5190   31.0520 O.3   225  SER225     -0.2183
    158  N          5.4010   -2.6380   36.8690 N.3   231  ILE231     -0.1245
    159  CA         5.0270   -1.2270   36.8140 C.3   231  ILE231      0.1561
    160  C          3.7480   -0.7720   37.5230 C.2   231  ILE231      0.2260
    161  O          3.7610    0.2380   38.2280 O.2   231  ILE231     -0.2867
    162  CB         4.9730   -0.7410   35.3400 C.3   231  ILE231      0.0252
    163  CG1        3.8630   -1.4650   34.5780 C.3   231  ILE231      0.0019
    164  CG2        6.3070   -1.0210   34.6540 C.3   231  ILE231      0.0019
    165  CD1        3.6970   -0.9940   33.1500 C.3   231  ILE231      0.0001
@<TRIPOS>BOND
     1     9     8    1
     2     8     7    1
     3     7     6    1
     4    67    65   ar
     5     6     5    1
     6    66    65   ar
     7     5     2    1
     8    65    64    1
     9     2     1    1
    10     2     3    1
    11    10     3   am
    12    10    11    1
    13    64    61    1
    14    59    57   ar
    15     3     4    2
    16    60    61    1
    17    53    54    1
    18    53    52    1
    19    53    56    1
    20    11    12    1
    21    57    56    1
    22    57    58   ar
    23    54    55    2
    24    61    62    1
    25    13    12    2
    26    12    14   am
    27    62    63    2
    28    62    68   am
    29    23    22    1
    30    14    15    1
    31    35    36    1
    32    35    34    1
    33    68    69    1
    34    36    37    1
    35    15    16    1
    36    24    22    1
    37    22    19    1
    38    18    16   am
    39    18    19    1
    40    34    33    1
    41    73    72    1
    42    16    17    2
    43    69    72    1
    44    69    70    1
    45    33    30    1
    46    71    70    2
    47    19    20    1
    48    30    29    1
    49    30    31    1
    50    43    42    1
    51    20    25   am
    52    20    21    2
    53    29    27   am
    54    25    26    1
    55    31    38   am
    56    31    32    2
    57    38    39    1
    58    42    39    1
    59    42    44    1
    60    27    26    1
    61    27    28    2
    62    39    40    1
    63    97    96    1
    64    84    83    2
    65    96    95    1
    66    95    94    1
    67    81    82    1
    68    40    45   am
    69    40    41    2
    70    85    82    1
    71    85    86    1
    72    45    46    1
    73    94    93    1
    74    83    82    1
    75    83    89   am
    76    93    90    1
    77    87    86    2
    78    86    88   am
    79    92    91    2
    80    89    90    1
    81    80    78    1
    82    50    49    1
    83    91    90    1
    84    46    49    1
    85    46    47    1
    86    49    51    1
    87    79    78    1
    88    47    48    2
    89    78    75    1
    90   121   119   ar
    91   121   123   ar
    92    74    75    1
    93   119   118   ar
    94   157   156    1
    95   151   149    1
    96    75    76    1
    97   101   100    2
    98   124   123    1
    99   123   122   ar
   100   105   103    1
   101   149   148    1
   102   118   117    1
   103   118   120   ar
   104    98    99    1
   105   117   114    1
   106   150   148    1
   107   103   102    1
   108   102    99    1
   109   102   104    1
   110    76    77    2
   111   156   153    1
   112   100    99    1
   113   100   106   am
   114   122   120   ar
   115   114   113    1
   116   114   115    1
   117   148   145    1
   118   113   108   am
   119   155   154    2
   120   145   144    1
   121   145   146    1
   122   154   153    1
   123   165   163    1
   124   108   107    1
   125   108   109    2
   126   147   146    2
   127   107   106    1
   128   107   110    1
   129   106   112    1
   130   137   138    1
   131   137   134    1
   132   153   152    1
   133   136   135    2
   134   144   135   am
   135   135   134    1
   136   140   138   ar
   137   140   142   ar
   138   115   125   am
   139   115   116    2
   140   138   139   ar
   141   125   126    1
   142   142   143   ar
   143   139   141   ar
   144   128   127    2
   145   134   133    1
   146   163   162    1
   147   110   111    1
   148   164   162    1
   149   112   111    1
   150   143   141   ar
   151   127   126    1
   152   162   159    1
   153   126   129    1
   154   129   130    1
   155   159   158    1
   156   159   160    1
   157   160   161    2
   158   130   131    2
   159   130   132   am
