@<TRIPOS>MOLECULE
tmp/3kjnA00.pdb
 86 82 0 0 0
SMALL
GASTEIGER

@<TRIPOS>ATOM
      1  N         -8.6830   43.1450   41.1900 N.3    36  ARG36      -0.1245
      2  CA        -7.5420   42.8880   42.0730 C.3    36  ARG36       0.1563
      3  C         -6.2390   42.5910   41.3230 C.2    36  ARG36       0.2260
      4  O         -6.2620   42.0690   40.2100 O.2    36  ARG36      -0.2867
      5  CB        -7.8710   41.7170   43.0040 C.3    36  ARG36       0.0307
      6  CG        -9.0200   41.9430   43.9600 C.3    36  ARG36       0.0489
      7  CD        -9.3030   40.6980   44.7970 C.3    36  ARG36       0.2205
      8  NE        -9.6360   39.5170   44.0210 N.pl3  36  ARG36      -0.0865
      9  CZ       -10.6300   39.3870   43.1530 C.cat  36  ARG36       0.5346
     10  NH1      -11.4760   40.3910   42.9370 N.pl3  36  ARG36       0.1354
     11  NH2      -10.7770   38.2660   42.4620 N.pl3  36  ARG36       0.1354
     12  N         -3.1450   40.3280   40.4940 N.3    38  ARG38      -0.1245
     13  CA        -3.2010   38.8700   40.3300 C.3    38  ARG38       0.1563
     14  C         -2.0270   38.1820   41.0330 C.2    38  ARG38       0.2260
     15  O         -1.1700   37.5470   40.3990 O.2    38  ARG38      -0.2867
     16  CB        -3.2750   38.5030   38.8490 C.3    38  ARG38       0.0307
     17  CG        -4.5750   38.9980   38.1860 C.3    38  ARG38       0.0489
     18  CD        -4.7620   38.5060   36.7510 C.3    38  ARG38       0.2205
     19  NE        -4.7780   37.0440   36.6840 N.pl3  38  ARG38      -0.0865
     20  CZ        -3.7290   36.2790   36.3610 C.cat  38  ARG38       0.5346
     21  NH1       -2.5780   36.8030   35.9730 N.pl3  38  ARG38       0.1354
     22  NH2       -3.8510   34.9650   36.3810 N.pl3  38  ARG38       0.1354
     23  N         -4.2720   36.5270   32.7880 N.3    94  SER94      -0.1202
     24  CA        -4.8900   37.8130   33.1050 C.3    94  SER94       0.2020
     25  C         -6.2850   37.6510   33.6900 C.2    94  SER94       0.2619
     26  O         -6.7870   36.5400   33.8440 O.2    94  SER94      -0.2717
     27  CB        -4.9660   38.6780   31.8350 C.3    94  SER94       0.2103
     28  OG        -5.1640   40.0470   32.1440 O.3    94  SER94      -0.2182
     29  N         -6.9020   38.7780   34.0190 N.am   95  HIS95      -0.1961
     30  CA        -8.3310   38.8110   34.2630 C.3    95  HIS95       0.1787
     31  C         -9.0630   38.7320   32.9250 C.2    95  HIS95       0.2620
     32  O         -8.4920   39.0180   31.8650 O.2    95  HIS95      -0.2715
     33  CB        -8.7430   40.0870   34.9920 C.3    95  HIS95       0.0785
     34  CG        -8.3360   40.1270   36.4290 C.ar   95  HIS95       0.0821
     35  ND1       -8.7550   39.1890   37.3480 N.ar   95  HIS95      -0.2267
     36  CD2       -7.5710   41.0110   37.1120 C.ar   95  HIS95       0.1154
     37  CE1       -8.2590   39.4930   38.5360 C.ar   95  HIS95       0.1986
     38  NE2       -7.5330   40.5910   38.4180 N.ar   95  HIS95      -0.2212
     39  N        -10.3330   38.3550   32.9850 N.am   96  GLY96      -0.1954
     40  CA       -11.1780   38.3420   31.8020 C.3    96  GLY96       0.1869
     41  C        -12.6580   38.3470   32.1210 C.2    96  GLY96       0.2309
     42  O        -13.0660   38.4250   33.2830 O.2    96  GLY96      -0.2863
     43  N         -5.5990   31.6740   30.6150 N.3   136  GLN136     -0.1231
     44  CA        -5.9370   31.6190   32.0220 C.3   136  GLN136      0.1698
     45  C         -6.5420   32.9720   32.4160 C.2   136  GLN136      0.2592
     46  O         -5.8330   33.9730   32.5700 O.2   136  GLN136     -0.2718
     47  CB        -4.6970   31.2840   32.8680 C.3   136  GLN136      0.0381
     48  CG        -4.8670   31.4680   34.3840 C.3   136  GLN136      0.0905
     49  CD        -6.1230   30.8070   34.9330 C.2   136  GLN136      0.2608
     50  OE1       -6.4000   29.6400   34.6560 O.2   136  GLN136     -0.2717
     51  NE2       -6.8900   31.5580   35.7070 N.am  136  GLN136     -0.0878
     52  N         -7.8660   32.9680   32.5390 N.am  137  ALA137     -0.1966
     53  CA        -8.6630   34.1300   32.9040 C.3   137  ALA137      0.1728
     54  C        -10.0690   33.6530   33.2380 C.2   137  ALA137      0.2616
     55  O        -10.4670   32.5650   32.8100 O.2   137  ALA137     -0.2715
     56  CB        -8.7150   35.1220   31.7440 C.3   137  ALA137      0.0334
     57  N        -10.8220   34.4530   33.9920 N.am  138  CYS138     -0.1968
     58  CA       -12.2700   34.2340   34.0970 C.3   138  CYS138      0.1712
     59  C        -12.9100   34.5210   32.7340 C.2   138  CYS138      0.2296
     60  O        -12.3530   35.2520   31.9130 O.2   138  CYS138     -0.2864
     61  CB       -12.9330   35.1550   35.1210 C.3   138  CYS138      0.0983
     62  SG       -12.4980   34.9280   36.8660 S.3   138  CYS138     -0.0798
     63  N        -16.3530   35.3360   32.9370 N.3   140  GLY140     -0.1210
     64  CA       -17.6110   35.7570   33.5380 C.3   140  GLY140      0.1956
     65  C        -17.4980   35.7100   35.0460 C.2   140  GLY140      0.2611
     66  O        -16.4560   35.3140   35.5810 O.2   140  GLY140     -0.2717
     67  N        -18.5670   36.0980   35.7320 N.am  141  ASP141     -0.1973
     68  CA       -18.5400   36.2120   37.1940 C.3   141  ASP141      0.1709
     69  C        -19.3200   35.1210   37.9270 C.2   141  ASP141      0.2293
     70  O        -19.4660   35.1910   39.1440 O.2   141  ASP141     -0.2864
     71  CB       -19.0180   37.6120   37.6340 C.3   141  ASP141      0.1436
     72  CG       -20.5240   37.8420   37.4210 C.2   141  ASP141      0.3671
     73  OD1      -21.1960   37.0520   36.7200 O.co2 141  ASP141     -0.2456
     74  OD2      -21.0390   38.8490   37.9580 O.co2 141  ASP141     -0.2456
     75  N        -20.0590   31.4550   39.5690 N.3   143  TYR143     -0.1241
     76  CA       -19.4080   30.3060   40.1780 C.3   143  TYR143      0.1605
     77  C        -20.0650   29.0610   39.5990 C.2   143  TYR143      0.2264
     78  O        -21.2440   28.8160   39.8440 O.2   143  TYR143     -0.2867
     79  CB       -19.5860   30.3160   41.7040 C.3   143  TYR143      0.0534
     80  CG       -18.9350   31.5000   42.3890 C.ar  143  TYR143     -0.0201
     81  CD1      -17.5580   31.6620   42.3660 C.ar  143  TYR143     -0.0009
     82  CD2      -19.6980   32.4500   43.0690 C.ar  143  TYR143     -0.0009
     83  CE1      -16.9500   32.7410   42.9850 C.ar  143  TYR143      0.0417
     84  CE2      -19.0970   33.5370   43.6950 C.ar  143  TYR143      0.0417
     85  CZ       -17.7190   33.6770   43.6430 C.ar  143  TYR143      0.1957
     86  OH       -17.1040   34.7460   44.2560 O.3   143  TYR143     -0.2866
@<TRIPOS>BOND
     1    43    44    1
     2    56    53    1
     3    40    41    1
     4    40    39    1
     5    27    28    1
     6    27    24    1
     7    32    31    2
     8    60    59    2
     9    44    45    1
    10    44    47    1
    11    41    42    2
    12    45    52   am
    13    45    46    2
    14    52    53    1
    15    59    58    1
    16    23    24    1
    17    55    54    2
    18    47    48    1
    19    53    54    1
    20    31    39   am
    21    31    30    1
    22    63    64    1
    23    24    25    1
    24    54    57   am
    25    64    65    1
    26    25    26    2
    27    25    29   am
    28    57    58    1
    29    29    30    1
    30    58    61    1
    31    30    33    1
    32    48    49    1
    33    50    49    2
    34    49    51   am
    35    33    34    1
    36    65    66    2
    37    65    67   am
    38    61    62    1
    39    67    68    1
    40    21    20    1
    41    20    22    1
    42    20    19    2
    43    34    36   ar
    44    34    35   ar
    45    19    18    1
    46    73    72   ar
    47    18    17    1
    48    36    38   ar
    49    68    71    1
    50    68    69    1
    51    35    37   ar
    52    72    71    1
    53    72    74   ar
    54    69    70    2
    55    17    16    1
    56    38    37   ar
    57    16    13    1
    58    75    76    1
    59    77    78    2
    60    77    76    1
    61    76    79    1
    62     4     3    2
    63    13    12    1
    64    13    14    1
    65    15    14    2
    66     1     2    1
    67     3     2    1
    68    79    80    1
    69     2     5    1
    70    81    80   ar
    71    81    83   ar
    72    80    82   ar
    73    11     9    1
    74    10     9    1
    75    83    85   ar
    76     5     6    1
    77    82    84   ar
    78     9     8    2
    79    85    84   ar
    80    85    86    1
    81     6     7    1
    82     8     7    1
