@<TRIPOS>MOLECULE
tmp/3kjnB01.pdb
 88 88 0 0 0
SMALL
GASTEIGER

@<TRIPOS>ATOM
      1  N        -16.0640   31.7290   36.3700 N.3    21  VAL21      -0.1231
      2  CA       -14.7870   32.1000   36.9490 C.3    21  VAL21       0.1692
      3  C        -13.7580   30.9600   36.8480 C.2    21  VAL21       0.2593
      4  O        -14.1160   29.7820   36.7500 O.2    21  VAL21      -0.2718
      5  CB       -14.9540   32.5250   38.4470 C.3    21  VAL21       0.0266
      6  CG1      -15.9800   33.6400   38.5810 C.3    21  VAL21       0.0020
      7  CG2      -15.3520   31.3370   39.3210 C.3    21  VAL21       0.0020
      8  N        -12.4810   31.3300   36.8280 N.am   22  SER22      -0.1938
      9  CA       -11.3980   30.3900   37.0680 C.3    22  SER22       0.2055
     10  C        -10.6000   30.8820   38.2630 C.2    22  SER22       0.2643
     11  O        -10.6580   32.0730   38.6180 O.2    22  SER22      -0.2714
     12  CB       -10.4980   30.2630   35.8400 C.3    22  SER22       0.2130
     13  OG        -9.8120   31.4720   35.5920 O.3    22  SER22      -0.2179
     14  N         -9.8400   29.9710   38.8630 N.am   23  TYR23      -0.1959
     15  CA        -9.2200   30.2110   40.1630 C.3    23  TYR23       0.1771
     16  C         -7.6990   30.3160   40.1460 C.2    23  TYR23       0.2619
     17  O         -7.0170   29.6080   39.3980 O.2    23  TYR23      -0.2715
     18  CB        -9.6220   29.1080   41.1300 C.3    23  TYR23       0.0574
     19  CG       -11.0830   29.1500   41.5220 C.ar   23  TYR23      -0.0198
     20  CD1      -11.5210   29.9760   42.5540 C.ar   23  TYR23      -0.0009
     21  CD2      -12.0250   28.3590   40.8710 C.ar   23  TYR23      -0.0009
     22  CE1      -12.8580   30.0150   42.9260 C.ar   23  TYR23       0.0417
     23  CE2      -13.3750   28.3890   41.2340 C.ar   23  TYR23       0.0417
     24  CZ       -13.7840   29.2210   42.2630 C.ar   23  TYR23       0.1957
     25  OH       -15.1090   29.2580   42.6480 O.3    23  TYR23      -0.2866
     26  N         -7.1910   31.1900   41.0150 N.am   24  ARG24      -0.1963
     27  CA        -5.7600   31.3800   41.2210 C.3    24  ARG24       0.1729
     28  C         -5.4600   31.2520   42.7110 C.2    24  ARG24       0.2616
     29  O         -5.9280   32.0610   43.5030 O.2    24  ARG24      -0.2715
     30  CB        -5.3410   32.7660   40.7200 C.3    24  ARG24       0.0348
     31  CG        -3.8690   33.1690   40.9860 C.3    24  ARG24       0.0492
     32  CD        -3.4820   34.4710   40.2650 C.3    24  ARG24       0.2205
     33  NE        -4.6400   35.3490   40.1870 N.pl3  24  ARG24      -0.0865
     34  CZ        -5.1330   36.0330   41.2110 C.cat  24  ARG24       0.5346
     35  NH1       -4.5270   36.0360   42.3990 N.pl3  24  ARG24       0.1354
     36  NH2       -6.2340   36.7430   41.0440 N.pl3  24  ARG24       0.1354
     37  N         -4.6990   30.2280   43.0840 N.am   25  ASN25      -0.1959
     38  CA        -4.1680   30.1120   44.4350 C.3    25  ASN25       0.1804
     39  C         -2.9220   31.0070   44.5020 C.2    25  ASN25       0.2463
     40  O         -1.9080   30.6840   43.8820 O.2    25  ASN25      -0.2730
     41  CB        -3.8210   28.6460   44.7520 C.3    25  ASN25       0.1195
     42  CG        -3.3400   28.4390   46.1780 C.2    25  ASN25       0.2630
     43  OD1       -3.2310   27.2980   46.6500 O.2    25  ASN25      -0.2716
     44  ND2       -3.0580   29.5260   46.8750 N.am   25  ASN25      -0.0877
     45  N         -2.9900   32.1300   45.2460 N.am   26  PRO26      -0.2727
     46  CA        -1.8400   33.0400   45.3020 C.3    26  PRO26       0.1402
     47  C         -0.5160   32.3900   45.7420 C.2    26  PRO26       0.2269
     48  O          0.5540   32.8970   45.4010 O.2    26  PRO26      -0.2865
     49  CB        -2.2810   34.0990   46.3250 C.3    26  PRO26       0.0296
     50  CG        -3.7610   34.0670   46.2850 C.3    26  PRO26       0.0237
     51  CD        -4.1050   32.6240   46.0750 C.3    26  PRO26       0.0939
     52  N         -2.4150   29.0530   39.3100 N.3    30  THR30      -0.1203
     53  CA        -3.8010   28.7650   38.9410 C.3    30  THR30       0.1994
     54  C         -4.0700   27.2650   38.8490 C.2    30  THR30       0.2617
     55  O         -3.1840   26.4840   38.5070 O.2    30  THR30      -0.2717
     56  CB        -4.2260   29.4730   37.6280 C.3    30  THR30       0.1784
     57  OG1       -3.3980   29.0470   36.5400 O.3    30  THR30      -0.2211
     58  CG2       -4.1490   30.9960   37.7850 C.3    30  THR30       0.0376
     59  N         -5.3040   26.8690   39.1590 N.am   31  TRP31      -0.1975
     60  CA        -5.7130   25.4760   39.0090 C.3    31  TRP31       0.1640
     61  C         -5.3870   24.9870   37.6020 C.2    31  TRP31       0.2290
     62  O         -4.7970   23.9220   37.4260 O.2    31  TRP31      -0.2864
     63  CB        -7.2150   25.3000   39.2670 C.3    31  TRP31       0.0576
     64  CG        -7.6520   25.4970   40.6840 C.ar   31  TRP31       0.0006
     65  CD1       -6.8600   25.7730   41.7640 C.ar   31  TRP31       0.0946
     66  CD2       -8.9930   25.3980   41.1850 C.ar   31  TRP31       0.0152
     67  NE1       -7.6270   25.8730   42.8970 N.ar   31  TRP31      -0.2442
     68  CE2       -8.9390   25.6420   42.5750 C.ar   31  TRP31       0.0810
     69  CE3      -10.2360   25.1330   40.5920 C.ar   31  TRP31       0.0012
     70  CZ2      -10.0820   25.6340   43.3810 C.ar   31  TRP31       0.0191
     71  CZ3      -11.3700   25.1240   41.3960 C.ar   31  TRP31       0.0001
     72  CH2      -11.2840   25.3750   42.7720 C.ar   31  TRP31       0.0015
     73  N        -12.2160   22.1010   44.3340 N.3    65  ASP65      -0.1239
     74  CA       -13.3600   22.9310   44.6870 C.3    65  ASP65       0.1674
     75  C        -12.9950   24.1510   45.5110 C.2    65  ASP65       0.2266
     76  O        -11.9450   24.2190   46.1510 O.2    65  ASP65      -0.2867
     77  CB       -14.4520   22.1130   45.3730 C.3    65  ASP65       0.1410
     78  CG       -13.9200   21.2420   46.4640 C.2    65  ASP65       0.3668
     79  OD1      -13.2010   21.7680   47.3410 O.co2  65  ASP65      -0.2456
     80  OD2      -14.2130   20.0280   46.4470 O.co2  65  ASP65      -0.2456
     81  N        -17.3520   29.3510   48.2560 N.3    69  ASN69      -0.1240
     82  CA       -18.5120   29.6440   47.4160 C.3    69  ASN69       0.1653
     83  C        -19.1780   28.3930   46.8490 C.2    69  ASN69       0.2266
     84  O        -20.1100   28.5040   46.0460 O.2    69  ASN69      -0.2867
     85  CB       -18.0920   30.5420   46.2520 C.3    69  ASN69       0.1155
     86  CG       -17.4860   31.8480   46.7140 C.2    69  ASN69       0.2627
     87  OD1      -18.1840   32.7000   47.2630 O.2    69  ASN69      -0.2716
     88  ND2      -16.1850   32.0100   46.5050 N.am   69  ASN69      -0.0877
@<TRIPOS>BOND
     1    13    12    1
     2    12     9    1
     3     1     2    1
     4    57    56    1
     5     4     3    2
     6     8     3   am
     7     8     9    1
     8     3     2    1
     9     2     5    1
    10     9    10    1
    11    62    61    2
    12    61    60    1
    13    56    58    1
    14    56    53    1
    15    10    11    2
    16    10    14   am
    17     5     6    1
    18     5     7    1
    19    55    54    2
    20    54    53    1
    21    54    59   am
    22    14    15    1
    23    53    52    1
    24    60    59    1
    25    60    63    1
    26    63    64    1
    27    17    16    2
    28    16    15    1
    29    16    26   am
    30    15    18    1
    31    33    32    1
    32    33    34    2
    33    32    31    1
    34    69    66   ar
    35    69    71   ar
    36    64    66   ar
    37    64    65   ar
    38    30    31    1
    39    30    27    1
    40    21    23   ar
    41    21    19   ar
    42    26    27    1
    43    36    34    1
    44    18    19    1
    45    66    68   ar
    46    34    35    1
    47    27    28    1
    48    23    24   ar
    49    71    72   ar
    50    19    20   ar
    51    65    67   ar
    52    24    25    1
    53    24    22   ar
    54    20    22   ar
    55    68    67   ar
    56    68    70   ar
    57    28    37   am
    58    28    29    2
    59    72    70   ar
    60    37    38    1
    61    40    39    2
    62    73    74    1
    63    38    39    1
    64    38    41    1
    65    39    45   am
    66    74    77    1
    67    74    75    1
    68    41    42    1
    69    45    46    1
    70    45    51    1
    71    46    47    1
    72    46    49    1
    73    77    78    1
    74    48    47    2
    75    75    76    2
    76    84    83    2
    77    51    50    1
    78    42    43    2
    79    42    44   am
    80    85    86    1
    81    85    82    1
    82    50    49    1
    83    80    78   ar
    84    78    79   ar
    85    88    86   am
    86    86    87    2
    87    83    82    1
    88    82    81    1
