@<TRIPOS>MOLECULE
tmp/3kjqA00.pdb
 94 91 0 0 0
SMALL
GASTEIGER

@<TRIPOS>ATOM
      1  N         -9.4890   43.7920   42.7700 N.3    36  ARG36      -0.1231
      2  CA        -8.3250   43.4970   43.6170 C.3    36  ARG36       0.1694
      3  C         -7.0810   43.1510   42.8070 C.2    36  ARG36       0.2592
      4  O         -7.1780   42.6220   41.7010 O.2    36  ARG36      -0.2718
      5  CB        -8.6260   42.3270   44.5620 C.3    36  ARG36       0.0321
      6  CG        -9.3290   42.7120   45.8530 C.3    36  ARG36       0.0489
      7  CD        -9.6600   41.4690   46.6840 C.3    36  ARG36       0.2205
      8  NE       -10.8790   40.8320   46.2020 N.pl3  36  ARG36      -0.0865
      9  CZ       -11.4210   39.7290   46.7120 C.cat  36  ARG36       0.5346
     10  NH1      -10.8570   39.1010   47.7450 N.pl3  36  ARG36       0.1354
     11  NH2      -12.5440   39.2550   46.1790 N.pl3  36  ARG36       0.1354
     12  N         -5.9080   43.4410   43.3660 N.am   37  ASP37      -0.1960
     13  CA        -4.6570   42.9620   42.7700 C.3    37  ASP37       0.1840
     14  C         -4.6590   41.4420   42.7800 C.2    37  ASP37       0.2622
     15  O         -5.1930   40.8120   43.7040 O.2    37  ASP37      -0.2715
     16  CB        -3.4190   43.4630   43.5190 C.3    37  ASP37       0.1450
     17  CG        -3.2370   44.9700   43.4240 C.2    37  ASP37       0.3671
     18  OD1       -3.8960   45.6220   42.5850 O.co2  37  ASP37      -0.2456
     19  OD2       -2.4260   45.5010   44.2030 O.co2  37  ASP37      -0.2456
     20  N         -4.0270   40.8530   41.7710 N.am   38  ARG38      -0.1963
     21  CA        -4.0800   39.4110   41.5750 C.3    38  ARG38       0.1729
     22  C         -2.9060   38.7220   42.2820 C.2    38  ARG38       0.2616
     23  O         -2.0390   38.1300   41.6520 O.2    38  ARG38      -0.2715
     24  CB        -4.1310   39.0810   40.0770 C.3    38  ARG38       0.0348
     25  CG        -5.3380   39.7280   39.3720 C.3    38  ARG38       0.0492
     26  CD        -5.5570   39.2590   37.9350 C.3    38  ARG38       0.2205
     27  NE        -5.6440   37.8060   37.8720 N.pl3  38  ARG38      -0.0865
     28  CZ        -4.6460   36.9920   37.5360 C.cat  38  ARG38       0.5346
     29  NH1       -3.4790   37.4620   37.1350 N.pl3  38  ARG38       0.1354
     30  NH2       -4.8360   35.6880   37.5680 N.pl3  38  ARG38       0.1354
     31  N         -2.8990   38.8270   43.6060 N.am   39  ASN39      -0.1972
     32  CA        -1.8510   38.2300   44.4260 C.3    39  ASN39       0.1688
     33  C         -1.6770   36.7430   44.0940 C.2    39  ASN39       0.2292
     34  O         -2.6560   35.9980   43.9670 O.2    39  ASN39      -0.2864
     35  CB        -2.1700   38.4050   45.9170 C.3    39  ASN39       0.1181
     36  CG        -2.0340   39.8500   46.4000 C.2    39  ASN39       0.2629
     37  OD1       -1.3330   40.6760   45.8070 O.2    39  ASN39      -0.2716
     38  ND2       -2.6950   40.1490   47.5030 N.am   39  ASN39      -0.0877
     39  N         -5.0920   37.4410   33.9650 N.3    94  SER94      -0.1202
     40  CA        -5.6910   38.7410   34.2760 C.3    94  SER94       0.2020
     41  C         -7.0970   38.6050   34.8330 C.2    94  SER94       0.2619
     42  O         -7.6300   37.5050   34.9650 O.2    94  SER94      -0.2717
     43  CB        -5.7110   39.6260   33.0200 C.3    94  SER94       0.2103
     44  OG        -5.8580   40.9930   33.3650 O.3    94  SER94      -0.2182
     45  N         -7.6950   39.7390   35.1770 N.am   95  HIS95      -0.1961
     46  CA        -9.1250   39.7810   35.4000 C.3    95  HIS95       0.1787
     47  C         -9.8170   39.7730   34.0470 C.2    95  HIS95       0.2620
     48  O         -9.2060   40.0960   33.0210 O.2    95  HIS95      -0.2715
     49  CB        -9.5500   41.0270   36.1880 C.3    95  HIS95       0.0785
     50  CG        -9.1790   40.9840   37.6400 C.ar   95  HIS95       0.0821
     51  ND1       -9.7290   40.0830   38.5260 N.ar   95  HIS95      -0.2267
     52  CD2       -8.3340   41.7570   38.3640 C.ar   95  HIS95       0.1154
     53  CE1       -9.2210   40.2890   39.7310 C.ar   95  HIS95       0.1986
     54  NE2       -8.3830   41.3110   39.6620 N.ar   95  HIS95      -0.2212
     55  N        -11.0980   39.4220   34.0500 N.am   96  GLY96      -0.1954
     56  CA       -11.9120   39.4910   32.8390 C.3    96  GLY96       0.1869
     57  C        -13.4060   39.5090   33.1100 C.2    96  GLY96       0.2309
     58  O        -13.8470   39.5290   34.2640 O.2    96  GLY96      -0.2863
     59  N         -6.4800   32.7660   31.4490 N.3   136  GLN136     -0.1231
     60  CA        -6.8420   32.6460   32.8550 C.3   136  GLN136      0.1698
     61  C         -7.4490   33.9780   33.2990 C.2   136  GLN136      0.2592
     62  O         -6.7280   34.9630   33.5350 O.2   136  GLN136     -0.2718
     63  CB        -5.6120   32.2990   33.7010 C.3   136  GLN136      0.0381
     64  CG        -5.8210   32.4530   35.2220 C.3   136  GLN136      0.0905
     65  CD        -7.0730   31.7560   35.6990 C.2   136  GLN136      0.2608
     66  OE1       -7.2740   30.5780   35.4090 O.2   136  GLN136     -0.2717
     67  NE2       -7.9160   32.4700   36.4370 N.am  136  GLN136     -0.0878
     68  N         -8.7770   33.9960   33.3700 N.am  137  ALA137     -0.1966
     69  CA        -9.5630   35.1800   33.7510 C.3   137  ALA137      0.1728
     70  C        -11.0080   34.7440   34.0090 C.2   137  ALA137      0.2616
     71  O        -11.4430   33.7090   33.4930 O.2   137  ALA137     -0.2715
     72  CB        -9.5150   36.2390   32.6660 C.3   137  ALA137      0.0334
     73  N        -11.7440   35.5060   34.8190 N.am  138  CYS138     -0.1968
     74  CA       -13.1990   35.3320   34.8780 C.3   138  CYS138      0.1712
     75  C        -13.7810   35.6960   33.5180 C.2   138  CYS138      0.2296
     76  O        -13.1770   36.4480   32.7470 O.2   138  CYS138     -0.2864
     77  CB       -13.8780   36.2140   35.9400 C.3   138  CYS138      0.0983
     78  SG       -13.4990   35.8750   37.6570 S.3   138  CYS138     -0.0798
     79  N        -17.2120   36.6010   33.5770 N.3   140  GLY140     -0.1225
     80  CA       -18.4670   37.0570   34.1680 C.3   140  GLY140      0.1811
     81  C        -18.4050   36.8930   35.6690 C.2   140  GLY140      0.2280
     82  O        -17.3760   36.4670   36.2180 O.2   140  GLY140     -0.2866
     83  N        -21.4070   32.4450   39.7860 N.3   143  TYR143     -0.1241
     84  CA       -20.8230   31.2320   40.3260 C.3   143  TYR143      0.1605
     85  C        -21.3990   30.0640   39.5580 C.2   143  TYR143      0.2264
     86  O        -22.6060   29.9900   39.3350 O.2   143  TYR143     -0.2867
     87  CB       -21.1540   31.0830   41.8070 C.3   143  TYR143      0.0534
     88  CG       -20.5890   32.1960   42.6460 C.ar  143  TYR143     -0.0201
     89  CD1      -19.2130   32.3500   42.7910 C.ar  143  TYR143     -0.0009
     90  CD2      -21.4270   33.0980   43.2990 C.ar  143  TYR143     -0.0009
     91  CE1      -18.6770   33.3790   43.5680 C.ar  143  TYR143      0.0417
     92  CE2      -20.9060   34.1250   44.0780 C.ar  143  TYR143      0.0417
     93  CZ       -19.5340   34.2620   44.2040 C.ar  143  TYR143      0.1957
     94  OH       -19.0220   35.2830   44.9790 O.3   143  TYR143     -0.2866
@<TRIPOS>BOND
     1    59    60    1
     2    72    69    1
     3    76    75    2
     4    56    57    1
     5    56    55    1
     6    60    61    1
     7    60    63    1
     8    43    44    1
     9    43    40    1
    10    48    47    2
    11    57    58    2
    12    61    68   am
    13    61    62    2
    14    68    69    1
    15    71    70    2
    16    75    74    1
    17    79    80    1
    18    63    64    1
    19    69    70    1
    20    39    40    1
    21    70    73   am
    22    47    55   am
    23    47    46    1
    24    80    81    1
    25    40    41    1
    26    73    74    1
    27    41    42    2
    28    41    45   am
    29    74    77    1
    30    45    46    1
    31    64    65    1
    32    46    49    1
    33    66    65    2
    34    81    82    2
    35    65    67   am
    36    77    78    1
    37    49    50    1
    38    29    28    1
    39    28    30    1
    40    28    27    2
    41    50    52   ar
    42    50    51   ar
    43    27    26    1
    44    26    25    1
    45    52    54   ar
    46    51    53   ar
    47    86    85    2
    48    25    24    1
    49    85    84    1
    50    54    53   ar
    51    83    84    1
    52    24    21    1
    53    84    87    1
    54    21    20    1
    55    21    22    1
    56    23    22    2
    57     4     3    2
    58    20    14   am
    59    87    88    1
    60    22    31   am
    61    18    17   ar
    62    88    89   ar
    63    88    90   ar
    64     1     2    1
    65    13    14    1
    66    13    12    1
    67    13    16    1
    68    14    15    2
    69    89    91   ar
    70     3    12   am
    71     3     2    1
    72    90    92   ar
    73    17    16    1
    74    17    19   ar
    75    91    93   ar
    76    31    32    1
    77     2     5    1
    78    34    33    2
    79    92    93   ar
    80    33    32    1
    81    93    94    1
    82    32    35    1
    83     5     6    1
    84    37    36    2
    85     6     7    1
    86    35    36    1
    87    11     9    1
    88     8     7    1
    89     8     9    2
    90    36    38   am
    91     9    10    1
