@<TRIPOS>MOLECULE
tmp/3kjrA01.pdb
 100 97 0 0 0
SMALL
GASTEIGER

@<TRIPOS>ATOM
      1  N         -6.8630   10.6860   19.7090 N.3    31  THR31      -0.1203
      2  CA        -5.5320   11.1610   20.0660 C.3    31  THR31       0.1994
      3  C         -4.3930   10.2010   19.7120 C.2    31  THR31       0.2617
      4  O         -3.4780   10.6000   18.9880 O.2    31  THR31      -0.2717
      5  CB        -5.4580   11.5700   21.5620 C.3    31  THR31       0.1784
      6  OG1       -6.2880   12.7270   21.7510 O.3    31  THR31      -0.2211
      7  CG2       -4.0410   11.9630   21.9530 C.3    31  THR31       0.0376
      8  N         -4.4500    8.9560   20.1860 N.am   32  HIS32      -0.1975
      9  CA        -3.3370    8.0380   19.9190 C.3    32  HIS32       0.1656
     10  C         -3.2770    7.5780   18.4550 C.2    32  HIS32       0.2291
     11  O         -2.1990    7.2750   17.9670 O.2    32  HIS32      -0.2864
     12  CB        -3.3100    6.8510   20.8800 C.3    32  HIS32       0.0771
     13  CG        -3.1680    7.2520   22.3210 C.ar   32  HIS32       0.0820
     14  ND1       -2.0300    7.8550   22.8210 N.ar   32  HIS32      -0.2267
     15  CD2       -4.0250    7.1470   23.3670 C.ar   32  HIS32       0.1154
     16  CE1       -2.1910    8.1020   24.1090 C.ar   32  HIS32       0.1986
     17  NE2       -3.3900    7.6730   24.4690 N.ar   32  HIS32      -0.2212
     18  N         -6.9530    1.5030   24.2570 N.3   168  PHE168     -0.1227
     19  CA        -7.1160    2.8910   24.6140 C.3   168  PHE168      0.1736
     20  C         -8.5970    3.2640   24.5320 C.2   168  PHE168      0.2596
     21  O         -9.3960    2.4870   24.0350 O.2   168  PHE168     -0.2718
     22  CB        -6.2850    3.7780   23.6600 C.3   168  PHE168      0.0547
     23  CG        -4.8240    3.4410   23.6820 C.ar  168  PHE168     -0.0202
     24  CD1       -4.0430    3.8030   24.7820 C.ar  168  PHE168     -0.0042
     25  CD2       -4.2590    2.6950   22.6750 C.ar  168  PHE168     -0.0042
     26  CE1       -2.6880    3.4560   24.8490 C.ar  168  PHE168     -0.0003
     27  CE2       -2.9150    2.3400   22.7270 C.ar  168  PHE168     -0.0003
     28  CZ        -2.1290    2.7160   23.8130 C.ar  168  PHE168     -0.0000
     29  N         -8.9600    4.4460   25.0300 N.am  169  SER169     -0.1938
     30  CA       -10.3490    4.8910   24.8870 C.3   169  SER169      0.2055
     31  C        -10.4700    6.3930   24.8270 C.2   169  SER169      0.2644
     32  O         -9.6630    7.1180   25.3970 O.2   169  SER169     -0.2714
     33  CB       -11.2250    4.3530   26.0280 C.3   169  SER169      0.2130
     34  OG       -10.7070    4.7500   27.2810 O.3   169  SER169     -0.2179
     35  N        -11.4990    6.8450   24.1240 N.am  170  THR170     -0.1936
     36  CA       -11.9430    8.2260   24.2270 C.3   170  THR170      0.2028
     37  C        -13.2740    8.1910   24.9840 C.2   170  THR170      0.2642
     38  O        -13.6900    7.1240   25.4640 O.2   170  THR170     -0.2714
     39  CB       -12.1710    8.8190   22.8300 C.3   170  THR170      0.1808
     40  OG1      -13.3120    8.1880   22.2370 O.3   170  THR170     -0.2208
     41  CG2      -10.9530    8.6230   21.9250 C.3   170  THR170      0.0379
     42  N        -13.9570    9.3400   25.0730 N.am  171  ASP171     -0.1971
     43  CA       -15.3260    9.3930   25.6100 C.3   171  ASP171      0.1709
     44  C        -16.3530    8.6800   24.7300 C.2   171  ASP171      0.2293
     45  O        -17.4840    8.5050   25.1570 O.2   171  ASP171     -0.2864
     46  CB       -15.7970   10.8490   25.7230 C.3   171  ASP171      0.1436
     47  CG       -15.0490   11.6310   26.7760 C.2   171  ASP171      0.3671
     48  OD1      -14.7370   11.0520   27.8430 O.co2 171  ASP171     -0.2456
     49  OD2      -14.7890   12.8400   26.5420 O.co2 171  ASP171     -0.2456
     50  N        -10.5660    1.5010   21.4740 N.3   175  TYR175     -0.1241
     51  CA        -9.8290    1.1420   20.2750 C.3   175  TYR175      0.1605
     52  C         -8.4470    0.6070   20.5870 C.2   175  TYR175      0.2264
     53  O         -7.9010    0.8270   21.6810 O.2   175  TYR175     -0.2867
     54  CB        -9.7310    2.3670   19.3310 C.3   175  TYR175      0.0534
     55  CG        -8.9000    3.5200   19.9040 C.ar  175  TYR175     -0.0201
     56  CD1       -7.5780    3.7020   19.5050 C.ar  175  TYR175     -0.0009
     57  CD2       -9.4390    4.4070   20.8670 C.ar  175  TYR175     -0.0009
     58  CE1       -6.7940    4.7640   20.0200 C.ar  175  TYR175      0.0417
     59  CE2       -8.6490    5.4930   21.4080 C.ar  175  TYR175      0.0417
     60  CZ        -7.3350    5.6370   20.9660 C.ar  175  TYR175      0.1957
     61  OH        -6.5210    6.6500   21.4220 O.3   175  TYR175     -0.2866
     62  N         -7.5310    3.6310   33.5540 N.3   253  SER253     -0.1202
     63  CA        -7.8250    4.9070   32.8780 C.3   253  SER253      0.2020
     64  C         -7.9870    4.6580   31.3680 C.2   253  SER253      0.2618
     65  O         -8.6560    5.4180   30.6770 O.2   253  SER253     -0.2717
     66  CB        -6.7580    5.9890   33.1920 C.3   253  SER253      0.2103
     67  OG        -5.5210    5.6470   32.5740 O.3   253  SER253     -0.2182
     68  N         -7.4290    3.5590   30.8680 N.am  254  ARG254     -0.1979
     69  CA        -7.4070    3.2960   29.4310 C.3   254  ARG254      0.1597
     70  C         -8.5740    2.4400   28.9340 C.2   254  ARG254      0.2287
     71  O         -9.1120    2.6990   27.8590 O.2   254  ARG254     -0.2864
     72  CB        -6.1170    2.5890   29.0260 C.3   254  ARG254      0.0334
     73  CG        -4.9160    3.4860   28.8730 C.3   254  ARG254      0.0492
     74  CD        -3.7460    2.5710   28.5520 C.3   254  ARG254      0.2205
     75  NE        -2.5130    3.3220   28.3710 N.pl3 254  ARG254     -0.0865
     76  CZ        -1.3210    2.7450   28.2640 C.cat 254  ARG254      0.5346
     77  NH1       -0.2510    3.4990   28.0930 N.pl3 254  ARG254      0.1354
     78  NH2       -1.2170    1.4080   28.3400 N.pl3 254  ARG254      0.1354
     79  N        -15.0530   -0.2560   27.5780 N.3   463  ARG463     -0.1245
     80  CA       -14.8000    0.8210   28.5280 C.3   463  ARG463      0.1563
     81  C        -15.9490    0.9380   29.5020 C.2   463  ARG463      0.2260
     82  O        -17.0920    0.5770   29.1960 O.2   463  ARG463     -0.2867
     83  CB       -14.4990    2.1450   27.7900 C.3   463  ARG463      0.0307
     84  CG       -15.5790    2.5920   26.8830 C.3   463  ARG463      0.0489
     85  CD       -15.0600    3.5880   25.7960 C.3   463  ARG463      0.2205
     86  NE       -16.1440    3.7060   24.8420 N.pl3 463  ARG463     -0.0865
     87  CZ       -17.1350    4.5660   24.9900 C.cat 463  ARG463      0.5346
     88  NH1      -17.1160    5.4020   26.0210 N.pl3 463  ARG463      0.1354
     89  NH2      -18.1230    4.6000   24.1130 N.pl3 463  ARG463      0.1354
     90  N        -18.3240    3.1610   32.1300 N.3   465  ARG465     -0.1245
     91  CA       -18.9000    4.4660   32.4070 C.3   465  ARG465      0.1563
     92  C        -19.8260    4.3290   33.6160 C.2   465  ARG465      0.2260
     93  O        -20.8420    3.6220   33.5650 O.2   465  ARG465     -0.2867
     94  CB       -19.6710    4.9900   31.1690 C.3   465  ARG465      0.0307
     95  CG       -20.3530    6.3660   31.3800 C.3   465  ARG465      0.0489
     96  CD       -20.8200    7.0190   30.0450 C.3   465  ARG465      0.2205
     97  NE       -19.6940    7.2280   29.1220 N.pl3 465  ARG465     -0.0865
     98  CZ       -18.9360    8.3320   29.0760 C.cat 465  ARG465      0.5346
     99  NH1      -19.1760    9.3560   29.8900 N.pl3 465  ARG465      0.1354
    100  NH2      -17.9270    8.4160   28.2150 N.pl3 465  ARG465      0.1354
@<TRIPOS>BOND
     1    11    10    2
     2    10     9    1
     3     4     3    2
     4    54    55    1
     5    54    51    1
     6    56    55   ar
     7    56    58   ar
     8     1     2    1
     9     3     2    1
    10     3     8   am
    11    55    57   ar
    12     9     8    1
    13     9    12    1
    14    58    60   ar
    15     2     5    1
    16    51    52    1
    17    51    50    1
    18    52    53    2
    19    57    59   ar
    20    12    13    1
    21    60    59   ar
    22    60    61    1
    23     5     6    1
    24     5     7    1
    25    41    39    1
    26    40    39    1
    27    13    14   ar
    28    13    15   ar
    29    25    27   ar
    30    25    23   ar
    31    27    28   ar
    32    14    16   ar
    33    39    36    1
    34    15    17   ar
    35    22    23    1
    36    22    19    1
    37    23    24   ar
    38    28    26   ar
    39    21    20    2
    40    16    17   ar
    41    89    87    1
    42    35    36    1
    43    35    31   am
    44    36    37    1
    45    18    19    1
    46    20    19    1
    47    20    29   am
    48    44    45    2
    49    44    43    1
    50    24    26   ar
    51    31    30    1
    52    31    32    2
    53    86    87    2
    54    86    85    1
    55    30    29    1
    56    30    33    1
    57    37    42   am
    58    37    38    2
    59    87    88    1
    60    42    43    1
    61    43    46    1
    62    46    47    1
    63    85    84    1
    64    33    34    1
    65    49    47   ar
    66    47    48   ar
    67    84    83    1
    68    79    80    1
    69    83    80    1
    70    71    70    2
    71    77    76    1
    72   100    98    1
    73    76    78    1
    74    76    75    2
    75    75    74    1
    76    80    81    1
    77    74    73    1
    78    73    72    1
    79    70    69    1
    80    72    69    1
    81    98    97    2
    82    98    99    1
    83    97    96    1
    84    82    81    2
    85    69    68    1
    86    96    95    1
    87    65    64    2
    88    68    64   am
    89    94    95    1
    90    94    91    1
    91    64    63    1
    92    90    91    1
    93    91    92    1
    94    67    66    1
    95    63    66    1
    96    63    62    1
    97    93    92    2
