@<TRIPOS>MOLECULE
tmp/3kjsA00.pdb
 168 163 0 0 0
SMALL
GASTEIGER

@<TRIPOS>ATOM
      1  N         26.5250   31.1260   30.3160 N.3    25  VAL25      -0.1231
      2  CA        25.5360   31.0340   29.2390 C.3    25  VAL25       0.1692
      3  C         26.0170   31.8500   28.0450 C.2    25  VAL25       0.2592
      4  O         26.3980   33.0100   28.1940 O.2    25  VAL25      -0.2718
      5  CB        24.1260   31.5160   29.6730 C.3    25  VAL25       0.0266
      6  CG1       23.1040   31.2360   28.5800 C.3    25  VAL25       0.0020
      7  CG2       23.6970   30.8360   30.9630 C.3    25  VAL25       0.0020
      8  N         25.9870   31.2330   26.8660 N.am   26  VAL26      -0.1966
      9  CA        26.5800   31.8040   25.6590 C.3    26  VAL26       0.1727
     10  C         25.8530   31.3160   24.4040 C.2    26  VAL26       0.2616
     11  O         25.3330   30.2000   24.3690 O.2    26  VAL26      -0.2715
     12  CB        28.1150   31.4810   25.5780 C.3    26  VAL26       0.0290
     13  CG1       28.3750   29.9700   25.4520 C.3    26  VAL26       0.0023
     14  CG2       28.7890   32.2410   24.4470 C.3    26  VAL26       0.0023
     15  N         25.8040   32.1810   23.3930 N.am   27  ALA27      -0.1977
     16  CA        25.3340   31.8330   22.0560 C.3    27  ALA27       0.1597
     17  C         26.4820   32.0410   21.0740 C.2    27  ALA27       0.2287
     18  O         27.0780   33.1200   21.0200 O.2    27  ALA27      -0.2864
     19  CB        24.1490   32.6940   21.6730 C.3    27  ALA27       0.0319
     20  N         25.0960   41.4400   18.8440 N.3    40  ILE40      -0.1245
     21  CA        24.9590   40.0830   18.3170 C.3    40  ILE40       0.1561
     22  C         24.3100   40.1440   16.9210 C.2    40  ILE40       0.2260
     23  O         23.1730   40.6060   16.7810 O.2    40  ILE40      -0.2867
     24  CB        24.1460   39.1860   19.2880 C.3    40  ILE40       0.0252
     25  CG1       24.8950   39.0310   20.6180 C.3    40  ILE40       0.0019
     26  CG2       23.8780   37.8290   18.6730 C.3    40  ILE40       0.0019
     27  CD1       24.1210   38.3200   21.7040 C.3    40  ILE40       0.0001
     28  N         23.1560   37.9230   14.5040 N.3    42  TRP42      -0.1227
     29  CA        21.9690   37.1330   14.1670 C.3    42  TRP42       0.1737
     30  C         20.7400   37.5170   15.0000 C.2    42  TRP42       0.2595
     31  O         20.8490   38.2430   15.9930 O.2    42  TRP42      -0.2718
     32  CB        22.2690   35.6360   14.3280 C.3    42  TRP42       0.0564
     33  CG        22.7390   35.2630   15.7030 C.ar   42  TRP42       0.0003
     34  CD1       21.9680   35.1200   16.8180 C.ar   42  TRP42       0.0946
     35  CD2       24.0850   34.9860   16.1080 C.ar   42  TRP42       0.0152
     36  NE1       22.7460   34.7720   17.8940 N.ar   42  TRP42      -0.2442
     37  CE2       24.0510   34.6780   17.4870 C.ar   42  TRP42       0.0810
     38  CE3       25.3180   34.9610   15.4400 C.ar   42  TRP42       0.0012
     39  CZ2       25.2020   34.3550   18.2160 C.ar   42  TRP42       0.0191
     40  CZ3       26.4650   34.6370   16.1660 C.ar   42  TRP42       0.0001
     41  CH2       26.3950   34.3400   17.5420 C.ar   42  TRP42       0.0015
     42  N         19.5760   37.0240   14.5790 N.am   43  ASN43      -0.1960
     43  CA        18.3210   37.2190   15.3030 C.3    43  ASN43       0.1819
     44  C         17.6020   35.8810   15.4320 C.2    43  ASN43       0.2621
     45  O         16.9970   35.3960   14.4800 O.2    43  ASN43      -0.2715
     46  CB        17.4430   38.2680   14.6020 C.3    43  ASN43       0.1195
     47  CG        16.0500   38.3950   15.2240 C.2    43  ASN43       0.2630
     48  OD1       15.8970   38.4270   16.4450 O.2    43  ASN43      -0.2716
     49  ND2       15.0310   38.4750   14.3760 N.am   43  ASN43      -0.0877
     50  N         17.7080   35.2800   16.6120 N.am   44  VAL44      -0.1977
     51  CA        17.1450   33.9610   16.8960 C.3    44  VAL44       0.1596
     52  C         16.3350   34.0540   18.1980 C.2    44  VAL44       0.2287
     53  O         16.8890   33.9140   19.2900 O.2    44  VAL44      -0.2864
     54  CB        18.2620   32.8670   16.9930 C.3    44  VAL44       0.0276
     55  CG1       17.6730   31.4970   17.3170 C.3    44  VAL44       0.0022
     56  CG2       19.0830   32.7980   15.7010 C.3    44  VAL44       0.0022
     57  N         16.6190   31.4790   21.1110 N.3    47  ASP47      -0.1225
     58  CA        17.7680   31.5910   22.0040 C.3    47  ASP47       0.1805
     59  C         17.5140   32.6550   23.0670 C.2    47  ASP47       0.2597
     60  O         17.8590   32.4640   24.2310 O.2    47  ASP47      -0.2718
     61  CB        19.0560   31.9030   21.2340 C.3    47  ASP47       0.1424
     62  CG        20.2130   32.2540   22.1590 C.2    47  ASP47       0.3668
     63  OD1       20.7560   31.3420   22.8110 O.co2  47  ASP47      -0.2456
     64  OD2       20.5660   33.4450   22.2490 O.co2  47  ASP47      -0.2456
     65  N         16.9110   33.7700   22.6600 N.am   48  MET48      -0.1979
     66  CA        16.5180   34.8170   23.6020 C.3    48  MET48       0.1605
     67  C         15.6360   34.2360   24.7030 C.2    48  MET48       0.2287
     68  O         15.8340   34.5280   25.8830 O.2    48  MET48      -0.2864
     69  CB        15.7900   35.9680   22.8930 C.3    48  MET48       0.0413
     70  CG        16.6400   36.7660   21.9180 C.3    48  MET48       0.0598
     71  SD        18.2520   37.2740   22.5660 S.3    48  MET48      -0.1393
     72  CE        17.7580   38.4700   23.7990 C.3    48  MET48       0.0692
     73  N         15.4010   31.0000   25.5910 N.3    50  PHE50      -0.1227
     74  CA        16.1950   30.0580   26.3620 C.3    50  PHE50       0.1736
     75  C         17.0950   30.7640   27.3770 C.2    50  PHE50       0.2595
     76  O         17.1840   30.3440   28.5300 O.2    50  PHE50      -0.2718
     77  CB        17.0400   29.1840   25.4410 C.3    50  PHE50       0.0547
     78  CG        17.9660   28.2700   26.1740 C.ar   50  PHE50      -0.0202
     79  CD1       17.5130   27.0510   26.6650 C.ar   50  PHE50      -0.0042
     80  CD2       19.2880   28.6330   26.3950 C.ar   50  PHE50      -0.0042
     81  CE1       18.3690   26.1990   27.3540 C.ar   50  PHE50      -0.0003
     82  CE2       20.1490   27.7920   27.0880 C.ar   50  PHE50      -0.0003
     83  CZ        19.6900   26.5730   27.5670 C.ar   50  PHE50      -0.0000
     84  N         17.7580   31.8280   26.9280 N.am   51  PHE51      -0.1976
     85  CA        18.6420   32.6250   27.7650 C.3    51  PHE51       0.1639
     86  C         17.8780   33.2660   28.9210 C.2    51  PHE51       0.2290
     87  O         18.3420   33.2430   30.0630 O.2    51  PHE51      -0.2864
     88  CB        19.3510   33.6900   26.9240 C.3    51  PHE51       0.0560
     89  CG        19.9720   34.7890   27.7320 C.ar   51  PHE51      -0.0200
     90  CD1       21.1910   34.5980   28.3670 C.ar   51  PHE51      -0.0042
     91  CD2       19.3350   36.0220   27.8590 C.ar   51  PHE51      -0.0042
     92  CE1       21.7670   35.6140   29.1150 C.ar   51  PHE51      -0.0003
     93  CE2       19.9040   37.0410   28.6060 C.ar   51  PHE51      -0.0003
     94  CZ        21.1240   36.8360   29.2350 C.ar   51  PHE51      -0.0000
     95  N         28.2010   44.6140   27.0050 N.3    79  THR79      -0.1218
     96  CA        26.9950   43.7900   26.9390 C.3    79  THR79       0.1862
     97  C         25.7980   44.5350   27.5330 C.2    79  THR79       0.2287
     98  O         24.6800   44.4370   27.0260 O.2    79  THR79      -0.2866
     99  CB        27.2100   42.4310   27.6490 C.3    79  THR79       0.1770
    100  OG1       28.2920   41.7350   27.0230 O.3    79  THR79      -0.2211
    101  CG2       25.9600   41.5630   27.5850 C.3    79  THR79       0.0375
    102  N         24.7330   46.9540   24.9360 N.3    82  SER82      -0.1202
    103  CA        24.0710   46.2750   23.8200 C.3    82  SER82       0.2020
    104  C         22.5980   45.9750   24.1030 C.2    82  SER82       0.2619
    105  O         21.8080   45.8140   23.1720 O.2    82  SER82      -0.2717
    106  CB        24.8100   44.9840   23.4480 C.3    82  SER82       0.2103
    107  OG        24.5820   43.9550   24.3980 O.3    82  SER82      -0.2182
    108  N         22.2390   45.8730   25.3800 N.am   83  ILE83      -0.1966
    109  CA        20.8390   45.7370   25.7680 C.3    83  ILE83       0.1712
    110  C         20.2000   47.1050   25.5910 C.2    83  ILE83       0.2458
    111  O         20.6750   48.0800   26.1720 O.2    83  ILE83      -0.2730
    112  CB        20.6670   45.2730   27.2370 C.3    83  ILE83       0.0289
    113  CG1       21.4010   43.9500   27.4820 C.3    83  ILE83       0.0022
    114  CG2       19.1820   45.1300   27.5840 C.3    83  ILE83       0.0023
    115  CD1       21.6040   43.6080   28.9500 C.3    83  ILE83       0.0001
    116  N         19.1370   47.1920   24.7700 N.am   84  PRO84      -0.2727
    117  CA        18.4610   48.4750   24.5720 C.3    84  PRO84       0.1402
    118  C         17.8410   48.9770   25.8820 C.2    84  PRO84       0.2269
    119  O         17.2210   48.1850   26.6000 O.2    84  PRO84      -0.2865
    120  CB        17.3760   48.1440   23.5380 C.3    84  PRO84       0.0296
    121  CG        17.8550   46.8980   22.8630 C.3    84  PRO84       0.0237
    122  CD        18.5310   46.1270   23.9540 C.3    84  PRO84       0.0939
    123  N         14.7390   47.5050   27.8420 N.3    87  PHE87      -0.1241
    124  CA        14.7140   46.1380   28.3730 C.3    87  PHE87       0.1605
    125  C         15.6410   45.9150   29.5730 C.2    87  PHE87       0.2264
    126  O         15.6810   44.8150   30.1330 O.2    87  PHE87      -0.2867
    127  CB        15.0050   45.1020   27.2780 C.3    87  PHE87       0.0534
    128  CG        13.9070   44.9640   26.2580 C.ar   87  PHE87      -0.0203
    129  CD1       12.5660   45.1070   26.6200 C.ar   87  PHE87      -0.0042
    130  CD2       14.2140   44.6670   24.9320 C.ar   87  PHE87      -0.0042
    131  CE1       11.5490   44.9770   25.6730 C.ar   87  PHE87      -0.0003
    132  CE2       13.2080   44.5280   23.9780 C.ar   87  PHE87      -0.0003
    133  CZ        11.8720   44.6850   24.3490 C.ar   87  PHE87      -0.0000
    134  N         17.6000   43.5670   33.3010 N.3    90  LEU90      -0.1245
    135  CA        16.9550   42.2950   32.9860 C.3    90  LEU90       0.1561
    136  C         16.1140   41.8120   34.1730 C.2    90  LEU90       0.2260
    137  O         16.6550   41.5640   35.2510 O.2    90  LEU90      -0.2867
    138  CB        17.9900   41.2400   32.5720 C.3    90  LEU90       0.0270
    139  CG        18.8800   41.5140   31.3520 C.3    90  LEU90       0.0019
    140  CD1       19.9330   40.4240   31.2010 C.3    90  LEU90       0.0001
    141  CD2       18.0730   41.6770   30.0580 C.3    90  LEU90       0.0001
    142  N         26.8660   35.8650   31.7470 N.3   139  ILE139     -0.1245
    143  CA        26.0850   36.0430   30.5270 C.3   139  ILE139      0.1561
    144  C         26.8780   36.7910   29.4620 C.2   139  ILE139      0.2260
    145  O         26.3770   37.0800   28.3740 O.2   139  ILE139     -0.2867
    146  CB        24.7520   36.7500   30.8150 C.3   139  ILE139      0.0252
    147  CG1       24.9680   38.2310   31.1760 C.3   139  ILE139      0.0019
    148  CG2       23.9970   35.9860   31.9030 C.3   139  ILE139      0.0019
    149  CD1       23.7410   39.0920   30.9640 C.3   139  ILE139      0.0001
    150  N         33.9320   36.0760   29.3320 N.3   145  TYR145     -0.1241
    151  CA        34.0590   34.6600   28.9910 C.3   145  TYR145      0.1605
    152  C         35.5220   34.2150   29.0320 C.2   145  TYR145      0.2264
    153  O         35.8340   33.1440   29.5480 O.2   145  TYR145     -0.2867
    154  CB        33.4930   34.3690   27.5940 C.3   145  TYR145      0.0534
    155  CG        31.9890   34.5110   27.4100 C.ar  145  TYR145     -0.0201
    156  CD1       31.0890   34.0950   28.3930 C.ar  145  TYR145     -0.0009
    157  CD2       31.4680   35.0220   26.2200 C.ar  145  TYR145     -0.0009
    158  CE1       29.7120   34.2130   28.2050 C.ar  145  TYR145      0.0417
    159  CE2       30.0990   35.1450   26.0230 C.ar  145  TYR145      0.0417
    160  CZ        29.2250   34.7340   27.0150 C.ar  145  TYR145      0.1957
    161  OH        27.8650   34.8580   26.8150 O.3   145  TYR145     -0.2866
    162  N         24.4290   27.7450   23.2400 N.3   163  THR163     -0.1218
    163  CA        23.5890   27.6910   22.0560 C.3   163  THR163      0.1862
    164  C         24.4680   27.8120   20.8200 C.2   163  THR163      0.2287
    165  O         25.2950   28.7240   20.7280 O.2   163  THR163     -0.2866
    166  CB        22.5750   28.8460   22.0230 C.3   163  THR163      0.1770
    167  OG1       21.8390   28.8750   23.2460 O.3   163  THR163     -0.2211
    168  CG2       21.6060   28.6820   20.8520 C.3   163  THR163      0.0375
@<TRIPOS>BOND
     1    29    32    1
     2    29    28    1
     3    29    30    1
     4    32    33    1
     5    49    47   am
     6    45    44    2
     7    42    30   am
     8    42    43    1
     9    46    47    1
    10    46    43    1
    11    30    31    2
    12    47    48    2
    13    43    44    1
    14    44    50   am
    15    38    35   ar
    16    38    40   ar
    17    56    54    1
    18    33    35   ar
    19    33    34   ar
    20    35    37   ar
    21    40    41   ar
    22    50    51    1
    23    23    22    2
    24    34    36   ar
    25    51    54    1
    26    51    52    1
    27    22    21    1
    28    54    55    1
    29    37    36   ar
    30    37    39   ar
    31    41    39   ar
    32    52    53    2
    33    21    20    1
    34    21    24    1
    35    26    24    1
    36    24    25    1
    37    25    27    1
    38   165   164    2
    39   164   163    1
    40   168   166    1
    41    18    17    2
    42    17    16    1
    43    57    58    1
    44    61    58    1
    45    61    62    1
    46    19    16    1
    47    70    71    1
    48    70    69    1
    49    58    59    1
    50   166   163    1
    51   166   167    1
    52   163   162    1
    53    16    15    1
    54    62    64   ar
    55    62    63   ar
    56    71    72    1
    57    65    59   am
    58    65    66    1
    59   121   120    1
    60   121   122    1
    61    69    66    1
    62    59    60    2
    63   105   104    2
    64    15    10   am
    65   106   103    1
    66   106   107    1
    67   120   117    1
    68    66    67    1
    69   103   104    1
    70   103   102    1
    71   122   116    1
    72   132   133   ar
    73   132   130   ar
    74   104   108   am
    75   133   131   ar
    76    11    10    2
    77    10     9    1
    78    14    12    1
    79   117   116    1
    80   117   118    1
    81    67    68    2
    82   116   110   am
    83   130   128   ar
    84   108   109    1
    85    77    78    1
    86    77    74    1
    87    13    12    1
    88    12     9    1
    89   110   109    1
    90   110   111    2
    91    73    74    1
    92     9     8    1
    93   131   129   ar
    94   109   112    1
    95   118   119    2
    96   159   157   ar
    97   159   160   ar
    98    78    80   ar
    99    78    79   ar
   100   157   155   ar
   101   128   129   ar
   102   128   127    1
   103    74    75    1
   104    80    82   ar
   105    79    81   ar
   106   161   160    1
   107     8     3   am
   108    88    89    1
   109    88    85    1
   110    84    75   am
   111    84    85    1
   112    96    95    1
   113    96    97    1
   114    96    99    1
   115   160   158   ar
   116   100    99    1
   117    98    97    2
   118    82    83   ar
   119   112   113    1
   120   112   114    1
   121   127   124    1
   122    81    83   ar
   123    75    76    2
   124   155   154    1
   125   155   156   ar
   126   113   115    1
   127   101    99    1
   128   154   151    1
   129    89    91   ar
   130    89    90   ar
   131    85    86    1
   132   123   124    1
   133    91    93   ar
   134     3     4    2
   135     3     2    1
   136   158   156   ar
   137    90    92   ar
   138   124   125    1
   139   145   144    2
   140     6     5    1
   141    93    94   ar
   142    86    87    2
   143   151   152    1
   144   151   150    1
   145   152   153    2
   146    92    94   ar
   147     2     5    1
   148     2     1    1
   149   144   143    1
   150   125   126    2
   151     5     7    1
   152   141   139    1
   153   143   146    1
   154   143   142    1
   155   146   147    1
   156   146   148    1
   157   149   147    1
   158   140   139    1
   159   139   138    1
   160   138   135    1
   161   135   134    1
   162   135   136    1
   163   136   137    2
