@<TRIPOS>MOLECULE
tmp/3kk1A00.pdb
 141 133 0 0 0
SMALL
GASTEIGER

@<TRIPOS>ATOM
      1  N         40.6250   87.9800   15.0670 N.3    63  ILE63      -0.1245
      2  CA        39.5800   87.0790   14.6200 C.3    63  ILE63       0.1561
      3  C         38.3580   87.3120   15.5010 C.2    63  ILE63       0.2260
      4  O         38.4420   88.0050   16.5140 O.2    63  ILE63      -0.2867
      5  CB        40.0450   85.6290   14.7520 C.3    63  ILE63       0.0252
      6  CG1       40.1070   85.2330   16.2280 C.3    63  ILE63       0.0019
      7  CG2       41.4350   85.4810   14.1410 C.3    63  ILE63       0.0019
      8  CD1       40.7090   83.8640   16.4690 C.3    63  ILE63       0.0001
      9  N         34.9180   86.0280   17.8930 N.3    65  LYS65      -0.1245
     10  CA        34.6830   85.0910   18.9770 C.3    65  LYS65       0.1561
     11  C         33.4370   84.2560   18.6760 C.2    65  LYS65       0.2260
     12  O         32.8830   84.3470   17.5790 O.2    65  LYS65      -0.2867
     13  CB        34.5230   85.8550   20.2940 C.3    65  LYS65       0.0271
     14  CG        35.7640   86.6460   20.6830 C.3    65  LYS65       0.0035
     15  CD        35.6050   87.3370   22.0320 C.3    65  LYS65       0.0206
     16  CE        36.9460   87.8580   22.5380 C.3    65  LYS65       0.1093
     17  NZ        36.8280   88.7580   23.7210 N.3    65  LYS65      -0.1314
     18  N         31.9230   89.9750   18.9720 N.3    70  LYS70      -0.1245
     19  CA        33.1410   90.5130   19.5630 C.3    70  LYS70       0.1561
     20  C         34.3840   90.0710   18.7880 C.2    70  LYS70       0.2260
     21  O         34.3800   89.0330   18.1240 O.2    70  LYS70      -0.2867
     22  CB        33.2500   90.0750   21.0290 C.3    70  LYS70       0.0271
     23  CG        32.0840   90.5470   21.9020 C.3    70  LYS70       0.0035
     24  CD        32.5480   91.4460   23.0550 C.3    70  LYS70       0.0206
     25  CE        33.2120   90.6450   24.1820 C.3    70  LYS70       0.1093
     26  NZ        34.7000   90.5800   24.0460 N.3    70  LYS70      -0.1314
     27  N         38.5920   89.1380   18.8810 N.3    72  ARG72      -0.1245
     28  CA        39.6950   88.7190   19.7350 C.3    72  ARG72       0.1563
     29  C         41.0330   89.1560   19.1560 C.2    72  ARG72       0.2260
     30  O         41.3900   88.7890   18.0400 O.2    72  ARG72      -0.2867
     31  CB        39.6640   87.2010   19.9150 C.3    72  ARG72       0.0307
     32  CG        40.9930   86.5720   20.2470 C.3    72  ARG72       0.0489
     33  CD        40.8020   85.1400   20.6940 C.3    72  ARG72       0.2205
     34  NE        40.2590   85.0950   22.0460 N.pl3  72  ARG72      -0.0865
     35  CZ        39.1780   84.4110   22.3950 C.cat  72  ARG72       0.5346
     36  NH1       38.5180   83.7030   21.4900 N.pl3  72  ARG72       0.1354
     37  NH2       38.7520   84.4500   23.6470 N.pl3  72  ARG72       0.1354
     38  N         44.6540   88.6860   18.7430 N.3    74  LEU74      -0.1245
     39  CA        45.7350   87.7150   18.8840 C.3    74  LEU74       0.1561
     40  C         47.0530   88.3790   18.5470 C.2    74  LEU74       0.2260
     41  O         47.0790   89.3510   17.8070 O.2    74  LEU74      -0.2867
     42  CB        45.5350   86.5240   17.9410 C.3    74  LEU74       0.0270
     43  CG        44.2860   85.6480   18.0860 C.3    74  LEU74       0.0019
     44  CD1       44.1020   85.2450   19.5510 C.3    74  LEU74       0.0001
     45  CD2       43.0730   86.4150   17.5880 C.3    74  LEU74       0.0001
     46  N         31.5970   82.5740   33.4040 N.3   110  ASP110     -0.1225
     47  CA        32.7220   82.8420   32.5380 C.3   110  ASP110      0.1805
     48  C         33.3390   84.1500   33.0530 C.2   110  ASP110      0.2598
     49  O         32.6180   85.0220   33.5310 O.2   110  ASP110     -0.2718
     50  CB        32.2150   82.9900   31.0970 C.3   110  ASP110      0.1424
     51  CG        33.3330   83.0290   30.0830 C.2   110  ASP110      0.3668
     52  OD1       33.3260   83.9240   29.2240 O.co2 110  ASP110     -0.2456
     53  OD2       34.2250   82.1610   30.1350 O.co2 110  ASP110     -0.2456
     54  N         34.6640   84.2740   32.9720 N.am  111  VAL111     -0.1966
     55  CA        35.3640   85.5000   33.3810 C.3   111  VAL111      0.1727
     56  C         35.5290   86.4310   32.1690 C.2   111  VAL111      0.2617
     57  O         35.7800   85.9620   31.0690 O.2   111  VAL111     -0.2715
     58  CB        36.7740   85.1660   33.9540 C.3   111  VAL111      0.0290
     59  CG1       37.5250   86.4350   34.2820 C.3   111  VAL111      0.0023
     60  CG2       36.6500   84.3090   35.1970 C.3   111  VAL111      0.0023
     61  N         35.3850   87.7410   32.3670 N.am  112  GLY112     -0.1940
     62  CA        35.4760   88.6630   31.2450 C.3   112  GLY112      0.2014
     63  C         36.9150   88.9970   30.8900 C.2   112  GLY112      0.2639
     64  O         37.7660   89.0790   31.7780 O.2   112  GLY112     -0.2714
     65  N         37.1950   89.1870   29.6030 N.am  113  ASP113     -0.1957
     66  CA        38.5530   89.4210   29.1290 C.3   113  ASP113      0.1840
     67  C         39.6600   88.7550   29.9420 C.2   113  ASP113      0.2622
     68  O         40.6860   89.3700   30.2440 O.2   113  ASP113     -0.2715
     69  CB        38.8240   90.9220   29.0260 C.3   113  ASP113      0.1450
     70  CG        38.3760   91.4950   27.6950 C.2   113  ASP113      0.3671
     71  OD1       38.5350   90.7950   26.6660 O.co2 113  ASP113     -0.2456
     72  OD2       37.8650   92.6410   27.6740 O.co2 113  ASP113     -0.2456
     73  N         39.4460   87.4820   30.2610 N.am  114  ALA114     -0.1963
     74  CA        40.2130   86.7440   31.2670 C.3   114  ALA114      0.1728
     75  C         41.7340   87.0010   31.3120 C.2   114  ALA114      0.2616
     76  O         42.2660   87.4820   32.3280 O.2   114  ALA114     -0.2715
     77  CB        39.9470   85.2560   31.1010 C.3   114  ALA114      0.0334
     78  N         42.4280   86.6690   30.2260 N.am  115  TYR115     -0.1974
     79  CA        43.8630   86.8850   30.1450 C.3   115  TYR115      0.1639
     80  C         44.2200   88.3240   30.4440 C.2   115  TYR115      0.2290
     81  O         45.2420   88.6050   31.0720 O.2   115  TYR115     -0.2864
     82  CB        44.3760   86.5610   28.7500 C.3   115  TYR115      0.0560
     83  CG        44.6330   85.1020   28.4830 C.ar  115  TYR115     -0.0198
     84  CD1       43.8820   84.1220   29.1010 C.ar  115  TYR115     -0.0009
     85  CD2       45.5910   84.7150   27.5530 C.ar  115  TYR115     -0.0009
     86  CE1       44.0680   82.7920   28.7950 C.ar  115  TYR115      0.0417
     87  CE2       45.7880   83.3910   27.2410 C.ar  115  TYR115      0.0417
     88  CZ        45.0230   82.4300   27.8600 C.ar  115  TYR115      0.1957
     89  OH        45.2000   81.1080   27.5290 O.3   115  TYR115     -0.2866
     90  N         47.4500   87.0450   24.0650 N.3   151  GLN151     -0.1231
     91  CA        46.9040   85.8270   23.4740 C.3   151  GLN151      0.1698
     92  C         47.6660   85.4150   22.2110 C.2   151  GLN151      0.2592
     93  O         47.3750   85.8890   21.1080 O.2   151  GLN151     -0.2718
     94  CB        45.4280   86.0220   23.1220 C.3   151  GLN151      0.0381
     95  CG        44.6060   86.6480   24.2220 C.3   151  GLN151      0.0905
     96  CD        43.1250   86.6820   23.8940 C.2   151  GLN151      0.2608
     97  OE1       42.5820   85.7440   23.3170 O.2   151  GLN151     -0.2717
     98  NE2       42.4650   87.7710   24.2610 N.am  151  GLN151     -0.0878
     99  N         48.6250   84.5140   22.3760 N.am  152  GLY152     -0.1957
    100  CA        49.3890   84.0210   21.2480 C.3   152  GLY152      0.1869
    101  C         50.7400   83.6490   21.8020 C.2   152  GLY152      0.2309
    102  O         51.5530   82.9670   21.1600 O.2   152  GLY152     -0.2863
    103  N         48.4270   80.4810   28.5810 N.3   157  PRO157     -0.2116
    104  CA        47.5170   79.4790   29.1460 C.3   157  PRO157      0.1372
    105  C         47.9220   78.9690   30.5340 C.2   157  PRO157      0.2244
    106  O         47.0980   78.9340   31.4390 O.2   157  PRO157     -0.2868
    107  CB        47.5070   78.3680   28.0910 C.3   157  PRO157      0.0268
    108  CG        47.8300   79.0780   26.8100 C.3   157  PRO157      0.0207
    109  CD        48.8060   80.1640   27.1930 C.3   157  PRO157      0.0892
    110  N         40.1860   76.6980   31.9840 N.3   184  MET184     -0.1230
    111  CA        40.6390   78.0360   31.6640 C.3   184  MET184      0.1702
    112  C         39.8260   79.0000   32.5310 C.2   184  MET184      0.2592
    113  O         39.8070   78.8640   33.7550 O.2   184  MET184     -0.2718
    114  CB        40.4280   78.3240   30.1820 C.3   184  MET184      0.0401
    115  CG        41.3740   79.3900   29.6500 C.3   184  MET184      0.0596
    116  SD        43.1270   78.9480   29.8520 S.3   184  MET184     -0.1393
    117  CE        43.3040   77.7420   28.5010 C.3   184  MET184      0.0692
    118  N         39.1450   79.9560   31.9130 N.am  185  ASP185     -0.1974
    119  CA        38.3060   80.8900   32.6670 C.3   185  ASP185      0.1709
    120  C         36.8550   80.4210   32.8340 C.2   185  ASP185      0.2293
    121  O         35.9880   81.1890   33.2550 O.2   185  ASP185     -0.2864
    122  CB        38.3180   82.2570   31.9820 C.3   185  ASP185      0.1436
    123  CG        37.6100   82.2450   30.6350 C.2   185  ASP185      0.3671
    124  OD1       36.9700   83.2690   30.3250 O.co2 185  ASP185     -0.2456
    125  OD2       37.6930   81.2290   29.8950 O.co2 185  ASP185     -0.2456
    126  N         30.4980   88.8040   33.7910 N.3   217  PRO217     -0.2116
    127  CA        29.3250   89.3070   33.0520 C.3   217  PRO217      0.1372
    128  C         28.2600   88.2140   32.8690 C.2   217  PRO217      0.2244
    129  O         28.4050   87.1250   33.4030 O.2   217  PRO217     -0.2868
    130  CB        29.9150   89.7430   31.7250 C.3   217  PRO217      0.0268
    131  CG        31.1120   88.8510   31.5510 C.3   217  PRO217      0.0207
    132  CD        31.6720   88.6370   32.9210 C.3   217  PRO217      0.0892
    133  N         26.2210   85.9970   29.7640 N.3   219  LYS219     -0.1245
    134  CA        27.2090   84.9770   30.1720 C.3   219  LYS219      0.1561
    135  C         27.1990   84.2530   31.5110 C.2   219  LYS219      0.2260
    136  O         28.0050   83.3420   31.7350 O.2   219  LYS219     -0.2867
    137  CB        28.6180   85.4930   29.9250 C.3   219  LYS219      0.0271
    138  CG        29.0920   85.1360   28.5370 C.3   219  LYS219      0.0035
    139  CD        30.5720   84.8430   28.4770 C.3   219  LYS219      0.0206
    140  CE        31.0800   85.0720   27.0650 C.3   219  LYS219      0.1093
    141  NZ        32.4510   84.5340   26.8570 N.3   219  LYS219     -0.1314
@<TRIPOS>BOND
     1     7     5    1
     2     2     5    1
     3     2     1    1
     4     2     3    1
     5     5     6    1
     6     3     4    2
     7     6     8    1
     8    12    11    2
     9    45    43    1
    10    41    40    2
    11     9    10    1
    12    42    43    1
    13    42    39    1
    14    30    29    2
    15    43    44    1
    16    21    20    2
    17    40    39    1
    18    11    10    1
    19    38    39    1
    20    20    19    1
    21    27    28    1
    22    18    19    1
    23    10    13    1
    24    29    28    1
    25    19    22    1
    26    28    31    1
    27    31    32    1
    28    32    33    1
    29    13    14    1
    30    14    15    1
    31    33    34    1
    32    22    23    1
    33    93    92    2
    34   102   101    2
    35   100   101    1
    36   100    99    1
    37    36    35    1
    38    23    24    1
    39    15    16    1
    40    34    35    2
    41    92    99   am
    42    92    91    1
    43    35    37    1
    44    16    17    1
    45    24    25    1
    46    94    91    1
    47    94    95    1
    48    97    96    2
    49    91    90    1
    50    96    95    1
    51    96    98   am
    52    26    25    1
    53    71    70   ar
    54   108   109    1
    55   108   107    1
    56   141   140    1
    57   140   139    1
    58   109   103    1
    59    87    85   ar
    60    87    88   ar
    61    89    88    1
    62    85    83   ar
    63    72    70   ar
    64    70    69    1
    65    88    86   ar
    66   107   104    1
    67   139   138    1
    68    83    82    1
    69    83    84   ar
    70   117   116    1
    71   138   137    1
    72   103   104    1
    73    82    79    1
    74    86    84   ar
    75    69    66    1
    76    66    65    1
    77    66    67    1
    78   104   105    1
    79    52    51   ar
    80    65    63   am
    81   115   116    1
    82   115   114    1
    83   133   134    1
    84   125   123   ar
    85   137   134    1
    86    67    68    2
    87    67    73   am
    88    51    53   ar
    89    51    50    1
    90    79    78    1
    91    79    80    1
    92   134   135    1
    93   114   111    1
    94    78    75   am
    95    73    74    1
    96   124   123   ar
    97    80    81    2
    98   105   106    2
    99   123   122    1
   100    63    62    1
   101    63    64    2
   102    57    56    2
   103    50    47    1
   104    77    74    1
   105    62    61    1
   106    74    75    1
   107    75    76    2
   108   135   136    2
   109   131   130    1
   110   131   132    1
   111   111   110    1
   112   111   112    1
   113   130   127    1
   114   118   112   am
   115   118   119    1
   116   122   119    1
   117    56    61   am
   118    56    55    1
   119   112   113    2
   120    47    48    1
   121    47    46    1
   122   119   120    1
   123   120   121    2
   124   128   127    1
   125   128   129    2
   126   132   126    1
   127    54    48   am
   128    54    55    1
   129   127   126    1
   130    48    49    2
   131    55    58    1
   132    58    59    1
   133    58    60    1
