@<TRIPOS>MOLECULE
tmp/3kk6A06.pdb
 100 97 0 0 0
SMALL
GASTEIGER

@<TRIPOS>ATOM
      1  N        -41.9290   56.0390    0.4160 N.3   176  HIS176     -0.1241
      2  CA       -42.1390   57.4380    0.7700 C.3   176  HIS176      0.1621
      3  C        -42.3650   57.6440    2.2670 C.2   176  HIS176      0.2264
      4  O        -42.7300   58.7370    2.6970 O.2   176  HIS176     -0.2867
      5  CB       -43.3210   58.0070   -0.0180 C.3   176  HIS176      0.0745
      6  CG       -42.9650   58.4470   -1.4050 C.ar  176  HIS176      0.0817
      7  ND1      -42.3590   57.6130   -2.3170 N.ar  176  HIS176     -0.2268
      8  CD2      -43.1360   59.6340   -2.0350 C.ar  176  HIS176      0.1154
      9  CE1      -42.1670   58.2670   -3.4500 C.ar  176  HIS176      0.1986
     10  NE2      -42.6300   59.4940   -3.3050 N.ar  176  HIS176     -0.2212
     11  N        -38.5910   58.6950    2.8700 N.3   179  PHE179     -0.1227
     12  CA       -38.0900   59.6890    1.9280 C.3   179  PHE179      0.1736
     13  C        -39.0170   60.8980    1.8880 C.2   179  PHE179      0.2595
     14  O        -40.0010   60.9070    1.1490 O.2   179  PHE179     -0.2718
     15  CB       -37.9680   59.0950    0.5220 C.3   179  PHE179      0.0547
     16  CG       -36.9120   58.0340    0.3960 C.ar  179  PHE179     -0.0202
     17  CD1      -35.6360   58.2430    0.8900 C.ar  179  PHE179     -0.0042
     18  CD2      -37.1900   56.8370   -0.2400 C.ar  179  PHE179     -0.0042
     19  CE1      -34.6640   57.2700    0.7670 C.ar  179  PHE179     -0.0003
     20  CE2      -36.2200   55.8630   -0.3680 C.ar  179  PHE179     -0.0003
     21  CZ       -34.9570   56.0790    0.1370 C.ar  179  PHE179     -0.0000
     22  N        -38.7030   61.9150    2.6840 N.am  180  LYS180     -0.1966
     23  CA       -39.4890   63.1440    2.6970 C.3   180  LYS180      0.1728
     24  C        -38.5940   64.3760    2.6440 C.2   180  LYS180      0.2617
     25  O        -38.7000   65.2590    3.4930 O.2   180  LYS180     -0.2715
     26  CB       -40.3660   63.2120    3.9470 C.3   180  LYS180      0.0311
     27  CG       -41.3700   62.0820    4.0780 C.3   180  LYS180      0.0038
     28  CD       -42.4880   62.4590    5.0380 C.3   180  LYS180      0.0206
     29  CE       -43.3010   61.2510    5.4680 C.3   180  LYS180      0.1093
     30  NZ       -44.6060   61.6530    6.0670 N.3   180  LYS180     -0.1314
     31  N        -37.8100   64.4870    1.6090 N.am  181  THR181     -0.1937
     32  CA       -36.8580   65.5400    1.5990 C.3   181  THR181      0.2028
     33  C        -37.6720   66.7770    1.8550 C.2   181  THR181      0.2643
     34  O        -38.6320   67.0560    1.1710 O.2   181  THR181     -0.2714
     35  CB       -36.1600   65.6100    0.2470 C.3   181  THR181      0.1808
     36  OG1      -35.8410   64.2910   -0.1920 O.3   181  THR181     -0.2208
     37  CG2      -34.9050   66.3610    0.3460 C.3   181  THR181      0.0379
     38  N        -37.2600   67.5090    2.8710 N.am  182  SER182     -0.1935
     39  CA       -37.9230   68.7370    3.2930 C.3   182  SER182      0.2055
     40  C        -37.6170   69.8760    2.3280 C.2   182  SER182      0.2643
     41  O        -36.4560   70.1450    2.0200 O.2   182  SER182     -0.2714
     42  CB       -37.4820   69.1200    4.7070 C.3   182  SER182      0.2130
     43  OG       -38.1370   70.2990    5.1410 O.3   182  SER182     -0.2179
     44  N        -38.6660   70.5390    1.8520 N.am  183  GLY183     -0.1954
     45  CA       -38.5110   71.6650    0.9510 C.3   183  GLY183      0.1869
     46  C        -38.0370   72.9080    1.6790 C.2   183  GLY183      0.2309
     47  O        -37.3440   73.7490    1.1060 O.2   183  GLY183     -0.2863
     48  N        -38.1770   64.8380    6.4720 N.3   191  LYS191     -0.1245
     49  CA       -39.2760   65.0760    7.3970 C.3   191  LYS191      0.1561
     50  C        -39.6340   63.7760    8.1050 C.2   191  LYS191      0.2260
     51  O        -40.0740   63.7810    9.2550 O.2   191  LYS191     -0.2867
     52  CB       -40.4940   65.6200    6.6500 C.3   191  LYS191      0.0271
     53  CG       -40.3110   67.0880    6.2520 C.3   191  LYS191      0.0035
     54  CD       -41.5380   67.7120    5.5630 C.3   191  LYS191      0.0206
     55  CE       -41.6250   67.3760    4.0750 C.3   191  LYS191      0.1093
     56  NZ       -42.4700   68.3080    3.3470 N.3   191  LYS191     -0.1314
     57  N        -51.5600   67.7520    0.6270 N.3   243  HIS243     -0.1241
     58  CA       -51.1210   68.5520   -0.5120 C.3   243  HIS243      0.1621
     59  C        -52.0000   68.3480   -1.7410 C.2   243  HIS243      0.2264
     60  O        -51.5010   68.2920   -2.8640 O.2   243  HIS243     -0.2867
     61  CB       -49.6680   68.2270   -0.8670 C.3   243  HIS243      0.0745
     62  CG       -48.6700   68.7830    0.1000 C.ar  243  HIS243      0.0817
     63  ND1      -47.7030   68.0070    0.7020 N.ar  243  HIS243     -0.2268
     64  CD2      -48.4910   70.0400    0.5700 C.ar  243  HIS243      0.1154
     65  CE1      -46.9690   68.7620    1.4990 C.ar  243  HIS243      0.1986
     66  NE2      -47.4260   69.9990    1.4380 N.ar  243  HIS243     -0.2212
     67  N        -49.0700   59.8990    5.2660 N.3   258  GLN258     -0.1231
     68  CA       -48.1540   60.4990    4.3030 C.3   258  GLN258      0.1698
     69  C        -48.9050   61.3960    3.3260 C.2   258  GLN258      0.2592
     70  O        -49.7850   60.9350    2.5990 O.2   258  GLN258     -0.2718
     71  CB       -47.3990   59.4060    3.5410 C.3   258  GLN258      0.0381
     72  CG       -46.8310   59.8370    2.1970 C.3   258  GLN258      0.0905
     73  CD       -45.7770   60.9180    2.3180 C.2   258  GLN258      0.2608
     74  OE1      -45.3420   61.2550    3.4160 O.2   258  GLN258     -0.2717
     75  NE2      -45.3560   61.4630    1.1820 N.am  258  GLN258     -0.0878
     76  N        -48.4740   62.6240    3.1950 N.am  259  GLU259     -0.1966
     77  CA       -49.1550   63.5570    2.3360 C.3   259  GLU259      0.1733
     78  C        -48.7640   63.2720    0.9110 C.2   259  GLU259      0.2616
     79  O        -48.1600   62.2680    0.6140 O.2   259  GLU259     -0.2715
     80  CB       -48.8460   65.0200    2.6930 C.3   259  GLU259      0.0429
     81  CG       -47.4480   65.2830    3.2340 C.3   259  GLU259      0.1163
     82  CD       -47.3250   64.8720    4.6630 C.2   259  GLU259      0.3649
     83  OE1      -48.3220   64.3980    5.2120 O.co2 259  GLU259     -0.2457
     84  OE2      -46.2480   65.0270    5.2500 O.co2 259  GLU259     -0.2457
     85  N        -49.1770   64.1250    0.0070 N.am  260  VAL260     -0.1977
     86  CA       -48.9780   63.8620   -1.4200 C.3   260  VAL260      0.1596
     87  C        -49.3640   62.4340   -1.8120 C.2   260  VAL260      0.2287
     88  O        -48.8520   61.8880   -2.7890 O.2   260  VAL260     -0.2864
     89  CB       -47.5240   64.1520   -1.8760 C.3   260  VAL260      0.0276
     90  CG1      -47.3850   65.6030   -2.3000 C.3   260  VAL260      0.0022
     91  CG2      -46.5180   63.8060   -0.7860 C.3   260  VAL260      0.0022
     92  N        -30.3020   67.7220   -7.8900 N.3   423  GLU423     -0.1245
     93  CA       -30.1210   67.5740   -6.4520 C.3   423  GLU423      0.1567
     94  C        -28.8150   66.8450   -6.1620 C.2   423  GLU423      0.2260
     95  O        -28.2600   66.9540   -5.0700 O.2   423  GLU423     -0.2867
     96  CB       -31.2910   66.8020   -5.8420 C.3   423  GLU423      0.0388
     97  CG       -31.5030   67.0700   -4.3630 C.3   423  GLU423      0.1160
     98  CD       -32.4900   66.1070   -3.7340 C.2   423  GLU423      0.3649
     99  OE1      -33.5500   66.5660   -3.2600 O.co2 423  GLU423     -0.2457
    100  OE2      -32.2080   64.8900   -3.7230 O.co2 423  GLU423     -0.2457
@<TRIPOS>BOND
     1    92    93    1
     2    93    94    1
     3    93    96    1
     4    94    95    2
     5    96    97    1
     6    97    98    1
     7    98   100   ar
     8    98    99   ar
     9     9    10   ar
    10     9     7   ar
    11    10     8   ar
    12    60    59    2
    13    88    87    2
    14     7     6   ar
    15    90    89    1
    16     8     6   ar
    17    89    86    1
    18    89    91    1
    19    87    86    1
    20    59    58    1
    21    86    85    1
    22     6     5    1
    23    61    58    1
    24    61    62    1
    25    58    57    1
    26    20    18   ar
    27    20    21   ar
    28    18    16   ar
    29    36    35    1
    30     5     2    1
    31    85    78   am
    32    62    64   ar
    33    62    63   ar
    34    21    19   ar
    35    35    37    1
    36    35    32    1
    37    16    15    1
    38    16    17   ar
    39     1     2    1
    40    15    12    1
    41    64    66   ar
    42    79    78    2
    43    63    65   ar
    44    19    17   ar
    45     2     3    1
    46    78    77    1
    47    45    46    1
    48    45    44    1
    49    47    46    2
    50    14    13    2
    51    34    33    2
    52    75    73   am
    53    66    65   ar
    54    32    31    1
    55    32    33    1
    56    31    24   am
    57    44    40   am
    58    33    38   am
    59    13    12    1
    60    13    22   am
    61    12    11    1
    62    41    40    2
    63    72    73    1
    64    72    71    1
    65     3     4    2
    66    73    74    2
    67    40    39    1
    68    77    80    1
    69    77    76    1
    70    70    69    2
    71    24    23    1
    72    24    25    2
    73    22    23    1
    74    80    81    1
    75    23    26    1
    76    38    39    1
    77    76    69   am
    78    81    82    1
    79    39    42    1
    80    69    68    1
    81    56    55    1
    82    71    68    1
    83    26    27    1
    84    55    54    1
    85    27    28    1
    86    68    67    1
    87    82    83   ar
    88    82    84   ar
    89    42    43    1
    90    28    29    1
    91    29    30    1
    92    54    53    1
    93    53    52    1
    94    48    49    1
    95    52    49    1
    96    49    50    1
    97    50    51    2
