@<TRIPOS>MOLECULE
tmp/3kk6A03.pdb
 230 219 0 0 0
SMALL
GASTEIGER

@<TRIPOS>ATOM
      1  N        -24.5770   36.2910   -9.3060 N.3    59  HIS59      -0.1241
      2  CA       -25.8740   36.6640   -9.8130 C.3    59  HIS59       0.1621
      3  C        -26.3710   35.5570  -10.6590 C.2    59  HIS59       0.2264
      4  O        -27.5070   35.1740  -10.5940 O.2    59  HIS59      -0.2867
      5  CB       -25.7360   37.9290  -10.6590 C.3    59  HIS59       0.0745
      6  CG       -27.0040   38.3770  -11.3150 C.ar   59  HIS59       0.0817
      7  ND1      -27.9920   39.0540  -10.6410 N.ar   59  HIS59      -0.2268
      8  CD2      -27.4370   38.2610  -12.5890 C.ar   59  HIS59       0.1154
      9  CE1      -28.9840   39.3190  -11.4690 C.ar   59  HIS59       0.1986
     10  NE2      -28.6710   38.8480  -12.6560 N.ar   59  HIS59      -0.2212
     11  N        -29.6590   32.9640  -10.1980 N.3    63  THR63      -0.1218
     12  CA       -30.6880   33.0770  -11.2280 C.3    63  THR63       0.1862
     13  C        -30.6510   31.8970  -12.1970 C.2    63  THR63       0.2287
     14  O        -31.2840   31.9330  -13.2530 O.2    63  THR63      -0.2866
     15  CB       -30.5390   34.3820  -12.0330 C.3    63  THR63       0.1770
     16  OG1      -29.2720   34.3950  -12.7020 O.3    63  THR63      -0.2211
     17  CG2      -30.6420   35.5930  -11.1190 C.3    63  THR63       0.0375
     18  N        -29.4220   32.7590    3.3660 N.3    82  MET82      -0.1245
     19  CA       -30.1730   33.9490    3.7490 C.3    82  MET82       0.1570
     20  C        -29.3590   34.8020    4.7110 C.2    82  MET82       0.2261
     21  O        -29.0960   35.9710    4.4430 O.2    82  MET82      -0.2867
     22  CB       -31.5060   33.5690    4.3930 C.3    82  MET82       0.0387
     23  CG       -32.6680   33.5130    3.4150 C.3    82  MET82       0.0595
     24  SD       -32.8050   35.0220    2.4350 S.3    82  MET82      -0.1393
     25  CE       -32.6310   36.2740    3.7060 C.3    82  MET82       0.0692
     26  N        -26.6280   36.5040    2.9780 N.3    85  VAL85      -0.1245
     27  CA       -27.0320   37.6780    2.2120 C.3    85  VAL85       0.1561
     28  C        -27.2830   38.8620    3.1400 C.2    85  VAL85       0.2260
     29  O        -27.0220   40.0090    2.7830 O.2    85  VAL85      -0.2867
     30  CB       -28.3110   37.4070    1.3970 C.3    85  VAL85       0.0252
     31  CG1      -28.8880   38.7100    0.8550 C.3    85  VAL85       0.0019
     32  CG2      -28.0210   36.4360    0.2620 C.3    85  VAL85       0.0019
     33  N        -24.3060   41.7670    3.1740 N.3    89  ARG89      -0.1245
     34  CA       -24.7950   42.9560    2.4800 C.3    89  ARG89       0.1563
     35  C        -24.8640   44.1660    3.4070 C.2    89  ARG89       0.2260
     36  O        -24.3640   45.2400    3.0780 O.2    89  ARG89      -0.2867
     37  CB       -26.1830   42.6940    1.8930 C.3    89  ARG89       0.0307
     38  CG       -26.2110   41.6850    0.7550 C.3    89  ARG89       0.0489
     39  CD       -25.8780   42.3280   -0.5790 C.3    89  ARG89       0.2205
     40  NE       -26.1940   41.4440   -1.6960 N.pl3  89  ARG89      -0.0865
     41  CZ       -26.0740   41.7820   -2.9760 C.cat  89  ARG89       0.5346
     42  NH1      -25.6410   42.9900   -3.3070 N.pl3  89  ARG89       0.1354
     43  NH2      -26.3860   40.9110   -3.9250 N.pl3  89  ARG89       0.1354
     44  N        -39.0180   40.7410  -16.4000 N.3   161  GLN161     -0.1245
     45  CA       -39.2780   39.9240  -15.2410 C.3   161  GLN161      0.1566
     46  C        -40.7470   39.7280  -15.0330 C.2   161  GLN161      0.2260
     47  O        -41.1630   38.8900  -14.2630 O.2   161  GLN161     -0.2867
     48  CB       -38.6960   40.5910  -14.0040 C.3   161  GLN161      0.0367
     49  CG       -37.2060   40.7560  -13.9970 C.3   161  GLN161      0.0905
     50  CD       -36.6250   40.7670  -12.6110 C.2   161  GLN161      0.2608
     51  OE1      -35.5340   41.2450  -12.3960 O.2   161  GLN161     -0.2717
     52  NE2      -37.3550   40.2400  -11.6660 N.am  161  GLN161     -0.0878
     53  N        -39.7630   41.1270    1.9570 N.3   314  ILE314     -0.1245
     54  CA       -38.6340   40.2200    1.7770 C.3   314  ILE314      0.1561
     55  C        -39.0220   38.9690    0.9940 C.2   314  ILE314      0.2260
     56  O        -38.3980   38.6440   -0.0150 O.2   314  ILE314     -0.2867
     57  CB       -38.0350   39.7980    3.1320 C.3   314  ILE314      0.0252
     58  CG1      -37.3020   40.9780    3.7730 C.3   314  ILE314      0.0019
     59  CG2      -37.0800   38.6250    2.9530 C.3   314  ILE314      0.0019
     60  CD1      -36.7270   40.6760    5.1390 C.3   314  ILE314      0.0001
     61  N        -41.7360   41.0910   -2.1240 N.3   317  TYR317     -0.1227
     62  CA       -41.3020   42.2480   -2.8740 C.3   317  TYR317      0.1736
     63  C        -39.9270   42.1220   -3.4790 C.2   317  TYR317      0.2595
     64  O        -39.7330   42.4260   -4.6280 O.2   317  TYR317     -0.2718
     65  CB       -41.3580   43.4410   -1.9550 C.3   317  TYR317      0.0548
     66  CG       -40.9940   44.7900   -2.5130 C.ar  317  TYR317     -0.0200
     67  CD1      -41.9510   45.6840   -2.8950 C.ar  317  TYR317     -0.0009
     68  CD2      -39.6930   45.2030   -2.5540 C.ar  317  TYR317     -0.0009
     69  CE1      -41.6140   46.9280   -3.3520 C.ar  317  TYR317      0.0417
     70  CE2      -39.3500   46.4430   -3.0120 C.ar  317  TYR317      0.0417
     71  CZ       -40.3090   47.3020   -3.4100 C.ar  317  TYR317      0.1957
     72  OH       -39.9340   48.5370   -3.8550 O.3   317  TYR317     -0.2866
     73  N        -38.9660   41.6440   -2.7150 N.am  318  VAL318     -0.1980
     74  CA       -37.6120   41.4780   -3.2290 C.3   318  VAL318      0.1595
     75  C        -37.4840   40.1290   -3.9320 C.2   318  VAL318      0.2287
     76  O        -36.4610   39.8320   -4.5460 O.2   318  VAL318     -0.2864
     77  CB       -36.5620   41.5840   -2.1040 C.3   318  VAL318      0.0276
     78  CG1      -35.1530   41.4260   -2.6600 C.3   318  VAL318      0.0022
     79  CG2      -36.6900   42.9180   -1.3850 C.3   318  VAL318      0.0022
     80  N        -38.2330   41.3130   -7.5370 N.3   321  LEU321     -0.1231
     81  CA       -37.2430   42.2220   -8.0200 C.3   321  LEU321      0.1693
     82  C        -35.9350   41.5410   -8.3180 C.2   321  LEU321      0.2592
     83  O        -35.2280   41.8960   -9.2320 O.2   321  LEU321     -0.2718
     84  CB       -37.0590   43.2770   -6.9570 C.3   321  LEU321      0.0284
     85  CG       -36.1460   44.4320   -7.2430 C.3   321  LEU321      0.0019
     86  CD1      -36.7720   45.3530   -8.2150 C.3   321  LEU321      0.0001
     87  CD2      -35.8760   45.1250   -5.9730 C.3   321  LEU321      0.0001
     88  N        -35.6050   40.5720   -7.4960 N.am  322  SER322     -0.1952
     89  CA       -34.3800   39.8310   -7.6230 C.3   322  SER322      0.1924
     90  C        -34.5240   38.7360   -8.6380 C.2   322  SER322      0.2314
     91  O        -33.6550   38.5100   -9.4430 O.2   322  SER322     -0.2863
     92  CB       -34.0750   39.2050   -6.3000 C.3   322  SER322      0.2116
     93  OG       -35.0410   38.2450   -6.0400 O.3   322  SER322     -0.2180
     94  N        -34.3760   35.8070   -8.1260 N.3   324  TYR324     -0.1241
     95  CA       -33.5490   34.7140   -7.6930 C.3   324  TYR324      0.1605
     96  C        -34.4190   33.4810   -7.3870 C.2   324  TYR324      0.2264
     97  O        -35.5660   33.6140   -7.0240 O.2   324  TYR324     -0.2867
     98  CB       -32.7090   35.1590   -6.4800 C.3   324  TYR324      0.0534
     99  CG       -31.6160   36.2130   -6.7190 C.ar  324  TYR324     -0.0201
    100  CD1      -31.2840   36.6600   -7.9770 C.ar  324  TYR324     -0.0009
    101  CD2      -30.9140   36.7440   -5.6770 C.ar  324  TYR324     -0.0009
    102  CE1      -30.3000   37.5880   -8.1720 C.ar  324  TYR324      0.0417
    103  CE2      -29.9300   37.6720   -5.8780 C.ar  324  TYR324      0.0417
    104  CZ       -29.6300   38.0850   -7.1240 C.ar  324  TYR324      0.1957
    105  OH       -28.6370   39.0060   -7.3690 O.3   324  TYR324     -0.2866
    106  N        -33.5660   31.5110   -5.0750 N.3   326  LEU326     -0.1245
    107  CA       -33.4380   31.3890   -3.6290 C.3   326  LEU326      0.1561
    108  C        -34.5910   32.1050   -2.9420 C.2   326  LEU326      0.2260
    109  O        -34.7180   33.3260   -3.0410 O.2   326  LEU326     -0.2867
    110  CB       -32.1100   31.9850   -3.1590 C.3   326  LEU326      0.0270
    111  CG       -31.9610   32.1670   -1.6460 C.3   326  LEU326      0.0019
    112  CD1      -32.1090   30.8370   -0.9220 C.3   326  LEU326      0.0001
    113  CD2      -30.6280   32.8190   -1.3110 C.3   326  LEU326      0.0001
    114  N        -36.1790   34.1250   -0.5910 N.3   328  LEU328     -0.1245
    115  CA       -35.8570   35.0840    0.4540 C.3   328  LEU328      0.1561
    116  C        -36.7700   34.8430    1.6500 C.2   328  LEU328      0.2260
    117  O        -37.9690   34.6160    1.4880 O.2   328  LEU328     -0.2867
    118  CB       -36.0260   36.5130   -0.0650 C.3   328  LEU328      0.0270
    119  CG       -35.2400   36.8520   -1.3350 C.3   328  LEU328      0.0019
    120  CD1      -35.5380   38.2720   -1.7920 C.3   328  LEU328      0.0001
    121  CD2      -33.7460   36.6600   -1.1160 C.3   328  LEU328      0.0001
    122  N        -29.4460   56.4110   -1.3090 N.3   350  PHE350     -0.1241
    123  CA       -30.5470   55.4590   -1.3130 C.3   350  PHE350      0.1605
    124  C        -31.8010   56.1780   -1.7910 C.2   350  PHE350      0.2264
    125  O        -32.5890   55.6320   -2.5610 O.2   350  PHE350     -0.2867
    126  CB       -30.7610   54.8650    0.0810 C.3   350  PHE350      0.0534
    127  CG       -31.7020   53.6950    0.1000 C.ar  350  PHE350     -0.0203
    128  CD1      -31.4950   52.6100   -0.7350 C.ar  350  PHE350     -0.0042
    129  CD2      -32.7880   53.6750    0.9590 C.ar  350  PHE350     -0.0042
    130  CE1      -32.3570   51.5310   -0.7200 C.ar  350  PHE350     -0.0003
    131  CE2      -33.6530   52.5980    0.9790 C.ar  350  PHE350     -0.0003
    132  CZ       -33.4370   51.5240    0.1380 C.ar  350  PHE350     -0.0000
    133  N        -31.1130   56.7970   -5.7910 N.3   353  LEU353     -0.1231
    134  CA       -31.2620   55.7140   -6.7570 C.3   353  LEU353      0.1693
    135  C        -32.6640   55.1140   -6.7580 C.2   353  LEU353      0.2592
    136  O        -33.0540   54.4370   -7.7090 O.2   353  LEU353     -0.2718
    137  CB       -30.2280   54.6160   -6.4880 C.3   353  LEU353      0.0284
    138  CG       -30.3450   53.8350   -5.1760 C.3   353  LEU353      0.0019
    139  CD1      -31.4640   52.8030   -5.2340 C.3   353  LEU353      0.0001
    140  CD2      -29.0210   53.1560   -4.8610 C.3   353  LEU353      0.0001
    141  N        -33.4230   55.3610   -5.6950 N.am  354  TYR354     -0.1976
    142  CA       -34.7420   54.7560   -5.5570 C.3   354  TYR354      0.1639
    143  C        -35.7810   55.4950   -6.3970 C.2   354  TYR354      0.2290
    144  O        -36.9690   55.1830   -6.3410 O.2   354  TYR354     -0.2864
    145  CB       -35.1740   54.7370   -4.0900 C.3   354  TYR354      0.0560
    146  CG       -35.8160   53.4360   -3.6600 C.ar  354  TYR354     -0.0198
    147  CD1      -37.0380   53.0340   -4.1810 C.ar  354  TYR354     -0.0009
    148  CD2      -35.1970   52.6080   -2.7310 C.ar  354  TYR354     -0.0009
    149  CE1      -37.6250   51.8450   -3.7930 C.ar  354  TYR354      0.0417
    150  CE2      -35.7760   51.4170   -2.3360 C.ar  354  TYR354      0.0417
    151  CZ       -36.9900   51.0410   -2.8700 C.ar  354  TYR354      0.1957
    152  OH       -37.5710   49.8560   -2.4790 O.3   354  TYR354     -0.2866
    153  N        -37.3920   55.3520   -9.1550 N.3   356  TRP356     -0.1241
    154  CA       -37.7290   54.4520  -10.2510 C.3   356  TRP356      0.1605
    155  C        -38.9740   54.9300  -10.9880 C.2   356  TRP356      0.2264
    156  O        -40.0310   54.3030  -10.9180 O.2   356  TRP356     -0.2867
    157  CB       -37.9440   53.0270   -9.7410 C.3   356  TRP356      0.0550
    158  CG       -36.7620   52.4550   -9.0230 C.ar  356  TRP356      0.0003
    159  CD1      -35.4600   52.8420   -9.1470 C.ar  356  TRP356      0.0946
    160  CD2      -36.7690   51.3630   -8.0950 C.ar  356  TRP356      0.0152
    161  NE1      -34.6580   52.0730   -8.3390 N.ar  356  TRP356     -0.2442
    162  CE2      -35.4370   51.1560   -7.6840 C.ar  356  TRP356      0.0810
    163  CE3      -37.7730   50.5460   -7.5660 C.ar  356  TRP356      0.0012
    164  CZ2      -35.0830   50.1670   -6.7690 C.ar  356  TRP356      0.0191
    165  CZ3      -37.4190   49.5640   -6.6570 C.ar  356  TRP356      0.0001
    166  CH2      -36.0860   49.3830   -6.2680 C.ar  356  TRP356      0.0015
    167  N        -32.9610   41.0450  -16.4560 N.3   485  SER485     -0.1202
    168  CA       -32.9860   41.7680  -15.1900 C.3   485  SER485      0.2020
    169  C        -33.7310   43.0890  -15.3400 C.2   485  SER485      0.2619
    170  O        -33.9210   43.5820  -16.4520 O.2   485  SER485     -0.2717
    171  CB       -31.5630   42.0230  -14.6920 C.3   485  SER485      0.2103
    172  OG       -30.8980   40.8050  -14.4090 O.3   485  SER485     -0.2182
    173  N        -34.1330   43.6700  -14.2270 N.am  486  ILE486     -0.1965
    174  CA       -34.8750   44.9060  -14.2450 C.3   486  ILE486      0.1727
    175  C        -33.9990   46.1270  -14.2270 C.2   486  ILE486      0.2616
    176  O        -34.4100   47.1810  -14.6260 O.2   486  ILE486     -0.2715
    177  CB       -35.7770   45.0120  -13.0650 C.3   486  ILE486      0.0290
    178  CG1      -36.5920   46.2590  -13.2050 C.3   486  ILE486      0.0022
    179  CG2      -34.9790   45.1300  -11.8090 C.3   486  ILE486      0.0023
    180  CD1      -37.8680   46.1530  -12.5410 C.3   486  ILE486      0.0001
    181  N        -32.7910   45.9740  -13.7320 N.am  487  PHE487     -0.1974
    182  CA       -31.8050   47.0450  -13.7350 C.3   487  PHE487      0.1639
    183  C        -30.3580   46.5660  -13.6880 C.2   487  PHE487      0.2290
    184  O        -30.1010   45.3940  -13.5140 O.2   487  PHE487     -0.2864
    185  CB       -32.0600   48.1030  -12.6580 C.3   487  PHE487      0.0560
    186  CG       -32.4340   47.5610  -11.3370 C.ar  487  PHE487     -0.0200
    187  CD1      -31.6290   46.6720  -10.7220 C.ar  487  PHE487     -0.0042
    188  CD2      -33.5670   47.9800  -10.6940 C.ar  487  PHE487     -0.0042
    189  CE1      -31.9530   46.1620   -9.5060 C.ar  487  PHE487     -0.0003
    190  CE2      -33.8980   47.4820   -9.4740 C.ar  487  PHE487     -0.0003
    191  CZ       -33.0860   46.5740   -8.8770 C.ar  487  PHE487     -0.0000
    192  N        -27.3360   48.8280   -9.5880 N.3   491  MET491     -0.1230
    193  CA       -28.5900   49.0680   -8.8870 C.3   491  MET491      0.1702
    194  C        -28.8570   47.9650   -7.8670 C.2   491  MET491      0.2592
    195  O        -29.4700   48.2060   -6.8290 O.2   491  MET491     -0.2718
    196  CB       -29.7460   49.1430   -9.8840 C.3   491  MET491      0.0401
    197  CG       -31.0770   49.5180   -9.2580 C.3   491  MET491      0.0596
    198  SD       -31.1160   51.2170   -8.6570 S.3   491  MET491     -0.1393
    199  CE       -31.0050   52.1240  -10.1970 C.3   491  MET491      0.0692
    200  N        -28.2880   46.8080   -8.1120 N.am  492  ILE492     -0.1980
    201  CA       -28.4690   45.6580   -7.2650 C.3   492  ILE492      0.1595
    202  C        -27.4530   45.6740   -6.1850 C.2   492  ILE492      0.2287
    203  O        -27.7060   45.3980   -5.0460 O.2   492  ILE492     -0.2864
    204  CB       -28.2000   44.4130   -8.0400 C.3   492  ILE492      0.0276
    205  CG1      -29.0020   44.4060   -9.3190 C.3   492  ILE492      0.0022
    206  CG2      -28.5520   43.2180   -7.2160 C.3   492  ILE492      0.0022
    207  CD1      -28.6750   43.2450  -10.2370 C.3   492  ILE492      0.0001
    208  N        -28.1580   48.8080   -3.9350 N.3   495  GLY495     -0.1210
    209  CA       -29.4250   48.9080   -3.2740 C.3   495  GLY495      0.1956
    210  C        -29.7060   47.7650   -2.3570 C.2   495  GLY495      0.2611
    211  O        -30.4040   47.8900   -1.3870 O.2   495  GLY495     -0.2717
    212  N        -29.1590   46.6210   -2.6720 N.am  496  ALA496     -0.1979
    213  CA       -29.3650   45.4520   -1.8220 C.3   496  ALA496      0.1597
    214  C        -28.9260   45.7230   -0.3860 C.2   496  ALA496      0.2287
    215  O        -29.6600   45.4220    0.5540 O.2   496  ALA496     -0.2864
    216  CB       -28.6340   44.2420   -2.3890 C.3   496  ALA496      0.0319
    217  N        -31.2800   48.5040    1.5760 N.3   499  SER499     -0.1202
    218  CA       -32.5680   47.9180    1.8000 C.3   499  SER499      0.2020
    219  C        -32.6160   46.8940    2.9060 C.2   499  SER499      0.2618
    220  O        -33.5450   46.8380    3.6600 O.2   499  SER499     -0.2717
    221  CB       -32.9860   47.2640    0.5010 C.3   499  SER499      0.2103
    222  OG       -34.2790   46.6980    0.6250 O.3   499  SER499     -0.2182
    223  N        -31.5980   46.0700    2.9620 N.am  500  LEU500     -0.1979
    224  CA       -31.4860   44.9410    3.8790 C.3   500  LEU500      0.1596
    225  C        -31.1520   45.4030    5.2940 C.2   500  LEU500      0.2287
    226  O        -31.5580   44.7760    6.2730 O.2   500  LEU500     -0.2864
    227  CB       -30.4210   43.9580    3.3870 C.3   500  LEU500      0.0297
    228  CG       -30.8070   43.1290    2.1600 C.3   500  LEU500      0.0022
    229  CD1      -29.6150   42.3320    1.6520 C.3   500  LEU500      0.0001
    230  CD2      -31.9720   42.2070    2.4820 C.3   500  LEU500      0.0001
@<TRIPOS>BOND
     1   167   168    1
     2   170   169    2
     3    44    45    1
     4   169   168    1
     5   169   173   am
     6    45    46    1
     7    45    48    1
     8   168   171    1
     9    46    47    2
    10   171   172    1
    11   176   175    2
    12   174   173    1
    13   174   175    1
    14   174   177    1
    15   175   181   am
    16    48    49    1
    17    49    50    1
    18   182   181    1
    19   182   183    1
    20   182   185    1
    21   183   184    2
    22    14    13    2
    23   178   177    1
    24   178   180    1
    25   177   179    1
    26    16    15    1
    27   185   186    1
    28    10     8   ar
    29    10     9   ar
    30    50    51    2
    31    50    52   am
    32     8     6   ar
    33    13    12    1
    34    15    12    1
    35    15    17    1
    36     9     7   ar
    37   186   187   ar
    38   186   188   ar
    39     6     5    1
    40     6     7   ar
    41    12    11    1
    42   155   156    2
    43   155   154    1
    44   187   189   ar
    45   188   190   ar
    46     3     4    2
    47     3     2    1
    48     5     2    1
    49   154   157    1
    50   154   153    1
    51   207   205    1
    52   199   198    1
    53   196   197    1
    54   196   193    1
    55     2     1    1
    56   157   158    1
    57   192   193    1
    58   189   191   ar
    59   190   191   ar
    60    91    90    2
    61   205   204    1
    62   197   198    1
    63    83    82    2
    64   159   158   ar
    65   159   161   ar
    66   158   160   ar
    67   193   194    1
    68    90    89    1
    69   161   162   ar
    70    82    81    1
    71    82    88   am
    72    86    85    1
    73   102   100   ar
    74   102   104   ar
    75    94    95    1
    76   200   194   am
    77   200   201    1
    78   160   162   ar
    79   160   163   ar
    80   204   201    1
    81   204   206    1
    82    81    80    1
    83    81    84    1
    84   100    99   ar
    85   194   195    2
    86   136   135    2
    87    95    96    1
    88    95    98    1
    89   162   164   ar
    90    89    88    1
    91    89    92    1
    92   163   165   ar
    93    96    97    2
    94   105   104    1
    95   201   202    1
    96    85    84    1
    97    85    87    1
    98   104   103   ar
    99   164   166   ar
   100   135   134    1
   101   135   141   am
   102   134   137    1
   103   134   133    1
   104    99    98    1
   105    99   101   ar
   106   165   166   ar
   107   137   138    1
   108   143   144    2
   109   143   142    1
   110    92    93    1
   111   202   203    2
   112   103   101   ar
   113   141   142    1
   114   142   145    1
   115   139   138    1
   116   138   140    1
   117   106   107    1
   118    64    63    2
   119    76    75    2
   120   147   149   ar
   121   147   146   ar
   122   145   146    1
   123   208   209    1
   124    75    74    1
   125    43    41    1
   126    72    71    1
   127   149   151   ar
   128   146   148   ar
   129   107   110    1
   130   107   108    1
   131    63    62    1
   132    63    73   am
   133    71    69   ar
   134    71    70   ar
   135    69    67   ar
   136    42    41    1
   137   209   210    1
   138    74    73    1
   139    74    77    1
   140   110   111    1
   141   109   108    2
   142    70    68   ar
   143    41    40    2
   144    67    66   ar
   145    62    61    1
   146    62    65    1
   147   151   152    1
   148   151   150   ar
   149   148   150   ar
   150   212   210   am
   151   212   213    1
   152    78    77    1
   153   125   124    2
   154    68    66   ar
   155    66    65    1
   156   216   213    1
   157   210   211    2
   158    77    79    1
   159   213   214    1
   160   120   119    1
   161   124   123    1
   162    40    39    1
   163   111   113    1
   164   111   112    1
   165   119   121    1
   166   119   118    1
   167   123   122    1
   168   123   126    1
   169   128   130   ar
   170   128   127   ar
   171   130   132   ar
   172   114   115    1
   173    39    38    1
   174   214   215    2
   175   118   115    1
   176    56    55    2
   177   126   127    1
   178   127   129   ar
   179   132   131   ar
   180    32    30    1
   181   115   116    1
   182   221   222    1
   183   221   218    1
   184    38    37    1
   185    31    30    1
   186   129   131   ar
   187    55    54    1
   188    30    27    1
   189   117   116    2
   190   217   218    1
   191   229   228    1
   192    54    53    1
   193    54    57    1
   194   218   219    1
   195    37    34    1
   196   228   230    1
   197   228   227    1
   198    27    26    1
   199    27    28    1
   200    24    23    1
   201    24    25    1
   202    34    33    1
   203    34    35    1
   204    29    28    2
   205   219   223   am
   206   219   220    2
   207    59    57    1
   208   223   224    1
   209    36    35    2
   210    57    58    1
   211    18    19    1
   212   227   224    1
   213    23    22    1
   214    19    22    1
   215    19    20    1
   216    58    60    1
   217   224   225    1
   218    21    20    2
   219   225   226    2
