@<TRIPOS>MOLECULE
tmp/3kkdC00.pdb
 151 143 0 0 0
SMALL
GASTEIGER

@<TRIPOS>ATOM
      1  N         28.6070   34.2630  -25.1500 N.3    69  PHE69      -0.1227
      2  CA        27.5590   33.9190  -24.1870 C.3    69  PHE69       0.1736
      3  C         26.2110   33.6420  -24.8880 C.2    69  PHE69       0.2595
      4  O         25.4950   32.7250  -24.5420 O.2    69  PHE69      -0.2718
      5  CB        27.2900   35.0250  -23.1610 C.3    69  PHE69       0.0547
      6  CG        25.9950   34.8250  -22.3760 C.ar   69  PHE69      -0.0202
      7  CD1       25.8820   33.7830  -21.4320 C.ar   69  PHE69      -0.0042
      8  CD2       24.8960   35.7040  -22.5190 C.ar   69  PHE69      -0.0042
      9  CE1       24.6910   33.5610  -20.7130 C.ar   69  PHE69      -0.0003
     10  CE2       23.7350   35.5140  -21.7770 C.ar   69  PHE69      -0.0003
     11  CZ        23.6370   34.4150  -20.8700 C.ar   69  PHE69      -0.0000
     12  N         25.8360   34.5260  -25.7790 N.am   70  TRP70      -0.1976
     13  CA        24.5350   34.4370  -26.3770 C.3    70  TRP70       0.1640
     14  C         24.4660   33.1280  -27.1940 C.2    70  TRP70       0.2290
     15  O         23.4920   32.3800  -27.1190 O.2    70  TRP70      -0.2864
     16  CB        24.2660   35.6520  -27.3100 C.3    70  TRP70       0.0576
     17  CG        23.8090   36.8560  -26.5570 C.ar   70  TRP70       0.0006
     18  CD1       24.4160   38.0800  -26.5490 C.ar   70  TRP70       0.0946
     19  CD2       22.6650   36.9650  -25.6720 C.ar   70  TRP70       0.0152
     20  NE1       23.6960   38.9490  -25.7700 N.ar   70  TRP70      -0.2442
     21  CE2       22.6200   38.3030  -25.2230 C.ar   70  TRP70       0.0810
     22  CE3       21.6480   36.0780  -25.2570 C.ar   70  TRP70       0.0012
     23  CZ2       21.6100   38.7830  -24.3490 C.ar   70  TRP70       0.0191
     24  CZ3       20.6500   36.5550  -24.4230 C.ar   70  TRP70       0.0001
     25  CH2       20.6560   37.9100  -23.9560 C.ar   70  TRP70       0.0015
     26  N         23.8690   29.9890  -25.1580 N.3    73  VAL73      -0.1245
     27  CA        22.5410   29.8730  -24.5590 C.3    73  VAL73       0.1561
     28  C         21.4450   29.6630  -25.6720 C.2    73  VAL73       0.2260
     29  O         20.2870   29.3340  -25.4230 O.2    73  VAL73      -0.2867
     30  CB        22.3760   31.1180  -23.6100 C.3    73  VAL73       0.0252
     31  CG1       21.0450   31.6010  -23.5210 C.3    73  VAL73       0.0019
     32  CG2       22.8910   30.8020  -22.2120 C.3    73  VAL73       0.0019
     33  N         18.8400   26.3620  -25.7060 N.3    76  ASP76      -0.1225
     34  CA        17.8980   26.5880  -24.5680 C.3    76  ASP76       0.1805
     35  C         16.9290   27.6830  -24.8920 C.2    76  ASP76       0.2597
     36  O         15.7140   27.5560  -24.6810 O.2    76  ASP76      -0.2718
     37  CB        18.6720   27.0140  -23.3390 C.3    76  ASP76       0.1424
     38  CG        19.5480   25.9160  -22.7690 C.2    76  ASP76       0.3668
     39  OD1       19.3070   24.7150  -23.0560 O.co2  76  ASP76      -0.2456
     40  OD2       20.4990   26.2700  -22.0310 O.co2  76  ASP76      -0.2456
     41  N         17.4620   28.7610  -25.4390 N.am   77  LEU77      -0.1979
     42  CA        16.6230   29.8580  -25.8200 C.3    77  LEU77       0.1596
     43  C         15.5290   29.3830  -26.7830 C.2    77  LEU77       0.2287
     44  O         14.3300   29.6130  -26.5200 O.2    77  LEU77      -0.2864
     45  CB        17.4250   31.0220  -26.4080 C.3    77  LEU77       0.0297
     46  CG        16.6290   32.3200  -26.4750 C.3    77  LEU77       0.0022
     47  CD1       15.7080   32.4080  -25.2740 C.3    77  LEU77       0.0001
     48  CD2       17.5330   33.5490  -26.5370 C.3    77  LEU77       0.0001
     49  N         14.3140   26.3830  -27.6580 N.3    79  GLU79      -0.1245
     50  CA        13.4730   25.3090  -27.1850 C.3    79  GLU79       0.1567
     51  C         12.2260   25.8580  -26.3980 C.2    79  GLU79       0.2260
     52  O         11.0620   25.3900  -26.5590 O.2    79  GLU79      -0.2867
     53  CB        14.3450   24.4090  -26.2920 C.3    79  GLU79       0.0388
     54  CG        13.7700   24.2350  -24.8550 C.3    79  GLU79       0.1160
     55  CD        14.5780   23.2810  -24.0100 C.2    79  GLU79       0.3649
     56  OE1       15.8010   23.0940  -24.2810 O.co2  79  GLU79      -0.2457
     57  OE2       13.9780   22.7370  -23.0490 O.co2  79  GLU79      -0.2457
     58  N          8.4020   24.6360  -25.3420 N.3    82  VAL82      -0.1245
     59  CA         7.8890   24.4060  -23.9680 C.3    82  VAL82       0.1561
     60  C          6.6660   25.2900  -23.7450 C.2    82  VAL82       0.2260
     61  O          5.5870   24.7880  -23.4190 O.2    82  VAL82      -0.2867
     62  CB         8.9450   24.6530  -22.9210 C.3    82  VAL82       0.0252
     63  CG1        8.3220   24.7870  -21.4620 C.3    82  VAL82       0.0019
     64  CG2        9.9630   23.5260  -22.9590 C.3    82  VAL82       0.0019
     65  N         10.2440   28.2930  -16.1730 N.3    93  LEU93      -0.1245
     66  CA        11.2050   28.8360  -17.0900 C.3    93  LEU93       0.1561
     67  C         11.8590   30.0270  -16.5160 C.2    93  LEU93       0.2260
     68  O         13.0440   30.1520  -16.6740 O.2    93  LEU93      -0.2867
     69  CB        10.5510   29.2110  -18.3970 C.3    93  LEU93       0.0270
     70  CG        10.1360   27.9650  -19.1520 C.3    93  LEU93       0.0019
     71  CD1        9.3100   28.4730  -20.2610 C.3    93  LEU93       0.0001
     72  CD2       11.4070   27.1930  -19.6610 C.3    93  LEU93       0.0001
     73  N         14.8870   29.1530  -14.3840 N.3    96  ARG96      -0.1231
     74  CA        16.0780   28.8270  -15.1580 C.3    96  ARG96       0.1694
     75  C         16.6890   30.0670  -15.7950 C.2    96  ARG96       0.2591
     76  O         17.9110   30.1850  -15.8910 O.2    96  ARG96      -0.2718
     77  CB        15.7480   27.7910  -16.2350 C.3    96  ARG96       0.0321
     78  CG        16.9500   27.3370  -17.0470 C.3    96  ARG96       0.0489
     79  CD        17.8720   26.4540  -16.2220 C.3    96  ARG96       0.2205
     80  NE        17.1350   25.4410  -15.4740 N.pl3  96  ARG96      -0.0865
     81  CZ        17.3480   24.1330  -15.5780 C.cat  96  ARG96       0.5346
     82  NH1       18.2800   23.6740  -16.4020 N.pl3  96  ARG96       0.1354
     83  NH2       16.6290   23.2830  -14.8580 N.pl3  96  ARG96       0.1354
     84  N         15.8390   30.9900  -16.2320 N.am   97  ILE97      -0.1980
     85  CA        16.3260   32.2110  -16.8740 C.3    97  ILE97       0.1595
     86  C         17.1170   33.0220  -15.8670 C.2    97  ILE97       0.2287
     87  O         18.2810   33.4560  -16.1560 O.2    97  ILE97      -0.2864
     88  CB        15.2140   33.0860  -17.5060 C.3    97  ILE97       0.0276
     89  CG1       14.4940   32.3630  -18.6450 C.3    97  ILE97       0.0022
     90  CG2       15.7890   34.4390  -18.0430 C.3    97  ILE97       0.0022
     91  CD1       13.0870   32.9900  -18.9540 C.3    97  ILE97       0.0001
     92  N         20.5290   31.4550  -15.0270 N.3   100  LEU100     -0.1231
     93  CA        21.5020   31.7360  -16.1090 C.3   100  LEU100      0.1693
     94  C         21.9650   33.1920  -16.1340 C.2   100  LEU100      0.2591
     95  O         23.1450   33.4420  -16.2010 O.2   100  LEU100     -0.2718
     96  CB        20.9340   31.3750  -17.4740 C.3   100  LEU100      0.0284
     97  CG        20.6240   29.8980  -17.7410 C.3   100  LEU100      0.0019
     98  CD1       19.9930   29.7730  -19.0960 C.3   100  LEU100      0.0001
     99  CD2       21.8560   28.9210  -17.5610 C.3   100  LEU100      0.0001
    100  N         21.0280   34.1440  -16.0570 N.am  101  ALA101     -0.1980
    101  CA        21.3740   35.5330  -16.0520 C.3   101  ALA101      0.1597
    102  C         22.3110   35.8430  -14.9060 C.2   101  ALA101      0.2287
    103  O         23.4000   36.4760  -15.0930 O.2   101  ALA101     -0.2864
    104  CB        20.1330   36.3870  -16.0290 C.3   101  ALA101      0.0319
    105  N         25.8020   34.4680  -15.4800 N.3   104  TYR104     -0.1241
    106  CA        26.5210   35.3160  -16.4620 C.3   104  TYR104      0.1605
    107  C         27.2090   36.4290  -15.7270 C.2   104  TYR104      0.2264
    108  O         28.4660   36.5850  -15.8310 O.2   104  TYR104     -0.2867
    109  CB        25.5840   35.8900  -17.5430 C.3   104  TYR104      0.0534
    110  CG        26.1400   37.1360  -18.2940 C.ar  104  TYR104     -0.0201
    111  CD1       27.0550   37.0400  -19.3840 C.ar  104  TYR104     -0.0009
    112  CD2       25.7720   38.4010  -17.8910 C.ar  104  TYR104     -0.0009
    113  CE1       27.6000   38.2510  -20.0160 C.ar  104  TYR104      0.0417
    114  CE2       26.2810   39.5720  -18.5190 C.ar  104  TYR104      0.0417
    115  CZ        27.1830   39.4990  -19.5580 C.ar  104  TYR104      0.1957
    116  OH        27.6080   40.7440  -20.0430 O.3   104  TYR104     -0.2866
    117  N         24.2820   43.4410  -26.0200 N.3   143  LEU143     -0.1245
    118  CA        23.4260   42.9360  -24.9620 C.3   143  LEU143      0.1561
    119  C         22.0100   42.9880  -25.5030 C.2   143  LEU143      0.2260
    120  O         21.2620   41.9930  -25.4160 O.2   143  LEU143     -0.2867
    121  CB        23.4950   43.7590  -23.6570 C.3   143  LEU143      0.0270
    122  CG        24.2710   43.2690  -22.4090 C.3   143  LEU143      0.0019
    123  CD1       24.3390   44.4030  -21.3600 C.3   143  LEU143      0.0001
    124  CD2       23.7270   41.9630  -21.7530 C.3   143  LEU143      0.0001
    125  N         15.8870   37.0610  -27.4020 N.3   150  PHE150     -0.1241
    126  CA        15.4010   36.3810  -26.1970 C.3   150  PHE150      0.1605
    127  C         13.8970   36.6970  -25.9080 C.2   150  PHE150      0.2264
    128  O         13.0320   35.8040  -25.8740 O.2   150  PHE150     -0.2867
    129  CB        16.3350   36.7450  -25.0410 C.3   150  PHE150      0.0534
    130  CG        15.7890   36.4170  -23.7240 C.ar  150  PHE150     -0.0203
    131  CD1       15.7210   35.1050  -23.3190 C.ar  150  PHE150     -0.0042
    132  CD2       15.3290   37.3990  -22.9030 C.ar  150  PHE150     -0.0042
    133  CE1       15.1890   34.7370  -22.0740 C.ar  150  PHE150     -0.0003
    134  CE2       14.7950   37.0810  -21.6540 C.ar  150  PHE150     -0.0003
    135  CZ        14.7050   35.7230  -21.2410 C.ar  150  PHE150     -0.0000
    136  N         16.1950   45.0950  -19.7900 N.3   166  LEU166     -0.1245
    137  CA        17.0060   44.0380  -19.2300 C.3   166  LEU166      0.1561
    138  C         18.4740   44.4400  -19.2800 C.2   166  LEU166      0.2260
    139  O         19.2370   44.2400  -18.3160 O.2   166  LEU166     -0.2867
    140  CB        16.7810   42.7160  -19.9950 C.3   166  LEU166      0.0270
    141  CG        17.8240   41.6290  -19.7180 C.3   166  LEU166      0.0019
    142  CD1       17.6280   41.2200  -18.2780 C.3   166  LEU166      0.0001
    143  CD2       17.7580   40.3650  -20.6600 C.3   166  LEU166      0.0001
    144  N         21.1550   44.8110  -16.3040 N.3   170  ILE170     -0.1245
    145  CA        22.3770   43.9860  -16.2700 C.3   170  ILE170      0.1561
    146  C         23.5880   44.9280  -16.1580 C.2   170  ILE170      0.2260
    147  O         24.5490   44.7060  -15.4220 O.2   170  ILE170     -0.2867
    148  CB        22.5090   43.0690  -17.5230 C.3   170  ILE170      0.0252
    149  CG1       21.5480   41.9210  -17.5750 C.3   170  ILE170      0.0019
    150  CG2       23.9840   42.4960  -17.7170 C.3   170  ILE170      0.0019
    151  CD1       21.6030   41.0680  -16.4450 C.3   170  ILE170      0.0001
@<TRIPOS>BOND
     1    49    50    1
     2   125   126    1
     3    16    17    1
     4    16    13    1
     5    14    15    2
     6    14    13    1
     7    50    51    1
     8    50    53    1
     9    43    44    2
    10    43    42    1
    11    52    51    2
    12    17    18   ar
    13    17    19   ar
    14    18    20   ar
    15    48    46    1
    16    46    45    1
    17    46    47    1
    18    45    42    1
    19    13    12    1
    20    53    54    1
    21   126   127    1
    22   126   129    1
    23   117   118    1
    24   127   128    2
    25    42    41    1
    26    12     3   am
    27    20    21   ar
    28    33    34    1
    29    28    29    2
    30    28    27    1
    31    19    22   ar
    32    19    21   ar
    33   119   120    2
    34   119   118    1
    35    41    35   am
    36    58    59    1
    37    22    24   ar
    38    21    23   ar
    39    26    27    1
    40     1     2    1
    41   129   130    1
    42   118   121    1
    43    35    36    2
    44    35    34    1
    45     3     4    2
    46     3     2    1
    47    54    55    1
    48    34    37    1
    49    27    30    1
    50    24    25   ar
    51    23    25   ar
    52    56    55   ar
    53     2     5    1
    54    55    57   ar
    55    59    60    1
    56    59    62    1
    57    60    61    2
    58   130   131   ar
    59   130   132   ar
    60   121   122    1
    61    30    31    1
    62    30    32    1
    63    37    38    1
    64   131   133   ar
    65     5     6    1
    66    39    38   ar
    67    64    62    1
    68    62    63    1
    69   132   134   ar
    70    38    40   ar
    71     8     6   ar
    72     8    10   ar
    73   122   124    1
    74   122   123    1
    75     6     7   ar
    76   133   135   ar
    77    10    11   ar
    78   134   135   ar
    79     7     9   ar
    80    11     9   ar
    81   143   141    1
    82    71    70    1
    83   116   115    1
    84   113   115   ar
    85   113   111   ar
    86   140   141    1
    87   140   137    1
    88   136   137    1
    89   141   142    1
    90    72    70    1
    91   115   114   ar
    92   111   110   ar
    93   138   137    1
    94   138   139    2
    95    70    69    1
    96    98    97    1
    97    91    89    1
    98    89    88    1
    99   114   112   ar
   100    69    66    1
   101   110   112   ar
   102   110   109    1
   103    90    88    1
   104    97    99    1
   105    97    96    1
   106   150   148    1
   107   149   148    1
   108   149   151    1
   109   109   106    1
   110   148   145    1
   111    88    85    1
   112    96    93    1
   113    66    67    1
   114    66    65    1
   115    78    77    1
   116    78    79    1
   117    85    84    1
   118    85    86    1
   119    68    67    2
   120   106   107    1
   121   106   105    1
   122    82    81    1
   123   144   145    1
   124   145   146    1
   125    77    74    1
   126    84    75   am
   127    79    80    1
   128    95    94    2
   129   146   147    2
   130    87    86    2
   131    94    93    1
   132    94   100   am
   133    93    92    1
   134   100   101    1
   135   101   104    1
   136   101   102    1
   137    76    75    2
   138   108   107    2
   139    75    74    1
   140    81    80    2
   141    81    83    1
   142    74    73    1
   143   103   102    2
