@<TRIPOS>MOLECULE
tmp/3kkdA00.pdb
 137 130 0 0 0
SMALL
GASTEIGER

@<TRIPOS>ATOM
      1  N         14.9090   15.4070    9.7290 N.3    58  LEU58      -0.1245
      2  CA        14.3370   16.7530    9.6780 C.3    58  LEU58       0.1561
      3  C         14.9770   17.6080   10.7940 C.2    58  LEU58       0.2260
      4  O         15.3310   18.7690   10.5590 O.2    58  LEU58      -0.2867
      5  CB        12.8350   16.6440    9.7970 C.3    58  LEU58       0.0270
      6  CG        11.8480   17.7200    9.3890 C.3    58  LEU58       0.0019
      7  CD1       12.1260   18.3460    8.0250 C.3    58  LEU58       0.0001
      8  CD2       10.4770   17.0370    9.4910 C.3    58  LEU58       0.0001
      9  N         18.2530   18.5830    9.4150 N.3    61  PHE61      -0.1227
     10  CA        18.1130   19.6050    8.4210 C.3    61  PHE61       0.1736
     11  C         17.9500   21.0040    9.0410 C.2    61  PHE61       0.2595
     12  O         18.6070   21.9450    8.6260 O.2    61  PHE61      -0.2718
     13  CB        16.9320   19.3890    7.4830 C.3    61  PHE61       0.0547
     14  CG        16.6160   20.6280    6.6530 C.ar   61  PHE61      -0.0202
     15  CD1       17.4730   21.0190    5.6300 C.ar   61  PHE61      -0.0042
     16  CD2       15.5210   21.4260    6.9520 C.ar   61  PHE61      -0.0042
     17  CE1       17.2080   22.1710    4.8840 C.ar   61  PHE61      -0.0003
     18  CE2       15.2370   22.5620    6.1860 C.ar   61  PHE61      -0.0003
     19  CZ        16.0980   22.9290    5.1550 C.ar   61  PHE61      -0.0000
     20  N         17.0110   21.1110    9.9850 N.am   62  TRP62      -0.1976
     21  CA        16.6610   22.4100   10.5980 C.3    62  TRP62       0.1640
     22  C         17.8870   22.9240   11.3450 C.2    62  TRP62       0.2290
     23  O         18.2320   24.0850   11.2000 O.2    62  TRP62      -0.2864
     24  CB        15.4200   22.3110   11.5140 C.3    62  TRP62       0.0576
     25  CG        14.1060   22.3050   10.7700 C.ar   62  TRP62       0.0006
     26  CD1       13.1810   21.3160   10.7440 C.ar   62  TRP62       0.0946
     27  CD2       13.6090   23.3420    9.9090 C.ar   62  TRP62       0.0152
     28  NE1       12.1250   21.6830    9.9350 N.ar   62  TRP62      -0.2442
     29  CE2       12.3650   22.9120    9.4050 C.ar   62  TRP62       0.0810
     30  CE3       14.0880   24.5930    9.5310 C.ar   62  TRP62       0.0012
     31  CZ2       11.5860   23.6920    8.5350 C.ar   62  TRP62       0.0191
     32  CZ3       13.2930   25.3890    8.6460 C.ar   62  TRP62       0.0001
     33  CH2       12.0730   24.9270    8.1720 C.ar   62  TRP62       0.0015
     34  N         20.3900   24.6510    9.0520 N.3    65  VAL65      -0.1245
     35  CA        20.0670   25.9790    8.5430 C.3    65  VAL65       0.1561
     36  C         19.8350   27.0210    9.6410 C.2    65  VAL65       0.2260
     37  O         19.5410   28.1870    9.3840 O.2    65  VAL65      -0.2867
     38  CB        18.8470   25.9520    7.6220 C.3    65  VAL65       0.0252
     39  CG1       19.1920   25.2010    6.3480 C.3    65  VAL65       0.0019
     40  CG2       17.6230   25.3920    8.3730 C.3    65  VAL65       0.0019
     41  N         15.9080   31.3660    0.6600 N.3    89  ILE89      -0.1245
     42  CA        15.0510   30.3330    1.2200 C.3    89  ILE89       0.1561
     43  C         14.6090   29.2560    0.2010 C.2    89  ILE89       0.2260
     44  O         14.6510   28.0600    0.4740 O.2    89  ILE89      -0.2867
     45  CB        13.8550   30.9460    1.8640 C.3    89  ILE89       0.0252
     46  CG1       14.3150   31.8670    3.0510 C.3    89  ILE89       0.0019
     47  CG2       12.9830   29.9040    2.4090 C.3    89  ILE89       0.0019
     48  CD1       13.3160   32.8120    3.4200 C.3    89  ILE89       0.0001
     49  N         17.5360   26.8030   -0.5770 N.3    92  LEU92      -0.1231
     50  CA        17.7850   25.8950    0.5600 C.3    92  LEU92       0.1693
     51  C         16.6760   24.8440    0.6170 C.2    92  LEU92       0.2591
     52  O         16.9640   23.6830    0.7520 O.2    92  LEU92      -0.2718
     53  CB        17.8730   26.6290    1.8880 C.3    92  LEU92       0.0284
     54  CG        19.1990   27.2960    2.2120 C.3    92  LEU92       0.0019
     55  CD1       18.9000   28.2850    3.3900 C.3    92  LEU92       0.0001
     56  CD2       20.3740   26.2910    2.5400 C.3    92  LEU92       0.0001
     57  N         15.4310   25.2390    0.3620 N.am   93  ALA93      -0.1980
     58  CA        14.2960   24.3190    0.4480 C.3    93  ALA93       0.1597
     59  C         14.3860   23.2360   -0.6380 C.2    93  ALA93       0.2287
     60  O         14.3090   22.0580   -0.3750 O.2    93  ALA93      -0.2864
     61  CB        13.0250   25.0560    0.2760 C.3    93  ALA93       0.0319
     62  N         16.9700   20.7370    0.0300 N.3    96  TYR96      -0.1241
     63  CA        16.3490   19.7730    0.9760 C.3    96  TYR96       0.1605
     64  C         15.6200   18.6430    0.1830 C.2    96  TYR96       0.2264
     65  O         15.9760   17.4730    0.2840 O.2    96  TYR96      -0.2867
     66  CB        15.3590   20.4440    2.0240 C.3    96  TYR96       0.0534
     67  CG        14.5520   19.4410    2.9050 C.ar   96  TYR96      -0.0201
     68  CD1       15.1500   18.8030    3.9720 C.ar   96  TYR96      -0.0009
     69  CD2       13.2040   19.1670    2.6670 C.ar   96  TYR96      -0.0009
     70  CE1       14.4580   17.8600    4.7960 C.ar   96  TYR96       0.0417
     71  CE2       12.4700   18.1860    3.4660 C.ar   96  TYR96       0.0417
     72  CZ        13.1220   17.5510    4.5450 C.ar   96  TYR96       0.1957
     73  OH        12.4850   16.6140    5.3730 O.3    96  TYR96      -0.2866
     74  N          5.9290   16.9660   11.7770 N.3   135  LEU135     -0.1245
     75  CA         6.1560   17.6540   10.4710 C.3   135  LEU135      0.1561
     76  C          6.0180   19.2110   10.5030 C.2   135  LEU135      0.2260
     77  O          6.9450   19.9420   10.1010 O.2   135  LEU135     -0.2867
     78  CB         5.2220   17.0980    9.3820 C.3   135  LEU135      0.0270
     79  CG         5.4850   15.6590    8.9470 C.3   135  LEU135      0.0019
     80  CD1        4.3480   15.1370    8.0660 C.3   135  LEU135      0.0001
     81  CD2        6.8280   15.5380    8.2680 C.3   135  LEU135      0.0001
     82  N          8.5050   23.8770   10.8160 N.3   139  ALA139     -0.1245
     83  CA         8.2280   24.9340    9.9050 C.3   139  ALA139      0.1562
     84  C          7.7500   26.1600   10.7100 C.2   139  ALA139      0.2260
     85  O          7.9280   27.3380   10.2660 O.2   139  ALA139     -0.2867
     86  CB         7.2500   24.4860    8.8820 C.3   139  ALA139      0.0290
     87  N         10.4180   28.6130   11.6960 N.3   142  PHE142     -0.1241
     88  CA        10.8620   29.2810   10.5050 C.3   142  PHE142      0.1605
     89  C          9.9340   30.4630   10.1300 C.2   142  PHE142      0.2264
     90  O         10.3970   31.5960    9.9160 O.2   142  PHE142     -0.2867
     91  CB        10.9540   28.2240    9.3950 C.3   142  PHE142      0.0534
     92  CG        11.0740   28.7690    8.0280 C.ar  142  PHE142     -0.0203
     93  CD1       12.2020   29.4290    7.6370 C.ar  142  PHE142     -0.0042
     94  CD2       10.0080   28.6330    7.1310 C.ar  142  PHE142     -0.0042
     95  CE1       12.3100   29.9420    6.2840 C.ar  142  PHE142     -0.0003
     96  CE2       10.0550   29.1480    5.8230 C.ar  142  PHE142     -0.0003
     97  CZ        11.2400   29.7950    5.3770 C.ar  142  PHE142     -0.0000
     98  N          3.0250   24.8570    4.0490 N.3   158  LEU158     -0.1231
     99  CA         4.3670   24.4490    3.6330 C.3   158  LEU158      0.1693
    100  C          4.5350   22.9260    3.5910 C.2   158  LEU158      0.2592
    101  O          5.0530   22.3540    2.5840 O.2   158  LEU158     -0.2718
    102  CB         5.4360   24.9940    4.5570 C.3   158  LEU158      0.0284
    103  CG         6.8870   24.6100    4.2660 C.3   158  LEU158      0.0019
    104  CD1        7.2090   25.1580    2.7410 C.3   158  LEU158      0.0001
    105  CD2        7.9280   25.1460    5.3090 C.3   158  LEU158      0.0001
    106  N          4.1460   22.3000    4.6850 N.am  159  THR159     -0.1953
    107  CA         4.1280   20.8650    4.7930 C.3   159  THR159      0.1897
    108  C          3.3730   20.1830    3.6430 C.2   159  THR159      0.2313
    109  O          3.8330   19.1700    3.0750 O.2   159  THR159     -0.2863
    110  CB         3.5670   20.4370    6.1700 C.3   159  THR159      0.1794
    111  OG1        4.5270   20.8590    7.1250 O.3   159  THR159     -0.2208
    112  CG2        3.4560   18.8860    6.3180 C.3   159  THR159      0.0378
    113  N          5.4090   20.5160    0.3930 N.3   162  ILE162     -0.1231
    114  CA         6.6030   19.7090    0.3370 C.3   162  ILE162      0.1692
    115  C          6.2180   18.2190    0.1980 C.2   162  ILE162      0.2591
    116  O          6.8800   17.4860   -0.5530 O.2   162  ILE162     -0.2718
    117  CB         7.5110   19.9230    1.5620 C.3   162  ILE162      0.0266
    118  CG1        8.0410   21.3870    1.5920 C.3   162  ILE162      0.0019
    119  CG2        8.6460   18.8730    1.5360 C.3   162  ILE162      0.0020
    120  CD1        9.2560   21.5730    0.6860 C.3   162  ILE162      0.0001
    121  N          5.1870   17.7470    0.8720 N.am  163  LEU163     -0.1980
    122  CA         4.8130   16.3290    0.8020 C.3   163  LEU163      0.1596
    123  C          4.4240   15.9670   -0.6370 C.2   163  LEU163      0.2287
    124  O          4.7380   14.8930   -1.1600 O.2   163  LEU163     -0.2864
    125  CB         3.6260   16.0270    1.7380 C.3   163  LEU163      0.0297
    126  CG         3.9950   16.0630    3.2470 C.3   163  LEU163      0.0022
    127  CD1        2.8100   15.9580    4.1580 C.3   163  LEU163      0.0001
    128  CD2        5.0490   14.9520    3.5490 C.3   163  LEU163      0.0001
    129  N          7.5830   15.8310   -2.7550 N.3   165  GLU165     -0.1245
    130  CA         8.2120   14.5700   -2.5470 C.3   165  GLU165      0.1567
    131  C          7.5550   13.3950   -3.3030 C.2   165  GLU165      0.2260
    132  O          8.2170   12.6130   -3.9040 O.2   165  GLU165     -0.2867
    133  CB         8.3050   14.2300   -1.0710 C.3   165  GLU165      0.0388
    134  CG         9.4170   15.0600   -0.4170 C.3   165  GLU165      0.1160
    135  CD         9.4100   14.9450    1.0700 C.2   165  GLU165      0.3649
    136  OE1        8.4210   14.4260    1.5820 O.co2 165  GLU165     -0.2457
    137  OE2       10.3850   15.3750    1.7240 O.co2 165  GLU165     -0.2457
@<TRIPOS>BOND
     1   132   131    2
     2   131   130    1
     3   129   130    1
     4   130   133    1
     5   124   123    2
     6   133   134    1
     7    59    60    2
     8    59    58    1
     9   123   122    1
    10    49    50    1
    11   116   115    2
    12   134   135    1
    13    62    63    1
    14    64    65    2
    15    64    63    1
    16   115   114    1
    17   115   121   am
    18    43    44    2
    19    43    42    1
    20    61    58    1
    21   114   113    1
    22   114   117    1
    23    57    58    1
    24    57    51   am
    25    50    51    1
    26    50    53    1
    27    51    52    2
    28    41    42    1
    29   120   118    1
    30   122   121    1
    31   122   125    1
    32    63    66    1
    33   135   136   ar
    34   135   137   ar
    35    42    45    1
    36   119   117    1
    37   117   118    1
    38   125   126    1
    39    45    47    1
    40    45    46    1
    41    53    54    1
    42    66    67    1
    43    54    56    1
    44    54    55    1
    45   101   100    2
    46    69    67   ar
    47    69    71   ar
    48   104   103    1
    49    67    68   ar
    50    46    48    1
    51   109   108    2
    52   126   128    1
    53   126   127    1
    54    71    72   ar
    55   100    99    1
    56   100   106   am
    57    99    98    1
    58    99   102    1
    59   108   107    1
    60    68    70   ar
    61   103   102    1
    62   103   105    1
    63    72    70   ar
    64    72    73    1
    65   106   107    1
    66   107   110    1
    67    17    19   ar
    68    17    15   ar
    69    19    18   ar
    70    97    96   ar
    71    97    95   ar
    72    15    14   ar
    73    96    94   ar
    74   110   112    1
    75   110   111    1
    76    18    16   ar
    77    95    93   ar
    78    39    38    1
    79    14    16   ar
    80    14    13    1
    81    94    92   ar
    82    13    10    1
    83    38    40    1
    84    38    35    1
    85    93    92   ar
    86     7     6    1
    87    92    91    1
    88    80    79    1
    89    33    31   ar
    90    33    32   ar
    91    81    79    1
    92    10    11    1
    93    10     9    1
    94    31    29   ar
    95    35    34    1
    96    35    36    1
    97    12    11    2
    98    32    30   ar
    99    86    83    1
   100    79    78    1
   101    11    20   am
   102    78    75    1
   103    37    36    2
   104     6     8    1
   105     6     5    1
   106    91    88    1
   107    29    27   ar
   108    29    28   ar
   109    30    27   ar
   110     2     1    1
   111     2     5    1
   112     2     3    1
   113    83    84    1
   114    83    82    1
   115    27    25   ar
   116    90    89    2
   117    28    26   ar
   118    20    21    1
   119    77    76    2
   120    89    88    1
   121    85    84    2
   122    75    76    1
   123    75    74    1
   124    88    87    1
   125     4     3    2
   126    21    22    1
   127    21    24    1
   128    26    25   ar
   129    25    24    1
   130    23    22    2
