@<TRIPOS>MOLECULE
tmp/3kkfA00.pdb
 115 106 0 0 0
SMALL
GASTEIGER

@<TRIPOS>ATOM
      1  N         20.0390   -6.4080   22.0270 N.3     7  ARG7       -0.1245
      2  CA        20.5180   -7.7000   21.6230 C.3     7  ARG7        0.1563
      3  C         21.1820   -7.6310   20.2570 C.2     7  ARG7        0.2260
      4  O         20.8410   -6.7780   19.4200 O.2     7  ARG7       -0.2867
      5  CB        19.3370   -8.6940   21.5690 C.3     7  ARG7        0.0307
      6  CG        19.7480  -10.1610   21.4300 C.3     7  ARG7        0.0489
      7  CD        18.5580  -11.1090   21.6260 C.3     7  ARG7        0.2205
      8  NE        17.6640  -11.0300   20.4770 N.pl3   7  ARG7       -0.0865
      9  CZ        16.5560  -11.7610   20.3510 C.cat   7  ARG7        0.5346
     10  NH1       16.2200  -12.6290   21.2930 N.pl3   7  ARG7        0.1354
     11  NH2       15.7950  -11.6350   19.2640 N.pl3   7  ARG7        0.1354
     12  N         21.7160  -10.1170   17.0880 N.3     9  SER9       -0.1217
     13  CA        21.4540  -11.4000   16.4120 C.3     9  SER9        0.1889
     14  C         22.5150  -11.5720   15.3450 C.2     9  SER9        0.2288
     15  O         22.7150  -10.6740   14.5210 O.2     9  SER9       -0.2866
     16  CB        20.0890  -11.4690   15.7580 C.3     9  SER9        0.2089
     17  OG        19.0320  -11.5210   16.6580 O.3     9  SER9       -0.2183
     18  N         23.5140  -14.0490   12.2610 N.3    11  ILE11      -0.1245
     19  CA        22.8800  -15.0520   11.4360 C.3    11  ILE11       0.1561
     20  C         23.7670  -15.4600   10.2850 C.2    11  ILE11       0.2260
     21  O         24.4590  -14.6160    9.7040 O.2    11  ILE11      -0.2867
     22  CB        21.5320  -14.4560   10.8560 C.3    11  ILE11       0.0252
     23  CG1       20.7360  -13.7000   11.9700 C.3    11  ILE11       0.0019
     24  CG2       20.6860  -15.5530   10.1780 C.3    11  ILE11       0.0019
     25  CD1       19.6510  -12.7690   11.5010 C.3    11  ILE11       0.0001
     26  N         22.3590   -8.1470   13.3050 N.3    55  ILE55      -0.1245
     27  CA        21.3300   -7.1680   13.5470 C.3    55  ILE55       0.1561
     28  C         21.4650   -6.6140   14.9770 C.2    55  ILE55       0.2260
     29  O         21.4500   -7.3790   15.9490 O.2    55  ILE55      -0.2867
     30  CB        19.8820   -7.7560   13.3770 C.3    55  ILE55       0.0252
     31  CG1       19.7570   -8.5600   12.0740 C.3    55  ILE55       0.0019
     32  CG2       18.8260   -6.6290   13.4330 C.3    55  ILE55       0.0019
     33  CD1       18.4160   -9.1360   11.8510 C.3    55  ILE55       0.0001
     34  N          9.3390   -6.6290   22.9810 N.3    65  TYR65      -0.1241
     35  CA         9.9290   -7.7520   22.2710 C.3    65  TYR65       0.1605
     36  C          8.9170   -8.9170   22.1240 C.2    65  TYR65       0.2264
     37  O          8.7390   -9.4790   21.0520 O.2    65  TYR65      -0.2867
     38  CB        11.2180   -8.2260   22.9920 C.3    65  TYR65       0.0534
     39  CG        11.7430   -9.5180   22.4020 C.ar   65  TYR65      -0.0201
     40  CD1       12.2870   -9.5470   21.1380 C.ar   65  TYR65      -0.0009
     41  CD2       11.6470  -10.7140   23.1020 C.ar   65  TYR65      -0.0009
     42  CE1       12.7410  -10.7140   20.5810 C.ar   65  TYR65       0.0417
     43  CE2       12.0990  -11.8910   22.5500 C.ar   65  TYR65       0.0417
     44  CZ        12.6520  -11.8790   21.2810 C.ar   65  TYR65       0.1957
     45  OH        13.1160  -13.0470   20.7070 O.3    65  TYR65      -0.2866
     46  N          7.4010  -10.5070   18.4580 N.3    69  ILE69      -0.1245
     47  CA         7.5010  -11.8620   17.9310 C.3    69  ILE69       0.1561
     48  C          6.1390  -12.5590   17.7640 C.2    69  ILE69       0.2260
     49  O          6.0810  -13.6550   17.2020 O.2    69  ILE69      -0.2867
     50  CB         8.5260  -12.7230   18.6920 C.3    69  ILE69       0.0252
     51  CG1        8.0500  -13.0350   20.1260 C.3    69  ILE69       0.0019
     52  CG2        9.8930  -12.0620   18.6410 C.3    69  ILE69       0.0019
     53  CD1        9.0080  -13.9880   20.9110 C.3    69  ILE69       0.0001
     54  N          6.3640  -10.4690   11.7410 N.3    74  PHE74      -0.1241
     55  CA         7.4640  -11.2930   12.2400 C.3    74  PHE74       0.1605
     56  C          7.2350  -12.7610   11.8460 C.2    74  PHE74       0.2264
     57  O          8.1680  -13.4430   11.4310 O.2    74  PHE74      -0.2867
     58  CB         7.6270  -11.1820   13.7610 C.3    74  PHE74       0.0534
     59  CG         8.7750  -11.9820   14.2700 C.ar   74  PHE74      -0.0203
     60  CD1       10.0680  -11.5280   14.1030 C.ar   74  PHE74      -0.0042
     61  CD2        8.5740  -13.2400   14.8250 C.ar   74  PHE74      -0.0042
     62  CE1       11.1370  -12.2780   14.5300 C.ar   74  PHE74      -0.0003
     63  CE2        9.6620  -13.9990   15.2560 C.ar   74  PHE74      -0.0003
     64  CZ        10.9320  -13.5060   15.1010 C.ar   74  PHE74      -0.0000
     65  N          8.2100  -13.5490    8.2380 N.3    77  TYR77      -0.1227
     66  CA         9.6610  -13.6460    8.1570 C.3    77  TYR77       0.1736
     67  C         10.2040  -14.9400    8.7610 C.2    77  TYR77       0.2595
     68  O         11.0100  -15.6370    8.1370 O.2    77  TYR77      -0.2718
     69  CB        10.2860  -12.4290    8.8670 C.3    77  TYR77       0.0548
     70  CG        11.7340  -12.5760    9.2300 C.ar   77  TYR77      -0.0200
     71  CD1       12.7290  -12.5940    8.2710 C.ar   77  TYR77      -0.0009
     72  CD2       12.1240  -12.6400   10.5570 C.ar   77  TYR77      -0.0009
     73  CE1       14.0720  -12.7480    8.6210 C.ar   77  TYR77       0.0417
     74  CE2       13.4610  -12.7610   10.9020 C.ar   77  TYR77       0.0417
     75  CZ        14.4260  -12.8270    9.9400 C.ar   77  TYR77       0.1957
     76  OH        15.7520  -12.9540   10.2790 O.3    77  TYR77      -0.2866
     77  N          9.7880  -15.2540    9.9900 N.am   78  LYS78      -0.1980
     78  CA        10.3020  -16.4330   10.6920 C.3    78  LYS78       0.1596
     79  C          9.9570  -17.7310    9.9220 C.2    78  LYS78       0.2287
     80  O         10.8190  -18.5910    9.7260 O.2    78  LYS78      -0.2864
     81  CB         9.7460  -16.4550   12.1530 C.3    78  LYS78       0.0298
     82  CG        10.3630  -17.5350   13.0740 C.3    78  LYS78       0.0038
     83  CD        11.8250  -17.2250   13.4370 C.3    78  LYS78       0.0206
     84  CE        12.3830  -18.2690   14.4290 C.3    78  LYS78       0.1093
     85  NZ        13.8470  -18.1460   14.6530 N.3    78  LYS78      -0.1314
     86  N         11.6960  -17.8570    6.2120 N.3    81  THR81      -0.1218
     87  CA        13.1380  -18.0580    6.2040 C.3    81  THR81       0.1862
     88  C         13.6490  -19.2430    7.0070 C.2    81  THR81       0.2287
     89  O         14.8420  -19.4590    7.0650 O.2    81  THR81      -0.2866
     90  CB        13.8880  -16.7790    6.6940 C.3    81  THR81       0.1770
     91  OG1       13.6360  -16.5510    8.0880 O.3    81  THR81      -0.2211
     92  CG2       13.4870  -15.5710    5.8660 C.3    81  THR81       0.0375
     93  N         18.1210  -20.5100    7.2700 N.3    84  VAL84      -0.1245
     94  CA        19.0520  -20.1310    8.3370 C.3    84  VAL84       0.1561
     95  C         19.9110  -21.3330    8.7950 C.2    84  VAL84       0.2260
     96  O         19.3860  -22.3900    9.2110 O.2    84  VAL84      -0.2867
     97  CB        18.2970  -19.4710    9.4980 C.3    84  VAL84       0.0252
     98  CG1       19.2340  -19.1590   10.6510 C.3    84  VAL84       0.0019
     99  CG2       17.5960  -18.2020    9.0100 C.3    84  VAL84       0.0019
    100  N         22.0310  -19.2650   14.0670 N.3    86  LEU86      -0.1245
    101  CA        21.4080  -18.1090   14.7130 C.3    86  LEU86       0.1561
    102  C         22.0270  -17.9880   16.1020 C.2    86  LEU86       0.2260
    103  O         21.9390  -18.9290   16.8800 O.2    86  LEU86      -0.2867
    104  CB        19.9230  -18.2250   14.8290 C.3    86  LEU86       0.0270
    105  CG        19.1750  -17.1110   15.5610 C.3    86  LEU86       0.0019
    106  CD1       19.3450  -15.7630   14.8300 C.3    86  LEU86       0.0001
    107  CD2       17.7240  -17.5070   15.7360 C.3    86  LEU86       0.0001
    108  N         21.9740  -15.5370   19.4660 N.3    88  LEU88      -0.1245
    109  CA        21.1800  -14.5030   20.1200 C.3    88  LEU88       0.1561
    110  C         21.9910  -14.0320   21.3150 C.2    88  LEU88       0.2260
    111  O         22.1080  -14.7530   22.3280 O.2    88  LEU88      -0.2867
    112  CB        19.8480  -15.0770   20.5450 C.3    88  LEU88       0.0270
    113  CG        18.9490  -15.5800   19.4300 C.3    88  LEU88       0.0019
    114  CD1       17.7000  -16.2780   19.9960 C.3    88  LEU88       0.0001
    115  CD2       18.5710  -14.4370   18.4550 C.3    88  LEU88       0.0001
@<TRIPOS>BOND
     1    92    90    1
     2    87    86    1
     3    87    90    1
     4    87    88    1
     5    90    91    1
     6    88    89    2
     7    93    94    1
     8    68    67    2
     9    66    65    1
    10    66    67    1
    11    66    69    1
    12    71    73   ar
    13    71    70   ar
    14    94    95    1
    15    94    97    1
    16    73    75   ar
    17    67    77   am
    18    95    96    2
    19    69    70    1
    20    99    97    1
    21    70    72   ar
    22    97    98    1
    23    21    20    2
    24    80    79    2
    25    79    78    1
    26    75    76    1
    27    75    74   ar
    28    77    78    1
    29    24    22    1
    30    20    19    1
    31    72    74   ar
    32    78    81    1
    33    22    19    1
    34    22    23    1
    35    57    56    2
    36    19    18    1
    37    25    23    1
    38    54    55    1
    39    56    55    1
    40    33    31    1
    41    31    30    1
    42    81    82    1
    43    55    58    1
    44    82    83    1
    45    26    27    1
    46    30    32    1
    47    30    27    1
    48    83    84    1
    49    27    28    1
    50    58    59    1
    51   100   101    1
    52    60    59   ar
    53    60    62   ar
    54    59    61   ar
    55    84    85    1
    56    15    14    2
    57    62    64   ar
    58   101   104    1
    59   101   102    1
    60    61    63   ar
    61   104   105    1
    62   106   105    1
    63    28    29    2
    64    64    63   ar
    65    14    13    1
    66   105   107    1
    67    16    13    1
    68    16    17    1
    69   102   103    2
    70    13    12    1
    71    49    48    2
    72    48    47    1
    73    47    46    1
    74    47    50    1
    75   115   113    1
    76    52    50    1
    77    50    51    1
    78    11     9    1
    79     4     3    2
    80   113   114    1
    81   113   112    1
    82   108   109    1
    83   109   112    1
    84   109   110    1
    85    51    53    1
    86     3     2    1
    87     9     8    2
    88     9    10    1
    89     8     7    1
    90    42    40   ar
    91    42    44   ar
    92    45    44    1
    93    37    36    2
    94    40    39   ar
    95    44    43   ar
    96   110   111    2
    97     6     5    1
    98     6     7    1
    99     5     2    1
   100     2     1    1
   101    36    35    1
   102    35    34    1
   103    35    38    1
   104    39    38    1
   105    39    41   ar
   106    43    41   ar
