@<TRIPOS>MOLECULE
tmp/3kkgA00.pdb
 146 138 0 0 0
SMALL
GASTEIGER

@<TRIPOS>ATOM
      1  N         25.8840   33.4300    1.4610 N.3    23  TRP23      -0.1241
      2  CA        26.5170   32.0910    1.6130 C.3    23  TRP23       0.1605
      3  C         28.0120   32.2050    1.3120 C.2    23  TRP23       0.2264
      4  O         28.3910   32.8540    0.3210 O.2    23  TRP23      -0.2867
      5  CB        25.8840   31.1050    0.6470 C.3    23  TRP23       0.0550
      6  CG        26.3720   29.7050    0.7410 C.ar   23  TRP23       0.0003
      7  CD1       26.9510   29.0010   -0.2600 C.ar   23  TRP23       0.0946
      8  CD2       26.3280   28.8310    1.8850 C.ar   23  TRP23       0.0152
      9  NE1       27.2620   27.7340    0.1750 N.ar   23  TRP23      -0.2442
     10  CE2       26.8940   27.6060    1.4830 C.ar   23  TRP23       0.0810
     11  CE3       25.8560   28.9620    3.1970 C.ar   23  TRP23       0.0012
     12  CZ2       27.0310   26.5310    2.3400 C.ar   23  TRP23       0.0191
     13  CZ3       25.9720   27.8850    4.0430 C.ar   23  TRP23       0.0001
     14  CH2       26.5450   26.6700    3.5810 C.ar   23  TRP23       0.0015
     15  N         29.9130   27.1590   16.9160 N.3    44  PHE44      -0.1241
     16  CA        30.1240   26.0520   16.0050 C.3    44  PHE44       0.1605
     17  C         30.1440   24.7870   16.8290 C.2    44  PHE44       0.2264
     18  O         31.0920   24.5610   17.5820 O.2    44  PHE44      -0.2867
     19  CB        31.4330   26.2700   15.2640 C.3    44  PHE44       0.0534
     20  CG        31.7470   25.2570   14.2240 C.ar   44  PHE44      -0.0203
     21  CD1       31.1130   25.2780   13.0310 C.ar   44  PHE44      -0.0042
     22  CD2       32.7220   24.3210   14.4310 C.ar   44  PHE44      -0.0042
     23  CE1       31.4710   24.3980   12.0070 C.ar   44  PHE44      -0.0003
     24  CE2       33.0620   23.3970   13.4200 C.ar   44  PHE44      -0.0003
     25  CZ        32.4040   23.4290   12.2420 C.ar   44  PHE44      -0.0000
     26  N         34.0350   31.9850    9.5010 N.3    60  ASN60      -0.1240
     27  CA        33.3060   31.4080    8.3750 C.3    60  ASN60       0.1653
     28  C         34.1850   31.2600    7.1390 C.2    60  ASN60       0.2266
     29  O         34.1400   30.2420    6.4570 O.2    60  ASN60      -0.2867
     30  CB        32.0740   32.2820    8.0590 C.3    60  ASN60       0.1155
     31  CG        31.0380   31.5930    7.2200 C.2    60  ASN60       0.2627
     32  OD1       30.6180   32.1130    6.1660 O.2    60  ASN60      -0.2716
     33  ND2       30.5250   30.5340    7.7140 N.am   60  ASN60      -0.0877
     34  N         36.2960   28.1650    7.2780 N.3    63  LEU63      -0.1231
     35  CA        35.5690   26.9770    6.9100 C.3    63  LEU63       0.1693
     36  C         35.4570   26.8110    5.3970 C.2    63  LEU63       0.2592
     37  O         35.6180   25.7270    4.8520 O.2    63  LEU63      -0.2718
     38  CB        34.1600   26.9650    7.5640 C.3    63  LEU63       0.0284
     39  CG        34.0560   26.9820    9.0880 C.3    63  LEU63       0.0019
     40  CD1       32.5760   27.1210    9.5340 C.3    63  LEU63       0.0001
     41  CD2       34.6760   25.7160    9.6820 C.3    63  LEU63       0.0001
     42  N         35.0760   27.8910    4.6820 N.am   64  PHE64      -0.1976
     43  CA        34.9050   27.8410    3.2550 C.3    64  PHE64       0.1639
     44  C         36.2000   27.6680    2.4520 C.2    64  PHE64       0.2290
     45  O         36.1450   27.2910    1.3120 O.2    64  PHE64      -0.2864
     46  CB        34.0660   29.0280    2.7560 C.3    64  PHE64       0.0560
     47  CG        32.5820   28.8180    3.0220 C.ar   64  PHE64      -0.0200
     48  CD1       32.0290   29.1770    4.2050 C.ar   64  PHE64      -0.0042
     49  CD2       31.8010   28.2100    2.0710 C.ar   64  PHE64      -0.0042
     50  CE1       30.7000   28.9310    4.4920 C.ar   64  PHE64      -0.0003
     51  CE2       30.4730   27.9770    2.2990 C.ar   64  PHE64      -0.0003
     52  CZ        29.9120   28.3320    3.5220 C.ar   64  PHE64      -0.0000
     53  N         36.0410   24.0210    1.7170 N.3    67  PHE67      -0.1241
     54  CA        35.0230   23.5940    0.7460 C.3    67  PHE67       0.1605
     55  C         34.6140   24.8290   -0.0850 C.2    67  PHE67       0.2264
     56  O         33.5300   25.3560    0.0890 O.2    67  PHE67      -0.2867
     57  CB        33.8130   23.0120    1.4420 C.3    67  PHE67       0.0534
     58  CG        34.0840   21.7530    2.2120 C.ar   67  PHE67      -0.0203
     59  CD1       34.5490   21.8150    3.5100 C.ar   67  PHE67      -0.0042
     60  CD2       33.9150   20.4900    1.6360 C.ar   67  PHE67      -0.0042
     61  CE1       34.8120   20.6640    4.2210 C.ar   67  PHE67      -0.0003
     62  CE2       34.1340   19.3150    2.3730 C.ar   67  PHE67      -0.0003
     63  CZ        34.5990   19.4090    3.6550 C.ar   67  PHE67      -0.0000
     64  N         31.2070   24.7270   -1.8320 N.3    70  LEU70      -0.1245
     65  CA        30.1350   24.0700   -1.0710 C.3    70  LEU70       0.1561
     66  C         28.7850   24.6160   -1.5020 C.2    70  LEU70       0.2260
     67  O         28.5690   25.8220   -1.5560 O.2    70  LEU70      -0.2867
     68  CB        30.3490   24.3190    0.4150 C.3    70  LEU70       0.0270
     69  CG        29.5860   23.3780    1.3560 C.3    70  LEU70       0.0019
     70  CD1       30.0130   21.9370    1.2420 C.3    70  LEU70       0.0001
     71  CD2       29.8320   23.8660    2.7780 C.3    70  LEU70       0.0001
     72  N         24.3220   19.9280    2.6740 N.3    90  LEU90      -0.1245
     73  CA        25.5780   20.4400    2.1250 C.3    90  LEU90       0.1561
     74  C         26.2160   19.3800    1.2490 C.2    90  LEU90       0.2260
     75  O         26.3230   18.2290    1.6720 O.2    90  LEU90      -0.2867
     76  CB        26.5780   20.7110    3.2560 C.3    90  LEU90       0.0270
     77  CG        26.1180   21.6960    4.2970 C.3    90  LEU90       0.0019
     78  CD1       27.2070   21.8600    5.3980 C.3    90  LEU90       0.0001
     79  CD2       25.7760   23.0380    3.6940 C.3    90  LEU90       0.0001
     80  N         41.0990   21.9550    5.7950 N.3    98  PHE98      -0.1241
     81  CA        39.8960   22.0400    6.6850 C.3    98  PHE98       0.1605
     82  C         40.1880   21.4350    8.0700 C.2    98  PHE98       0.2264
     83  O         40.4190   20.2500    8.1830 O.2    98  PHE98      -0.2867
     84  CB        38.7320   21.2830    6.0440 C.3    98  PHE98       0.0534
     85  CG        37.4170   21.4600    6.7680 C.ar   98  PHE98      -0.0203
     86  CD1       36.7420   22.6660    6.6920 C.ar   98  PHE98      -0.0042
     87  CD2       36.8540   20.4260    7.4700 C.ar   98  PHE98      -0.0042
     88  CE1       35.4940   22.8050    7.3160 C.ar   98  PHE98      -0.0003
     89  CE2       35.6410   20.5950    8.1110 C.ar   98  PHE98      -0.0003
     90  CZ        34.9560   21.7700    7.9980 C.ar   98  PHE98      -0.0000
     91  N         31.6130   15.3890    0.3290 N.3   107  VAL107     -0.1245
     92  CA        30.7330   15.2190    1.4730 C.3   107  VAL107      0.1561
     93  C         29.3100   15.4960    1.0350 C.2   107  VAL107      0.2260
     94  O         29.0580   16.2460    0.0740 O.2   107  VAL107     -0.2867
     95  CB        31.1070   16.1670    2.6850 C.3   107  VAL107      0.0252
     96  CG1       32.5570   15.9830    3.0060 C.3   107  VAL107      0.0019
     97  CG2       30.7340   17.6030    2.4180 C.3   107  VAL107      0.0019
     98  N         25.9770   15.9470    3.5690 N.3   109  VAL109     -0.1245
     99  CA        25.5270   15.8880    4.9530 C.3   109  VAL109      0.1561
    100  C         24.3700   16.8430    5.2400 C.2   109  VAL109      0.2260
    101  O         24.3240   17.9260    4.6700 O.2   109  VAL109     -0.2867
    102  CB        26.6830   16.1630    5.9710 C.3   109  VAL109      0.0252
    103  CG1       27.6470   14.9690    6.0200 C.3   109  VAL109      0.0019
    104  CG2       27.3920   17.5020    5.6680 C.3   109  VAL109      0.0019
    105  N         22.4670   19.4660    7.9020 N.3   111  ASP111     -0.1239
    106  CA        22.8970   20.3700    8.9430 C.3   111  ASP111      0.1674
    107  C         21.7050   21.0800    9.5220 C.2   111  ASP111      0.2266
    108  O         20.5580   20.9290    9.0520 O.2   111  ASP111     -0.2867
    109  CB        23.9960   21.2600    8.4790 C.3   111  ASP111      0.1410
    110  CG        23.5850   22.3850    7.6090 C.2   111  ASP111      0.3668
    111  OD1       22.3940   22.5630    7.3050 O.co2 111  ASP111     -0.2456
    112  OD2       24.4990   23.1240    7.1480 O.co2 111  ASP111     -0.2456
    113  N         25.3060   26.2880   15.2520 N.3   126  TYR126     -0.1241
    114  CA        25.4340   25.3970   14.1320 C.3   126  TYR126      0.1605
    115  C         25.7480   23.9740   14.5390 C.2   126  TYR126      0.2264
    116  O         26.6400   23.7160   15.3300 O.2   126  TYR126     -0.2867
    117  CB        26.5420   25.9340   13.1850 C.3   126  TYR126      0.0534
    118  CG        26.6480   25.1250   11.9290 C.ar  126  TYR126     -0.0201
    119  CD1       25.7000   25.2720   10.9330 C.ar  126  TYR126     -0.0009
    120  CD2       27.6600   24.2250   11.7240 C.ar  126  TYR126     -0.0009
    121  CE1       25.7310   24.5020    9.8140 C.ar  126  TYR126      0.0417
    122  CE2       27.7070   23.4590   10.5770 C.ar  126  TYR126      0.0417
    123  CZ        26.7570   23.6140    9.6220 C.ar  126  TYR126      0.1957
    124  OH        26.7760   22.8420    8.4770 O.3   126  TYR126     -0.2866
    125  N         26.4370   20.1770   12.1300 N.3   128  THR128     -0.1218
    126  CA        26.3350   19.1580   11.0800 C.3   128  THR128      0.1862
    127  C         26.7840   17.8310   11.6270 C.2   128  THR128      0.2287
    128  O         27.0050   17.6890   12.8090 O.2   128  THR128     -0.2866
    129  CB        27.0420   19.6200    9.8040 C.3   128  THR128      0.1770
    130  OG1       26.7440   18.6850    8.7380 O.3   128  THR128     -0.2211
    131  CG2       28.5670   19.6860    9.9440 C.3   128  THR128      0.0375
    132  N         29.7540   16.5100   11.8770 N.3   130  LEU130     -0.1245
    133  CA        31.1430   16.8350   11.7300 C.3   130  LEU130      0.1561
    134  C         32.0180   15.6060   11.9300 C.2   130  LEU130      0.2260
    135  O         33.0500   15.5070   11.2640 O.2   130  LEU130     -0.2867
    136  CB        31.5530   17.9450   12.7030 C.3   130  LEU130      0.0270
    137  CG        32.9330   18.5550   12.5250 C.3   130  LEU130      0.0019
    138  CD1       33.0920   19.2490   11.1920 C.3   130  LEU130      0.0001
    139  CD2       33.1850   19.5770   13.6630 C.3   130  LEU130      0.0001
    140  N         32.0920   14.0060    8.5870 N.3   133  VAL133     -0.1245
    141  CA        32.9130   14.8040    7.6610 C.3   133  VAL133      0.1561
    142  C         34.3970   14.5400    7.9210 C.2   133  VAL133      0.2260
    143  O         35.1850   14.2250    6.9930 O.2   133  VAL133     -0.2867
    144  CB        32.5980   16.2930    7.7490 C.3   133  VAL133      0.0252
    145  CG1       33.6420   17.1430    6.9820 C.3   133  VAL133      0.0019
    146  CG2       31.1670   16.6160    7.2190 C.3   133  VAL133      0.0019
@<TRIPOS>BOND
     1    64    65    1
     2    67    66    2
     3    66    65    1
     4    65    68    1
     5     7     9   ar
     6     7     6   ar
     7    55    56    2
     8    55    54    1
     9    94    93    2
    10     9    10   ar
    11     4     3    2
    12    91    92    1
    13    68    69    1
    14     5     6    1
    15     5     2    1
    16     6     8   ar
    17    54    57    1
    18    54    53    1
    19    93    92    1
    20    70    69    1
    21    74    75    2
    22    74    73    1
    23    45    44    2
    24     3     2    1
    25    69    71    1
    26    57    58    1
    27     1     2    1
    28    92    95    1
    29    10     8   ar
    30    10    12   ar
    31    60    58   ar
    32    60    62   ar
    33     8    11   ar
    34    49    51   ar
    35    49    47   ar
    36    73    72    1
    37    73    76    1
    38    58    59   ar
    39    51    52   ar
    40    12    14   ar
    41    62    63   ar
    42    97    95    1
    43    44    43    1
    44    95    96    1
    45    46    47    1
    46    46    43    1
    47    47    48   ar
    48    11    13   ar
    49    43    42    1
    50    76    77    1
    51    59    61   ar
    52    52    50   ar
    53    98    99    1
    54    14    13   ar
    55    63    61   ar
    56    79    77    1
    57    48    50   ar
    58    77    78    1
    59   101   100    2
    60    42    36   am
    61    37    36    2
    62    99   100    1
    63    99   102    1
    64    36    35    1
    65   104   102    1
    66    80    81    1
    67   102   103    1
    68    84    81    1
    69    84    85    1
    70    32    31    2
    71    29    28    2
    72    81    82    1
    73    86    85   ar
    74    86    88   ar
    75    85    87   ar
    76    35    34    1
    77    35    38    1
    78   145   144    1
    79   143   142    2
    80    28    27    1
    81   112   110   ar
    82   146   144    1
    83    31    33   am
    84    31    30    1
    85   111   110   ar
    86    88    90   ar
    87    87    89   ar
    88    38    39    1
    89   110   109    1
    90   141   144    1
    91   141   142    1
    92   141   140    1
    93   105   106    1
    94    90    89   ar
    95    30    27    1
    96    82    83    2
    97    27    26    1
    98   124   123    1
    99   109   106    1
   100   130   129    1
   101   106   107    1
   102   108   107    2
   103    39    40    1
   104    39    41    1
   105   123   121   ar
   106   123   122   ar
   107   129   131    1
   108   129   126    1
   109   121   119   ar
   110   122   120   ar
   111   119   118   ar
   112   126   127    1
   113   126   125    1
   114   138   137    1
   115   135   134    2
   116   127   128    2
   117   120   118   ar
   118   133   132    1
   119   133   134    1
   120   133   136    1
   121   118   117    1
   122    23    25   ar
   123    23    21   ar
   124    25    24   ar
   125   137   136    1
   126   137   139    1
   127    21    20   ar
   128   117   114    1
   129    24    22   ar
   130   114   115    1
   131   114   113    1
   132    20    22   ar
   133    20    19    1
   134   115   116    2
   135    19    16    1
   136    16    17    1
   137    16    15    1
   138    17    18    2
