@<TRIPOS>MOLECULE
tmp/3kkpA00.pdb
 143 138 0 0 0
SMALL
GASTEIGER

@<TRIPOS>ATOM
      1  N         19.0600   -5.5880    5.9010 N.3    12  GLY12      -0.1210
      2  CA        19.8630   -4.5540    5.2710 C.3    12  GLY12       0.1956
      3  C         19.0000   -3.4950    4.6160 C.2    12  GLY12       0.2612
      4  O         18.0040   -3.7970    3.9600 O.2    12  GLY12      -0.2717
      5  N         19.3930   -2.2480    4.8130 N.am   13  GLY13      -0.1942
      6  CA        18.7910   -1.1340    4.1100 C.3    13  GLY13       0.2014
      7  C         17.4920   -0.5700    4.6570 C.2    13  GLY13       0.2639
      8  O         16.9290    0.3350    4.0540 O.2    13  GLY13      -0.2714
      9  N         17.0050   -1.0910    5.7860 N.am   14  VAL14      -0.1963
     10  CA        15.7030   -0.6520    6.3090 C.3    14  VAL14       0.1727
     11  C         15.7400    0.6910    7.0110 C.2    14  VAL14       0.2617
     12  O         14.6960    1.3130    7.2010 O.2    14  VAL14      -0.2715
     13  CB        15.0410   -1.7160    7.2240 C.3    14  VAL14       0.0290
     14  CG1       14.8460   -3.0270    6.4630 C.3    14  VAL14       0.0023
     15  CG2       15.8510   -1.9460    8.4870 C.3    14  VAL14       0.0023
     16  N         16.9430    1.1160    7.3980 N.am   15  GLY15      -0.1940
     17  CA        17.1510    2.3920    8.0870 C.3    15  GLY15       0.2014
     18  C         17.4520    2.2810    9.5650 C.2    15  GLY15       0.2639
     19  O         17.1560    3.2020   10.3280 O.2    15  GLY15      -0.2714
     20  N         18.0760    1.1740    9.9650 N.am   16  LYS16      -0.1963
     21  CA        18.5160    1.0040   11.3460 C.3    16  LYS16       0.1728
     22  C         19.4930    2.1050   11.7330 C.2    16  LYS16       0.2617
     23  O         19.3270    2.7580   12.7700 O.2    16  LYS16      -0.2715
     24  CB        19.1800   -0.3540   11.5340 C.3    16  LYS16       0.0311
     25  CG        18.2250   -1.5180   11.3250 C.3    16  LYS16       0.0038
     26  CD        18.9170   -2.8590   11.5160 C.3    16  LYS16       0.0206
     27  CE        20.0840   -3.0730   10.5480 C.3    16  LYS16       0.1093
     28  NZ        19.6790   -3.0750    9.1160 N.3    16  LYS16      -0.1314
     29  N         20.5180    2.2990   10.9070 N.am   17  SER17      -0.1936
     30  CA        21.4740    3.3670   11.1740 C.3    17  SER17       0.2055
     31  C         20.8320    4.7360   11.0690 C.2    17  SER17       0.2642
     32  O         21.1100    5.6020   11.9110 O.2    17  SER17      -0.2714
     33  CB        22.6580    3.2580   10.2270 C.3    17  SER17       0.2130
     34  OG        23.3230    2.0220   10.4280 O.3    17  SER17      -0.2179
     35  N         19.9540    4.9330   10.0840 N.am   18  ALA18      -0.1977
     36  CA        19.2710    6.2170    9.9460 C.3    18  ALA18       0.1597
     37  C         18.4690    6.5770   11.2030 C.2    18  ALA18       0.2287
     38  O         18.5230    7.7110   11.6780 O.2    18  ALA18      -0.2864
     39  CB        18.3870    6.2400    8.7070 C.3    18  ALA18       0.0319
     40  N         20.2570   13.2580    9.0130 N.3    28  PHE28      -0.1227
     41  CA        19.9010   12.1180    8.1820 C.3    28  PHE28       0.1736
     42  C         21.1570   11.3910    7.7130 C.2    28  PHE28       0.2595
     43  O         22.1540   12.0260    7.3510 O.2    28  PHE28      -0.2718
     44  CB        19.0550   12.5690    6.9850 C.3    28  PHE28       0.0547
     45  CG        18.4670   11.4270    6.1870 C.ar   28  PHE28      -0.0202
     46  CD1       17.7810   10.3960    6.8240 C.ar   28  PHE28      -0.0042
     47  CD2       18.5750   11.4000    4.8010 C.ar   28  PHE28      -0.0042
     48  CE1       17.2210    9.3470    6.0990 C.ar   28  PHE28      -0.0003
     49  CE2       18.0170   10.3480    4.0680 C.ar   28  PHE28      -0.0003
     50  CZ        17.3410    9.3230    4.7280 C.ar   28  PHE28      -0.0000
     51  N         21.0990   10.0590    7.6800 N.am   29  VAL29      -0.1966
     52  CA        22.2660    9.2180    7.4020 C.3    29  VAL29       0.1727
     53  C         23.0050    9.6250    6.1140 C.2    29  VAL29       0.2616
     54  O         24.2310    9.6470    6.0960 O.2    29  VAL29      -0.2715
     55  CB        21.9080    7.6890    7.4190 C.3    29  VAL29       0.0290
     56  CG1       20.9530    7.3090    6.2930 C.3    29  VAL29       0.0023
     57  CG2       23.1680    6.8310    7.3650 C.3    29  VAL29       0.0023
     58  N         22.2640    9.9850    5.0670 N.am   30  ASP30      -0.1971
     59  CA        22.8880   10.3920    3.7980 C.3    30  ASP30       0.1709
     60  C         23.8040   11.6000    3.9430 C.2    30  ASP30       0.2293
     61  O         24.7720   11.7340    3.1870 O.2    30  ASP30      -0.2864
     62  CB        21.8290   10.7500    2.7620 C.3    30  ASP30       0.1436
     63  CG        20.9830    9.5750    2.3520 C.2    30  ASP30       0.3671
     64  OD1       20.9980    8.5370    3.0490 O.co2  30  ASP30      -0.2456
     65  OD2       20.2960    9.7460    1.3370 O.co2  30  ASP30      -0.2456
     66  N         22.9850   -2.8460   14.7600 N.3    58  THR58      -0.1203
     67  CA        23.4880   -4.0270   14.0340 C.3    58  THR58       0.1994
     68  C         23.5340   -3.7860   12.5270 C.2    58  THR58       0.2618
     69  O         22.7100   -3.0620   11.9940 O.2    58  THR58      -0.2717
     70  CB        22.6380   -5.3080   14.3150 C.3    58  THR58       0.1784
     71  OG1       21.3540   -5.2160   13.6740 O.3    58  THR58      -0.2211
     72  CG2       22.4470   -5.5250   15.8030 C.3    58  THR58       0.0376
     73  N         24.5050   -4.3850   11.8460 N.am   59  ALA59      -0.1965
     74  CA        24.4810   -4.4350   10.3800 C.3    59  ALA59       0.1728
     75  C         23.5100   -5.5430    9.9650 C.2    59  ALA59       0.2617
     76  O         23.4730   -6.6010   10.5910 O.2    59  ALA59      -0.2715
     77  CB        25.8700   -4.6910    9.8300 C.3    59  ALA59       0.0334
     78  N         22.7180   -5.3050    8.9210 N.am   60  GLY60      -0.1940
     79  CA        21.5920   -6.1880    8.6030 C.3    60  GLY60       0.2014
     80  C         21.8690   -7.3520    7.6670 C.2    60  GLY60       0.2638
     81  O         21.0620   -8.2820    7.5940 O.2    60  GLY60      -0.2714
     82  N         22.9850   -7.3010    6.9430 N.am   61  GLN61      -0.1977
     83  CA        23.3220   -8.3630    5.9880 C.3    61  GLN61       0.1601
     84  C         23.7410   -9.6400    6.7120 C.2    61  GLN61       0.2287
     85  O         24.4360   -9.5890    7.7260 O.2    61  GLN61      -0.2864
     86  CB        24.3580   -7.9040    4.9440 C.3    61  GLN61       0.0394
     87  CG        25.7710   -7.5900    5.4520 C.3    61  GLN61       0.0908
     88  CD        26.7660   -7.3010    4.3180 C.2    61  GLN61       0.2608
     89  OE1       26.3990   -6.8290    3.2390 O.2    61  GLN61      -0.2717
     90  NE2       28.0350   -7.5790    4.5730 N.am   61  GLN61      -0.0878
     91  N          9.5370    1.5490    9.1510 N.3   116  ASN116     -0.1225
     92  CA        10.2900    2.7330    8.7720 C.3   116  ASN116      0.1785
     93  C         10.0460    3.1170    7.3160 C.2   116  ASN116      0.2597
     94  O          9.5680    2.3050    6.5140 O.2   116  ASN116     -0.2718
     95  CB        11.7930    2.5470    9.0590 C.3   116  ASN116      0.1169
     96  CG        12.5650    3.8470    8.9710 C.2   116  ASN116      0.2627
     97  OD1       12.1130    4.8860    9.4730 O.2   116  ASN116     -0.2716
     98  ND2       13.7150    3.8070    8.3010 N.am  116  ASN116     -0.0877
     99  N         10.3930    4.3630    6.9940 N.am  117  LYS117     -0.1980
    100  CA        10.3280    4.9160    5.6270 C.3   117  LYS117      0.1596
    101  C          8.9160    5.2980    5.1920 C.2   117  LYS117      0.2287
    102  O          8.6180    5.3640    4.0020 O.2   117  LYS117     -0.2864
    103  CB        11.0060    4.0230    4.5640 C.3   117  LYS117      0.0298
    104  CG        12.4180    3.5880    4.9020 C.3   117  LYS117      0.0038
    105  CD        13.1700    3.1940    3.6530 C.3   117  LYS117      0.0206
    106  CE        14.5340    2.6070    3.9910 C.3   117  LYS117      0.1093
    107  NZ        15.2620    2.1600    2.7500 N.3   117  LYS117     -0.1314
    108  N          7.5170    8.0190    5.0040 N.3   119  ASP119     -0.1225
    109  CA         7.5020    9.2180    4.1600 C.3   119  ASP119      0.1805
    110  C          7.3880    8.8800    2.6710 C.2   119  ASP119      0.2597
    111  O          6.9810    9.7300    1.8750 O.2   119  ASP119     -0.2718
    112  CB         8.7570   10.0550    4.3920 C.3   119  ASP119      0.1424
    113  CG        10.0220    9.2740    4.1200 C.2   119  ASP119      0.3668
    114  OD1       10.4400    8.4800    4.9950 O.co2 119  ASP119     -0.2456
    115  OD2       10.5980    9.4550    3.0290 O.co2 119  ASP119     -0.2456
    116  N          7.7620    7.6570    2.2910 N.am  120  LEU120     -0.1979
    117  CA         7.7290    7.2630    0.8820 C.3   120  LEU120      0.1596
    118  C          6.3480    6.7690    0.4750 C.2   120  LEU120      0.2287
    119  O          6.1540    5.5960    0.1550 O.2   120  LEU120     -0.2864
    120  CB         8.8010    6.2100    0.5830 C.3   120  LEU120      0.0297
    121  CG        10.2420    6.6850    0.7980 C.3   120  LEU120      0.0022
    122  CD1       11.1760    5.5190    0.6610 C.3   120  LEU120      0.0001
    123  CD2       10.6480    7.7830   -0.1740 C.3   120  LEU120      0.0001
    124  N          9.8660    7.7170   10.2770 N.3   146  SER146     -0.1202
    125  CA        10.6930    8.1830    9.1830 C.3   146  SER146      0.2020
    126  C         11.9400    8.8450    9.7470 C.2   146  SER146      0.2619
    127  O         11.8430    9.7380   10.5880 O.2   146  SER146     -0.2717
    128  CB         9.9300    9.1730    8.3170 C.3   146  SER146      0.2103
    129  OG        10.7960    9.6930    7.3060 O.3   146  SER146     -0.2182
    130  N         13.1030    8.4070    9.2770 N.am  147  ALA147     -0.1965
    131  CA        14.3720    9.0220    9.6650 C.3   147  ALA147      0.1728
    132  C         14.7490   10.2020    8.7730 C.2   147  ALA147      0.2616
    133  O         15.6310   10.9980    9.1230 O.2   147  ALA147     -0.2715
    134  CB        15.4700    7.9810    9.6470 C.3   147  ALA147      0.0334
    135  N         14.0860   10.3040    7.6200 N.am  148  LYS148     -0.1977
    136  CA        14.3250   11.3930    6.6640 C.3   148  LYS148      0.1596
    137  C         13.7600   12.6800    7.2500 C.2   148  LYS148      0.2287
    138  O         12.7530   12.6450    7.9550 O.2   148  LYS148     -0.2864
    139  CB        13.6580   11.0540    5.3250 C.3   148  LYS148      0.0298
    140  CG        13.9370   12.0360    4.1760 C.3   148  LYS148      0.0038
    141  CD        13.3570   11.5180    2.8540 C.3   148  LYS148      0.0206
    142  CE        13.4770   12.5400    1.7220 C.3   148  LYS148      0.1093
    143  NZ        12.8500   12.0540    0.4480 N.3   148  LYS148     -0.1314
@<TRIPOS>BOND
     1   123   121    1
     2   119   118    2
     3   143   142    1
     4   118   117    1
     5   120   121    1
     6   120   117    1
     7   122   121    1
     8   117   116    1
     9    65    63   ar
    10   142   141    1
    11   111   110    2
    12   116   110   am
    13    63    62    1
    14    63    64   ar
    15   110   109    1
    16   107   106    1
    17    62    59    1
    18   141   140    1
    19   115   113   ar
    20    61    60    2
    21    89    88    2
    22   105   106    1
    23   105   104    1
    24    59    60    1
    25    59    58    1
    26     4     3    2
    27   102   101    2
    28     8     7    2
    29    49    50   ar
    30    49    47   ar
    31     6     7    1
    32     6     5    1
    33   113   112    1
    34   113   114   ar
    35   109   112    1
    36   109   108    1
    37   140   139    1
    38    88    90   am
    39    88    87    1
    40   103   104    1
    41   103   100    1
    42     3     5   am
    43     3     2    1
    44     7     9   am
    45    50    48   ar
    46    47    45   ar
    47    86    87    1
    48    86    83    1
    49    58    53   am
    50   101   100    1
    51     2     1    1
    52   139   136    1
    53   100    99    1
    54     9    10    1
    55    83    84    1
    56    83    82    1
    57    54    53    2
    58    48    46   ar
    59    53    52    1
    60    45    46   ar
    61    45    44    1
    62    56    55    1
    63    10    11    1
    64    10    13    1
    65    14    13    1
    66    94    93    2
    67   136   137    1
    68   136   135    1
    69    84    85    2
    70    82    80   am
    71    44    41    1
    72    99    93   am
    73    11    12    2
    74    11    16   am
    75    13    15    1
    76   137   138    2
    77   129   128    1
    78    93    92    1
    79    43    42    2
    80    57    55    1
    81    16    17    1
    82    52    55    1
    83    52    51    1
    84    81    80    2
    85   135   132   am
    86    80    79    1
    87    51    42   am
    88    42    41    1
    89    17    18    1
    90    41    40    1
    91    98    96   am
    92   128   125    1
    93    79    78    1
    94    39    36    1
    95    92    95    1
    96    92    91    1
    97   132   133    2
    98   132   131    1
    99    78    75   am
   100    96    95    1
   101    96    97    2
   102    28    27    1
   103   125   126    1
   104   125   124    1
   105   130   131    1
   106   130   126   am
   107    18    20   am
   108    18    19    2
   109   134   131    1
   110   126   127    2
   111    77    74    1
   112    36    35    1
   113    36    37    1
   114    75    74    1
   115    75    76    2
   116    20    21    1
   117    35    31   am
   118    33    34    1
   119    33    30    1
   120    74    73    1
   121    27    26    1
   122    29    30    1
   123    29    22   am
   124    31    30    1
   125    31    32    2
   126    37    38    2
   127    25    26    1
   128    25    24    1
   129    21    24    1
   130    21    22    1
   131    22    23    2
   132    73    68   am
   133    69    68    2
   134    68    67    1
   135    71    70    1
   136    67    70    1
   137    67    66    1
   138    70    72    1
