@<TRIPOS>MOLECULE
tmp/3kkqA00.pdb
 160 156 0 0 0
SMALL
GASTEIGER

@<TRIPOS>ATOM
      1  N          3.7790    3.4070    3.9180 N.3    14  GLY14      -0.1210
      2  CA         2.7600    3.7070    4.9140 C.3    14  GLY14       0.1956
      3  C          3.3690    3.9090    6.2910 C.2    14  GLY14       0.2612
      4  O          4.3150    3.2130    6.6850 O.2    14  GLY14      -0.2717
      5  N          2.8380    4.8880    7.0140 N.am   15  GLY15      -0.1942
      6  CA         3.2130    5.0980    8.4080 C.3    15  GLY15       0.2014
      7  C          4.4340    5.9640    8.6540 C.2    15  GLY15       0.2639
      8  O          4.8010    6.1900    9.8090 O.2    15  GLY15      -0.2714
      9  N          5.0640    6.4650    7.5940 N.am   16  VAL16      -0.1963
     10  CA         6.3030    7.2260    7.7600 C.3    16  VAL16       0.1727
     11  C          6.0820    8.6710    8.1990 C.2    16  VAL16       0.2617
     12  O          7.0000    9.2990    8.7280 O.2    16  VAL16      -0.2715
     13  CB         7.2070    7.1840    6.4960 C.3    16  VAL16       0.0290
     14  CG1        7.5850    5.7500    6.1570 C.3    16  VAL16       0.0023
     15  CG2        6.5430    7.8960    5.3150 C.3    16  VAL16       0.0023
     16  N          4.8800    9.1950    7.9570 N.am   17  GLY17      -0.1940
     17  CA         4.5400   10.5650    8.3290 C.3    17  GLY17       0.2014
     18  C          4.2070   11.4990    7.1820 C.2    17  GLY17       0.2639
     19  O          4.2530   12.7070    7.3590 O.2    17  GLY17      -0.2714
     20  N          3.8740   10.9570    6.0110 N.am   18  LYS18      -0.1963
     21  CA         3.5270   11.7940    4.8600 C.3    18  LYS18       0.1728
     22  C          2.3610   12.7270    5.1740 C.2    18  LYS18       0.2617
     23  O          2.4300   13.9330    4.9100 O.2    18  LYS18      -0.2715
     24  CB         3.2040   10.9350    3.6440 C.3    18  LYS18       0.0311
     25  CG         4.3720   10.0700    3.2090 C.3    18  LYS18       0.0038
     26  CD         4.0810    9.2940    1.9360 C.3    18  LYS18       0.0206
     27  CE         2.9140    8.3310    2.0710 C.3    18  LYS18       0.1093
     28  NZ         3.0980    7.3440    3.1560 N.3    18  LYS18      -0.1314
     29  N          1.2860   12.1670    5.7260 N.am   19  SER19      -0.1936
     30  CA         0.1080   12.9730    6.0390 C.3    19  SER19       0.2055
     31  C          0.3880   13.9750    7.1500 C.2    19  SER19       0.2642
     32  O          0.0240   15.1450    7.0370 O.2    19  SER19      -0.2714
     33  CB        -1.0870   12.0900    6.3940 C.3    19  SER19       0.2130
     34  OG        -1.4560   11.2740    5.2900 O.3    19  SER19      -0.2179
     35  N          1.0440   13.5180    8.2100 N.am   20  ALA20      -0.1977
     36  CA         1.3760   14.4060    9.3170 C.3    20  ALA20       0.1597
     37  C          2.2490   15.5730    8.8640 C.2    20  ALA20       0.2287
     38  O          2.0180   16.7130    9.2640 O.2    20  ALA20      -0.2864
     39  CB         2.0420   13.6370   10.4450 C.3    20  ALA20       0.0319
     40  N         -0.5130   19.0550   14.3760 N.3    30  PHE30      -0.1227
     41  CA        -0.0810   17.6630   14.3150 C.3    30  PHE30       0.1736
     42  C         -1.2970   16.7530   14.4300 C.2    30  PHE30       0.2595
     43  O         -2.0070   16.7750   15.4400 O.2    30  PHE30      -0.2718
     44  CB         0.9380   17.3590   15.4220 C.3    30  PHE30       0.0547
     45  CG         1.3830   15.9210   15.4730 C.ar   30  PHE30      -0.0202
     46  CD1        1.9210   15.2980   14.3450 C.ar   30  PHE30      -0.0042
     47  CD2        1.2860   15.1930   16.6550 C.ar   30  PHE30      -0.0042
     48  CE1        2.3400   13.9740   14.3910 C.ar   30  PHE30      -0.0003
     49  CE2        1.7060   13.8670   16.7100 C.ar   30  PHE30      -0.0003
     50  CZ         2.2360   13.2580   15.5770 C.ar   30  PHE30      -0.0000
     51  N         -1.5460   15.9720   13.3820 N.am   31  VAL31      -0.1966
     52  CA        -2.6460   15.0100   13.3730 C.3    31  VAL31       0.1727
     53  C         -2.0470   13.6130   13.4680 C.2    31  VAL31       0.2616
     54  O         -1.2530   13.2100   12.6110 O.2    31  VAL31      -0.2715
     55  CB        -3.5290   15.1580   12.1100 C.3    31  VAL31       0.0290
     56  CG1       -4.6180   14.0910   12.0820 C.3    31  VAL31       0.0023
     57  CG2       -4.1500   16.5480   12.0600 C.3    31  VAL31       0.0023
     58  N         -2.4180   12.8800   14.5130 N.am   32  ASP32      -0.1957
     59  CA        -1.7650   11.6110   14.8120 C.3    32  ASP32       0.1840
     60  C         -2.5440   10.3610   14.3870 C.2    32  ASP32       0.2622
     61  O         -2.0650    9.2390   14.5600 O.2    32  ASP32      -0.2715
     62  CB        -1.3760   11.5430   16.2980 C.3    32  ASP32       0.1450
     63  CG        -2.5790   11.4810   17.2320 C.2    32  ASP32       0.3671
     64  OD1       -2.3600   11.4640   18.4610 O.co2  32  ASP32      -0.2456
     65  OD2       -3.7320   11.4440   16.7570 O.co2  32  ASP32      -0.2456
     66  N         -3.7330   10.5550   13.8260 N.am   33  ASP33      -0.1957
     67  CA        -4.6040    9.4280   13.5020 C.3    33  ASP33       0.1840
     68  C         -5.2040    9.5330   12.1020 C.2    33  ASP33       0.2622
     69  O         -6.3120    9.0490   11.8500 O.2    33  ASP33      -0.2715
     70  CB        -5.7070    9.2950   14.5630 C.3    33  ASP33       0.1450
     71  CG        -6.5690   10.5490   14.6850 C.2    33  ASP33       0.3671
     72  OD1       -6.2820   11.5640   14.0120 O.co2  33  ASP33      -0.2456
     73  OD2       -7.5440   10.5170   15.4660 O.co2  33  ASP33      -0.2456
     74  N         -4.4710   10.1650   11.1910 N.am   34  TYR34      -0.1974
     75  CA        -4.9840   10.3830    9.8530 C.3    34  TYR34       0.1639
     76  C         -5.0790    9.0520    9.1210 C.2    34  TYR34       0.2290
     77  O         -4.1010    8.3050    9.0380 O.2    34  TYR34      -0.2864
     78  CB        -4.1120   11.3750    9.0930 C.3    34  TYR34       0.0560
     79  CG        -4.7980   11.9380    7.8830 C.ar   34  TYR34      -0.0198
     80  CD1       -5.7330   12.9650    8.0040 C.ar   34  TYR34      -0.0009
     81  CD2       -4.5320   11.4310    6.6140 C.ar   34  TYR34      -0.0009
     82  CE1       -6.3680   13.4810    6.8900 C.ar   34  TYR34       0.0417
     83  CE2       -5.1610   11.9430    5.4960 C.ar   34  TYR34       0.0417
     84  CZ        -6.0760   12.9670    5.6460 C.ar   34  TYR34       0.1957
     85  OH        -6.7130   13.4830    4.5470 O.3    34  TYR34      -0.2866
     86  N         -4.7740    5.9790    7.2170 N.3    36  PRO36      -0.2116
     87  CA        -3.6280    5.5850    6.3930 C.3    36  PRO36       0.1372
     88  C         -3.9310    5.4470    4.9040 C.2    36  PRO36       0.2244
     89  O         -3.0080    5.4670    4.0990 O.2    36  PRO36      -0.2868
     90  CB        -3.2290    4.2210    6.9720 C.3    36  PRO36       0.0268
     91  CG        -3.7270    4.2520    8.3700 C.3    36  PRO36       0.0207
     92  CD        -5.0270    4.9940    8.2870 C.3    36  PRO36       0.0892
     93  N         -0.5120   14.3340   -1.1670 N.3    59  ASP59      -0.1225
     94  CA        -0.1500   13.4450   -0.0740 C.3    59  ASP59       0.1805
     95  C         -0.5870   12.0410   -0.4970 C.2    59  ASP59       0.2598
     96  O         -1.7690   11.7030   -0.4000 O.2    59  ASP59      -0.2718
     97  CB        -0.8760   13.8900    1.2010 C.3    59  ASP59       0.1424
     98  CG        -0.7330   12.9070    2.3460 C.2    59  ASP59       0.3668
     99  OD1        0.2650   12.1510    2.3770 O.co2  59  ASP59      -0.2456
    100  OD2       -1.6260   12.8940    3.2290 O.co2  59  ASP59      -0.2456
    101  N          0.3400   11.2370   -1.0120 N.am   60  THR60      -0.1953
    102  CA        -0.0350    9.9190   -1.5250 C.3    60  THR60       0.1897
    103  C         -0.3960    8.9600   -0.3970 C.2    60  THR60       0.2313
    104  O          0.1510    9.0360    0.7050 O.2    60  THR60      -0.2863
    105  CB         1.0510    9.2750   -2.4230 C.3    60  THR60       0.1794
    106  OG1        2.2200    8.9710   -1.6510 O.3    60  THR60      -0.2208
    107  CG2        1.4050   10.1820   -3.5960 C.3    60  THR60       0.0378
    108  N         12.0220   11.2800    8.6310 N.3   118  ASN118     -0.1225
    109  CA        11.0340   11.7820    9.5730 C.3   118  ASN118      0.1785
    110  C         11.0450   11.0130   10.8900 C.2   118  ASN118      0.2597
    111  O         11.5860    9.9030   10.9730 O.2   118  ASN118     -0.2718
    112  CB         9.6400   11.7630    8.9300 C.3   118  ASN118      0.1169
    113  CG         8.6040   12.5100    9.7490 C.2   118  ASN118      0.2627
    114  OD1        8.8410   13.6430   10.1960 O.2   118  ASN118     -0.2716
    115  ND2        7.4550   11.8780    9.9620 N.am  118  ASN118     -0.0877
    116  N         10.4340   11.6330   11.9010 N.am  119  LYS119     -0.1980
    117  CA        10.2790   11.1000   13.2620 C.3   119  LYS119      0.1596
    118  C         11.5580   11.1800   14.0970 C.2   119  LYS119      0.2287
    119  O         11.7540   10.3720   15.0060 O.2   119  LYS119     -0.2864
    120  CB         9.7020    9.6730   13.2860 C.3   119  LYS119      0.0298
    121  CG         8.4490    9.4760   12.4490 C.3   119  LYS119      0.0038
    122  CD         7.6990    8.2290   12.8780 C.3   119  LYS119      0.0206
    123  CE         6.4810    7.9720   11.9990 C.3   119  LYS119      0.1093
    124  NZ         5.7750    6.7230   12.4050 N.3   119  LYS119     -0.1314
    125  N         12.2810   13.0500   16.4090 N.3   121  ASP121     -0.1225
    126  CA        11.9690   13.2870   17.8220 C.3   121  ASP121      0.1805
    127  C         12.0350   11.9920   18.6320 C.2   121  ASP121      0.2597
    128  O         12.0960   12.0310   19.8680 O.2   121  ASP121     -0.2718
    129  CB        10.5820   13.9100   17.9720 C.3   121  ASP121      0.1424
    130  CG         9.4960   13.0620   17.3440 C.2   121  ASP121      0.3668
    131  OD1        9.3830   13.0660   16.0920 O.co2 121  ASP121     -0.2456
    132  OD2        8.7580   12.3860   18.0870 O.co2 121  ASP121     -0.2456
    133  N         12.0030   10.8520   17.9450 N.am  122  LEU122     -0.1979
    134  CA        12.0570    9.5510   18.6020 C.3   122  LEU122      0.1596
    135  C         13.4980    9.0740   18.7090 C.2   122  LEU122      0.2287
    136  O         14.2330    9.0360   17.7200 O.2   122  LEU122     -0.2864
    137  CB        11.1880    8.5280   17.8610 C.3   122  LEU122      0.0297
    138  CG         9.6920    8.8670   17.7500 C.3   122  LEU122      0.0022
    139  CD1        8.9340    7.8270   16.9460 C.3   122  LEU122      0.0001
    140  CD2        9.0550    9.0240   19.1300 C.3   122  LEU122      0.0001
    141  N         10.4420   16.3800   12.0000 N.3   148  SER148     -0.1202
    142  CA         9.4500   15.8530   12.9130 C.3   148  SER148      0.2020
    143  C          8.1630   16.6270   12.7040 C.2   148  SER148      0.2619
    144  O          8.1570   17.8620   12.7420 O.2   148  SER148     -0.2717
    145  CB         9.9000   15.9930   14.3620 C.3   148  SER148      0.2103
    146  OG         8.8690   15.5810   15.2440 O.3   148  SER148     -0.2182
    147  N          7.0750   15.9000   12.4870 N.am  149  ALA149     -0.1965
    148  CA         5.7620   16.5090   12.3440 C.3   149  ALA149      0.1728
    149  C          5.0980   16.7530   13.6960 C.2   149  ALA149      0.2616
    150  O          4.1500   17.5370   13.7870 O.2   149  ALA149     -0.2715
    151  CB         4.8790   15.6410   11.4740 C.3   149  ALA149      0.0334
    152  N          5.5880   16.0660   14.7260 N.am  150  LYS150     -0.1977
    153  CA         5.0780   16.2030   16.0900 C.3   150  LYS150      0.1596
    154  C          5.4180   17.5940   16.6320 C.2   150  LYS150      0.2287
    155  O          6.4780   18.1290   16.3270 O.2   150  LYS150     -0.2864
    156  CB         5.6910   15.1100   16.9720 C.3   150  LYS150      0.0298
    157  CG         5.1280   15.0040   18.3860 C.3   150  LYS150      0.0038
    158  CD         5.6300   13.7400   19.0730 C.3   150  LYS150      0.0206
    159  CE         5.2930   13.7310   20.5580 C.3   150  LYS150      0.1093
    160  NZ         5.6610   12.4340   21.1910 N.3   150  LYS150     -0.1314
@<TRIPOS>BOND
     1   107   105    1
     2   105   106    1
     3   105   102    1
     4   102   101    1
     5   102   103    1
     6    93    94    1
     7   101    95   am
     8    95    96    2
     9    95    94    1
    10   103   104    2
    11    94    97    1
    12    97    98    1
    13    26    27    1
    14    26    25    1
    15    27    28    1
    16    98    99   ar
    17    98   100   ar
    18    25    24    1
    19    24    21    1
    20     1     2    1
    21    89    88    2
    22    85    84    1
    23    21    22    1
    24    21    20    1
    25    88    87    1
    26    23    22    2
    27     2     3    1
    28    22    29   am
    29    34    33    1
    30    15    13    1
    31    83    84   ar
    32    83    81   ar
    33    84    82   ar
    34    29    30    1
    35    20    18   am
    36    30    33    1
    37    30    31    1
    38    14    13    1
    39     3     4    2
    40     3     5   am
    41    87    90    1
    42    87    86    1
    43    13    10    1
    44    81    79   ar
    45    82    80   ar
    46    90    91    1
    47     5     6    1
    48    32    31    2
    49    31    35   am
    50    18    19    2
    51    18    17    1
    52    86    92    1
    53     9    10    1
    54     9     7   am
    55    10    11    1
    56    79    80   ar
    57    79    78    1
    58    16    11   am
    59    16    17    1
    60    11    12    2
    61    35    36    1
    62    92    91    1
    63     6     7    1
    64   108   109    1
    65     7     8    2
    66    37    38    2
    67    37    36    1
    68   112   109    1
    69   112   113    1
    70    77    76    2
    71    78    75    1
    72    76    75    1
    73    36    39    1
    74   109   110    1
    75   113   115   am
    76   113   114    2
    77    75    74    1
    78   110   111    2
    79   110   116   am
    80    74    68   am
    81   151   148    1
    82    69    68    2
    83   116   117    1
    84   123   124    1
    85   123   122    1
    86   141   142    1
    87    57    55    1
    88    56    55    1
    89    68    67    1
    90    55    52    1
    91   148   147    1
    92   148   149    1
    93   121   122    1
    94   121   120    1
    95   147   143   am
    96    54    53    2
    97   143   144    2
    98   143   142    1
    99   142   145    1
   100   117   120    1
   101   117   118    1
   102    52    51    1
   103    52    53    1
   104    51    42   am
   105    53    58   am
   106    67    66    1
   107    67    70    1
   108   149   150    2
   109   149   152   am
   110    66    60   am
   111    72    71   ar
   112   118   119    2
   113    41    40    1
   114    41    42    1
   115    41    44    1
   116    46    48   ar
   117    46    45   ar
   118   145   146    1
   119    60    61    2
   120    60    59    1
   121    48    50   ar
   122    42    43    2
   123    58    59    1
   124    70    71    1
   125    71    73   ar
   126   152   153    1
   127    59    62    1
   128    44    45    1
   129    45    47   ar
   130    50    49   ar
   131   153   154    1
   132   153   156    1
   133   131   130   ar
   134    62    63    1
   135   155   154    2
   136   125   126    1
   137    47    49   ar
   138    65    63   ar
   139   139   138    1
   140   156   157    1
   141    63    64   ar
   142   130   129    1
   143   130   132   ar
   144   136   135    2
   145   138   137    1
   146   138   140    1
   147   126   129    1
   148   126   127    1
   149   137   134    1
   150   133   134    1
   151   133   127   am
   152   157   158    1
   153   134   135    1
   154   127   128    2
   155   158   159    1
   156   159   160    1
