@<TRIPOS>MOLECULE
tmp/3kktB00.pdb
 193 187 0 0 0
SMALL
GASTEIGER

@<TRIPOS>ATOM
      1  N         -0.6010  -39.8720  -29.3030 N.3    80  TYR80      -0.1227
      2  CA        -0.8290  -38.8660  -30.3330 C.3    80  TYR80       0.1736
      3  C          0.4000  -38.6500  -31.2130 C.2    80  TYR80       0.2595
      4  O          0.3330  -38.8380  -32.4330 O.2    80  TYR80      -0.2718
      5  CB        -1.2810  -37.5510  -29.6900 C.3    80  TYR80       0.0548
      6  CG        -1.5970  -36.4380  -30.6680 C.ar   80  TYR80      -0.0200
      7  CD1       -2.8770  -36.2920  -31.2000 C.ar   80  TYR80      -0.0009
      8  CD2       -0.6150  -35.5170  -31.0460 C.ar   80  TYR80      -0.0009
      9  CE1       -3.1740  -35.2590  -32.0960 C.ar   80  TYR80       0.0417
     10  CE2       -0.8950  -34.4890  -31.9320 C.ar   80  TYR80       0.0417
     11  CZ        -2.1760  -34.3600  -32.4540 C.ar   80  TYR80       0.1957
     12  OH        -2.4500  -33.3440  -33.3330 O.3    80  TYR80      -0.2866
     13  N          1.5180  -38.2680  -30.5990 N.am   81  HIS81      -0.1975
     14  CA         2.7240  -37.8910  -31.3490 C.3    81  HIS81       0.1656
     15  C          3.4990  -39.0810  -31.9140 C.2    81  HIS81       0.2291
     16  O          4.6700  -39.2890  -31.5890 O.2    81  HIS81      -0.2864
     17  CB         3.6390  -36.9980  -30.5030 C.3    81  HIS81       0.0771
     18  CG         3.0890  -35.6270  -30.2560 C.ar   81  HIS81       0.0820
     19  ND1        2.6630  -35.2080  -29.0150 N.ar   81  HIS81      -0.2267
     20  CD2        2.9020  -34.5770  -31.0900 C.ar   81  HIS81       0.1154
     21  CE1        2.2380  -33.9590  -29.0930 C.ar   81  HIS81       0.1986
     22  NE2        2.3730  -33.5520  -30.3420 N.ar   81  HIS81      -0.2212
     23  N          9.5500  -38.0640  -30.6780 N.3   125  HIS125     -0.1241
     24  CA         8.7570  -37.4420  -29.6160 C.3   125  HIS125      0.1621
     25  C          8.4840  -38.4910  -28.5400 C.2   125  HIS125      0.2264
     26  O          7.9890  -39.5840  -28.8480 O.2   125  HIS125     -0.2867
     27  CB         7.4310  -36.9140  -30.1790 C.3   125  HIS125      0.0745
     28  CG         6.7630  -35.8740  -29.3250 C.ar  125  HIS125      0.0817
     29  ND1        6.4000  -36.1010  -28.0140 N.ar  125  HIS125     -0.2268
     30  CD2        6.3670  -34.6090  -29.6100 C.ar  125  HIS125      0.1154
     31  CE1        5.8240  -35.0160  -27.5240 C.ar  125  HIS125      0.1986
     32  NE2        5.7930  -34.0950  -28.4720 N.ar  125  HIS125     -0.2212
     33  N         11.6760  -29.5680  -30.4450 N.3   151  GLU151     -0.1245
     34  CA        11.6630  -29.0930  -31.8350 C.3   151  GLU151      0.1567
     35  C         13.0720  -29.1160  -32.4230 C.2   151  GLU151      0.2260
     36  O         13.2630  -29.5470  -33.5660 O.2   151  GLU151     -0.2867
     37  CB        11.0380  -27.6960  -31.9490 C.3   151  GLU151      0.0388
     38  CG         9.5390  -27.6530  -31.6710 C.3   151  GLU151      0.1160
     39  CD         9.1870  -27.7210  -30.1860 C.2   151  GLU151      0.3649
     40  OE1       10.0370  -27.3820  -29.3330 O.co2 151  GLU151     -0.2457
     41  OE2        8.0440  -28.1100  -29.8680 O.co2 151  GLU151     -0.2457
     42  N          6.9150  -24.6480  -35.0410 N.3   192  THR192     -0.1218
     43  CA         5.8630  -25.4830  -34.4570 C.3   192  THR192      0.1862
     44  C          5.8560  -25.4480  -32.9180 C.2   192  THR192      0.2287
     45  O          4.9930  -26.0460  -32.2940 O.2   192  THR192     -0.2866
     46  CB         5.9550  -26.9590  -34.9230 C.3   192  THR192      0.1770
     47  OG1        7.1560  -27.5520  -34.4160 O.3   192  THR192     -0.2211
     48  CG2        5.9310  -27.0620  -36.4380 C.3   192  THR192      0.0375
     49  N          4.8550  -24.2740  -29.6250 N.3   194  MET194     -0.1245
     50  CA         3.6610  -23.5500  -29.1700 C.3   194  MET194      0.1570
     51  C          3.9610  -22.2810  -28.3800 C.2   194  MET194      0.2261
     52  O          3.1190  -21.3850  -28.3100 O.2   194  MET194     -0.2867
     53  CB         2.7440  -24.4620  -28.3480 C.3   194  MET194      0.0387
     54  CG         1.9550  -25.4900  -29.1710 C.3   194  MET194      0.0595
     55  SD         0.8400  -24.7970  -30.4240 S.3   194  MET194     -0.1393
     56  CE        -0.1890  -23.7080  -29.4410 C.3   194  MET194      0.0692
     57  N         -0.2310  -28.4700  -38.4300 N.3   239  ASP239     -0.1225
     58  CA        -0.0210  -29.0640  -37.1090 C.3   239  ASP239      0.1805
     59  C         -1.2570  -28.8870  -36.2230 C.2   239  ASP239      0.2597
     60  O         -1.6530  -29.8120  -35.5100 O.2   239  ASP239     -0.2718
     61  CB         1.2080  -28.4470  -36.4320 C.3   239  ASP239      0.1424
     62  CG         1.7050  -29.2670  -35.2480 C.2   239  ASP239      0.3668
     63  OD1        2.1740  -28.6710  -34.2590 O.co2 239  ASP239     -0.2456
     64  OD2        1.6380  -30.5110  -35.2970 O.co2 239  ASP239     -0.2456
     65  N         -1.8640  -27.7010  -36.2870 N.am  240  LEU240     -0.1979
     66  CA        -3.0510  -27.3760  -35.4930 C.3   240  LEU240      0.1596
     67  C         -4.3840  -27.5160  -36.2510 C.2   240  LEU240      0.2287
     68  O         -5.3100  -26.7370  -36.0260 O.2   240  LEU240     -0.2864
     69  CB        -2.9230  -25.9640  -34.9100 C.3   240  LEU240      0.0297
     70  CG        -1.9070  -25.7200  -33.7900 C.3   240  LEU240      0.0022
     71  CD1       -1.8980  -24.2470  -33.4270 C.3   240  LEU240      0.0001
     72  CD2       -2.1810  -26.5780  -32.5550 C.3   240  LEU240      0.0001
     73  N         -6.5050  -30.3210  -36.4670 N.3   242  ASN242     -0.1240
     74  CA        -7.4460  -31.3420  -35.9920 C.3   242  ASN242      0.1653
     75  C         -8.8870  -30.8460  -35.8430 C.2   242  ASN242      0.2266
     76  O         -9.8040  -31.4980  -36.3380 O.2   242  ASN242     -0.2867
     77  CB        -6.9730  -31.9820  -34.6810 C.3   242  ASN242      0.1155
     78  CG        -5.7070  -32.8060  -34.8370 C.2   242  ASN242      0.2627
     79  OD1       -5.0310  -33.0820  -33.8530 O.2   242  ASN242     -0.2716
     80  ND2       -5.3840  -33.2020  -36.0620 N.am  242  ASN242     -0.0877
     81  N        -11.7450  -35.6450  -35.8930 N.3   250  TYR250     -0.1241
     82  CA       -11.3350  -34.7340  -34.8310 C.3   250  TYR250      0.1605
     83  C        -11.4330  -35.3360  -33.4220 C.2   250  TYR250      0.2264
     84  O        -10.5030  -35.1900  -32.6230 O.2   250  TYR250     -0.2867
     85  CB       -12.1250  -33.4190  -34.9610 C.3   250  TYR250      0.0534
     86  CG       -11.9530  -32.4050  -33.8450 C.ar  250  TYR250     -0.0201
     87  CD1      -10.7500  -32.2800  -33.1480 C.ar  250  TYR250     -0.0009
     88  CD2      -12.9930  -31.5420  -33.5140 C.ar  250  TYR250     -0.0009
     89  CE1      -10.6050  -31.3500  -32.1270 C.ar  250  TYR250      0.0417
     90  CE2      -12.8510  -30.6000  -32.5050 C.ar  250  TYR250      0.0417
     91  CZ       -11.6590  -30.5110  -31.8160 C.ar  250  TYR250      0.1957
     92  OH       -11.5220  -29.5770  -30.8180 O.3   250  TYR250     -0.2866
     93  N         -8.6170  -37.7190  -32.8030 N.3   253  TRP253     -0.1227
     94  CA        -7.4170  -36.9690  -32.4540 C.3   253  TRP253      0.1737
     95  C         -7.4740  -36.5150  -31.0020 C.2   253  TRP253      0.2596
     96  O         -6.4610  -36.5240  -30.2990 O.2   253  TRP253     -0.2718
     97  CB        -7.2400  -35.7520  -33.3650 C.3   253  TRP253      0.0564
     98  CG        -6.8810  -36.0710  -34.7860 C.ar  253  TRP253      0.0003
     99  CD1       -7.5410  -35.6580  -35.9110 C.ar  253  TRP253      0.0946
    100  CD2       -5.7740  -36.8580  -35.2420 C.ar  253  TRP253      0.0152
    101  NE1       -6.9190  -36.1390  -37.0350 N.ar  253  TRP253     -0.2442
    102  CE2       -5.8300  -36.8780  -36.6560 C.ar  253  TRP253      0.0810
    103  CE3       -4.7420  -37.5550  -34.5960 C.ar  253  TRP253      0.0012
    104  CZ2       -4.8970  -37.5620  -37.4310 C.ar  253  TRP253      0.0191
    105  CZ3       -3.8140  -38.2340  -35.3700 C.ar  253  TRP253      0.0001
    106  CH2       -3.8980  -38.2310  -36.7740 C.ar  253  TRP253      0.0015
    107  N         -8.6660  -36.1210  -30.5650 N.am  254  THR254     -0.1953
    108  CA        -8.8900  -35.6100  -29.2180 C.3   254  THR254      0.1897
    109  C         -8.6620  -36.6910  -28.1590 C.2   254  THR254      0.2313
    110  O         -8.0150  -36.4390  -27.1400 O.2   254  THR254     -0.2863
    111  CB       -10.3130  -35.0150  -29.0960 C.3   254  THR254      0.1794
    112  OG1      -10.4930  -34.0150  -30.1060 O.3   254  THR254     -0.2208
    113  CG2      -10.5440  -34.3970  -27.7280 C.3   254  THR254      0.0378
    114  N         -4.6620  -37.4110  -27.9650 N.3   257  ILE257     -0.1231
    115  CA        -3.8600  -36.4260  -27.2390 C.3   257  ILE257      0.1692
    116  C         -4.2360  -36.3800  -25.7610 C.2   257  ILE257      0.2591
    117  O         -3.4750  -35.8870  -24.9300 O.2   257  ILE257     -0.2718
    118  CB        -3.9490  -35.0090  -27.8900 C.3   257  ILE257      0.0266
    119  CG1       -2.8960  -34.0510  -27.3030 C.3   257  ILE257      0.0019
    120  CG2       -5.3610  -34.4340  -27.7740 C.3   257  ILE257      0.0020
    121  CD1       -1.4500  -34.4620  -27.5600 C.3   257  ILE257      0.0001
    122  N         -5.4120  -36.9110  -25.4450 N.am  258  MET258     -0.1979
    123  CA        -5.8930  -36.9860  -24.0730 C.3   258  MET258      0.1605
    124  C         -5.2160  -38.1240  -23.3300 C.2   258  MET258      0.2287
    125  O         -4.7970  -37.9620  -22.1850 O.2   258  MET258     -0.2864
    126  CB        -7.3950  -37.2130  -24.0600 C.3   258  MET258      0.0413
    127  CG        -8.0910  -36.4690  -22.9650 C.3   258  MET258      0.0598
    128  SD        -8.5940  -34.8620  -23.5740 S.3   258  MET258     -0.1393
    129  CE       -10.0360  -35.3570  -24.5190 C.3   258  MET258      0.0692
    130  N         -1.6810  -37.0280  -22.8210 N.3   261  PHE261     -0.1241
    131  CA        -1.6510  -35.9690  -21.8260 C.3   261  PHE261      0.1605
    132  C         -1.7930  -36.5510  -20.4150 C.2   261  PHE261      0.2264
    133  O         -1.0700  -36.1500  -19.5040 O.2   261  PHE261     -0.2867
    134  CB        -2.7610  -34.9510  -22.1160 C.3   261  PHE261      0.0534
    135  CG        -2.2950  -33.5210  -22.1140 C.ar  261  PHE261     -0.0203
    136  CD1       -1.6540  -32.9840  -23.2310 C.ar  261  PHE261     -0.0042
    137  CD2       -2.5070  -32.7060  -21.0020 C.ar  261  PHE261     -0.0042
    138  CE1       -1.2210  -31.6510  -23.2400 C.ar  261  PHE261     -0.0003
    139  CE2       -2.0770  -31.3710  -20.9920 C.ar  261  PHE261     -0.0003
    140  CZ        -1.4340  -30.8400  -22.1130 C.ar  261  PHE261     -0.0000
    141  N        -12.2110  -27.7460  -22.4950 N.3   285  SER285     -0.1202
    142  CA       -10.8280  -27.5380  -22.8940 C.3   285  SER285      0.2020
    143  C        -10.6070  -27.5550  -24.4050 C.2   285  SER285      0.2618
    144  O         -9.6240  -27.0040  -24.8870 O.2   285  SER285     -0.2717
    145  CB        -9.9260  -28.5490  -22.1950 C.3   285  SER285      0.2103
    146  OG        -9.9240  -28.2930  -20.8000 O.3   285  SER285     -0.2182
    147  N        -11.5120  -28.1830  -25.1470 N.am  286  GLN286     -0.1979
    148  CA       -11.4780  -28.0680  -26.5970 C.3   286  GLN286      0.1601
    149  C        -12.0000  -26.7030  -27.0310 C.2   286  GLN286      0.2287
    150  O        -11.4940  -26.1210  -27.9950 O.2   286  GLN286     -0.2864
    151  CB       -12.2590  -29.1980  -27.2790 C.3   286  GLN286      0.0394
    152  CG       -11.5080  -30.5360  -27.3590 C.3   286  GLN286      0.0908
    153  CD       -10.1310  -30.4400  -28.0290 C.2   286  GLN286      0.2608
    154  OE1       -9.9290  -29.6760  -28.9770 O.2   286  GLN286     -0.2717
    155  NE2       -9.1820  -31.2270  -27.5330 N.am  286  GLN286     -0.0878
    156  N         -9.4290  -24.2830  -26.2570 N.3   289  PHE289     -0.1241
    157  CA        -8.3960  -24.5220  -27.2610 C.3   289  PHE289      0.1605
    158  C         -8.6940  -23.8050  -28.5770 C.2   289  PHE289      0.2264
    159  O         -7.8210  -23.1240  -29.1250 O.2   289  PHE289     -0.2867
    160  CB        -8.2310  -26.0250  -27.4940 C.3   289  PHE289      0.0534
    161  CG        -7.0600  -26.3940  -28.3620 C.ar  289  PHE289     -0.0203
    162  CD1       -5.8240  -25.7740  -28.2030 C.ar  289  PHE289     -0.0042
    163  CD2       -7.1860  -27.3990  -29.3170 C.ar  289  PHE289     -0.0042
    164  CE1       -4.7390  -26.1290  -29.0020 C.ar  289  PHE289     -0.0003
    165  CE2       -6.1010  -27.7640  -30.1180 C.ar  289  PHE289     -0.0003
    166  CZ        -4.8760  -27.1250  -29.9580 C.ar  289  PHE289     -0.0000
    167  N         -7.1550  -29.5320  -18.0560 N.3   330  LEU330     -0.1231
    168  CA        -6.4570  -29.8950  -19.2880 C.3   330  LEU330      0.1693
    169  C         -5.8480  -28.6870  -19.9910 C.2   330  LEU330      0.2591
    170  O         -4.6560  -28.6750  -20.2930 O.2   330  LEU330     -0.2718
    171  CB        -7.4040  -30.6440  -20.2330 C.3   330  LEU330      0.0284
    172  CG        -7.2100  -32.1400  -20.5290 C.3   330  LEU330      0.0019
    173  CD1       -6.4780  -32.9000  -19.4270 C.3   330  LEU330      0.0001
    174  CD2       -8.5600  -32.7750  -20.8210 C.3   330  LEU330      0.0001
    175  N         -6.6740  -27.6730  -20.2320 N.am  331  MET331     -0.1979
    176  CA        -6.2400  -26.4390  -20.8810 C.3   331  MET331      0.1605
    177  C         -5.3470  -25.6090  -19.9560 C.2   331  MET331      0.2287
    178  O         -4.3640  -25.0130  -20.4030 O.2   331  MET331     -0.2864
    179  CB        -7.4590  -25.6310  -21.3420 C.3   331  MET331      0.0413
    180  CG        -7.1410  -24.4900  -22.2920 C.3   331  MET331      0.0598
    181  SD        -6.4970  -25.0220  -23.8930 S.3   331  MET331     -0.1393
    182  CE        -5.9120  -23.4580  -24.5270 C.3   331  MET331      0.0692
    183  N         -1.9920  -27.0010  -20.0140 N.3   334  PHE334     -0.1241
    184  CA        -1.3900  -26.7050  -21.3110 C.3   334  PHE334      0.1605
    185  C         -0.8880  -25.2650  -21.3880 C.2   334  PHE334      0.2264
    186  O          0.2080  -25.0040  -21.8910 O.2   334  PHE334     -0.2867
    187  CB        -2.3930  -26.9890  -22.4400 C.3   334  PHE334      0.0534
    188  CG        -1.8010  -26.8980  -23.8280 C.ar  334  PHE334     -0.0203
    189  CD1       -0.8940  -27.8580  -24.2820 C.ar  334  PHE334     -0.0042
    190  CD2       -2.1590  -25.8590  -24.6830 C.ar  334  PHE334     -0.0042
    191  CE1       -0.3460  -27.7760  -25.5620 C.ar  334  PHE334     -0.0003
    192  CE2       -1.6190  -25.7710  -25.9660 C.ar  334  PHE334     -0.0003
    193  CZ        -0.7130  -26.7320  -26.4060 C.ar  334  PHE334     -0.0000
@<TRIPOS>BOND
     1    57    58    1
     2   104   106   ar
     3   104   102   ar
     4    58    61    1
     5    58    59    1
     6   101   102   ar
     7   101    99   ar
     8   106   105   ar
     9   102   100   ar
    10    73    74    1
    11    48    46    1
    12    61    62    1
    13    76    75    2
    14    65    59   am
    15    65    66    1
    16    67    68    2
    17    67    66    1
    18    59    60    2
    19    80    78   am
    20    74    75    1
    21    74    77    1
    22    99    98   ar
    23    81    82    1
    24    66    69    1
    25   105   103   ar
    26    64    62   ar
    27    62    63   ar
    28   100    98   ar
    29   100   103   ar
    30    42    43    1
    31    85    82    1
    32    85    86    1
    33    46    43    1
    34    46    47    1
    35    69    70    1
    36    78    77    1
    37    78    79    2
    38    82    83    1
    39    98    97    1
    40    43    44    1
    41    86    88   ar
    42    86    87   ar
    43    70    71    1
    44    70    72    1
    45    36    35    2
    46    88    90   ar
    47    83    84    2
    48    97    94    1
    49    12    11    1
    50    87    89   ar
    51    44    45    2
    52    93    94    1
    53    90    91   ar
    54    11     9   ar
    55    11    10   ar
    56    94    95    1
    57     4     3    2
    58    35    34    1
    59    89    91   ar
    60     9     7   ar
    61    37    34    1
    62    37    38    1
    63    10     8   ar
    64    15    16    2
    65    15    14    1
    66    34    33    1
    67    91    92    1
    68    38    39    1
    69    14    13    1
    70    14    17    1
    71     3    13   am
    72     3     2    1
    73     7     6   ar
    74    20    22   ar
    75    20    18   ar
    76     8     6   ar
    77    95   107   am
    78    95    96    2
    79    23    24    1
    80     6     5    1
    81   107   108    1
    82    17    18    1
    83    55    56    1
    84    55    54    1
    85    22    21   ar
    86     2     5    1
    87     2     1    1
    88    18    19   ar
    89    39    41   ar
    90    39    40   ar
    91    27    24    1
    92    27    28    1
    93   165   166   ar
    94   165   163   ar
    95   112   111    1
    96   166   164   ar
    97    49    50    1
    98    24    25    1
    99    30    28   ar
   100    30    32   ar
   101    28    29   ar
   102   163   161   ar
   103   108   111    1
   104   108   109    1
   105    54    53    1
   106    50    51    1
   107    50    53    1
   108   159   158    2
   109   111   113    1
   110    21    19   ar
   111   164   162   ar
   112   154   153    2
   113    26    25    2
   114   158   157    1
   115    32    31   ar
   116    51    52    2
   117   161   162   ar
   118   161   160    1
   119   109   110    2
   120   153   155   am
   121   153   152    1
   122    29    31   ar
   123   150   149    2
   124   114   115    1
   125   118   120    1
   126   118   119    1
   127   118   115    1
   128   121   119    1
   129   160   157    1
   130   152   151    1
   131   151   148    1
   132   157   156    1
   133   115   116    1
   134   149   148    1
   135   148   147    1
   136   193   192   ar
   137   193   191   ar
   138   192   190   ar
   139   116   122   am
   140   116   117    2
   141   191   189   ar
   142   122   123    1
   143   147   143   am
   144   144   143    2
   145   190   188   ar
   146   182   181    1
   147   129   128    1
   148   143   142    1
   149   189   188   ar
   150   123   126    1
   151   123   124    1
   152   126   127    1
   153   181   180    1
   154   188   187    1
   155   128   127    1
   156   124   125    2
   157   138   136   ar
   158   138   140   ar
   159   136   135   ar
   160   142   141    1
   161   142   145    1
   162   130   131    1
   163   187   184    1
   164   180   179    1
   165   145   146    1
   166   134   135    1
   167   134   131    1
   168   135   137   ar
   169   140   139   ar
   170   186   185    2
   171   131   132    1
   172   185   184    1
   173   179   176    1
   174   184   183    1
   175   137   139   ar
   176   176   175    1
   177   176   177    1
   178   174   172    1
   179   172   171    1
   180   172   173    1
   181   132   133    2
   182   178   177    2
   183   170   169    2
   184   171   168    1
   185   175   169   am
   186   169   168    1
   187   168   167    1
