@<TRIPOS>MOLECULE
tmp/3kkuA00.pdb
 107 104 0 0 0
SMALL
GASTEIGER

@<TRIPOS>ATOM
      1  N        -11.2070  -33.1020   -0.6060 N.3    23  GLY23      -0.1225
      2  CA        -9.8930  -33.5600   -0.1790 C.3    23  GLY23       0.1811
      3  C         -8.9890  -33.8440   -1.3570 C.2    23  GLY23       0.2280
      4  O         -8.5140  -34.9690   -1.5510 O.2    23  GLY23      -0.2866
      5  N         -6.1080  -32.0200   -2.1370 N.3    25  CYS25      -0.1221
      6  CA        -4.8000  -31.4230   -1.9220 C.3    25  CYS25       0.1808
      7  C         -3.6870  -32.2280   -2.5930 C.2    25  CYS25       0.2601
      8  O         -2.7100  -31.6860   -3.0660 O.2    25  CYS25      -0.2717
      9  CB        -4.5880  -31.2730   -0.3900 C.3    25  CYS25       0.0970
     10  SG        -4.5980  -32.8330    0.4890 S.3    25  CYS25      -0.0800
     11  N         -3.8370  -33.5620   -2.6010 N.am   26  TRP26      -0.1976
     12  CA        -2.8610  -34.4260   -3.2720 C.3    26  TRP26       0.1640
     13  C         -2.7190  -34.0140   -4.7410 C.2    26  TRP26       0.2290
     14  O         -1.6170  -34.0350   -5.3000 O.2    26  TRP26      -0.2864
     15  CB        -3.3150  -35.8850   -3.1590 C.3    26  TRP26       0.0576
     16  CG        -4.6740  -36.1820   -3.7390 C.ar   26  TRP26       0.0006
     17  CD1       -5.8860  -36.0100   -3.1240 C.ar   26  TRP26       0.0946
     18  CD2       -4.9600  -36.6810   -5.0630 C.ar   26  TRP26       0.0152
     19  NE1       -6.9170  -36.3810   -3.9840 N.ar   26  TRP26      -0.2442
     20  CE2       -6.3650  -36.8000   -5.1730 C.ar   26  TRP26       0.0810
     21  CE3       -4.1630  -37.0760   -6.1560 C.ar   26  TRP26       0.0012
     22  CZ2       -6.9870  -37.2700   -6.3250 C.ar   26  TRP26       0.0191
     23  CZ3       -4.8100  -37.5510   -7.3210 C.ar   26  TRP26       0.0001
     24  CH2       -6.1900  -37.6470   -7.3880 C.ar   26  TRP26       0.0015
     25  N        -11.9300  -37.8020   -1.6840 N.3    64  SER64      -0.1202
     26  CA       -11.6200  -38.5670   -0.4670 C.3    64  SER64       0.2020
     27  C        -10.1310  -38.7720   -0.2570 C.2    64  SER64       0.2619
     28  O         -9.7440  -39.4270    0.6880 O.2    64  SER64      -0.2717
     29  CB       -12.3350  -39.9300   -0.4790 C.3    64  SER64       0.2103
     30  OG       -13.7290  -39.7180   -0.5350 O.3    64  SER64      -0.2182
     31  N         -9.2970  -38.2310   -1.1220 N.am   65  GLY65      -0.1942
     32  CA        -7.8670  -38.2220   -0.8470 C.3    65  GLY65       0.2014
     33  C         -7.0680  -38.9760   -1.8980 C.2    65  GLY65       0.2639
     34  O         -7.6210  -39.6060   -2.8050 O.2    65  GLY65      -0.2714
     35  N         -5.7530  -38.9600   -1.7470 N.am   66  GLY66      -0.1939
     36  CA        -4.8550  -39.5610   -2.7090 C.3    66  GLY66       0.2014
     37  C         -3.4260  -39.3050   -2.3060 C.2    66  GLY66       0.2639
     38  O         -3.1560  -38.7150   -1.2560 O.2    66  GLY66      -0.2714
     39  N         -2.5040  -39.7580   -3.1520 N.am   67  LEU67      -0.1963
     40  CA        -1.0710  -39.5720   -2.9280 C.3    67  LEU67       0.1728
     41  C         -0.4530  -38.9960   -4.1840 C.2    67  LEU67       0.2616
     42  O         -0.7160  -39.4750   -5.3040 O.2    67  LEU67      -0.2715
     43  CB        -0.3600  -40.8950   -2.6030 C.3    67  LEU67       0.0311
     44  CG        -0.8130  -41.6110   -1.3440 C.3    67  LEU67       0.0022
     45  CD1       -0.1180  -42.9550   -1.2260 C.3    67  LEU67       0.0001
     46  CD2       -0.5350  -40.7700   -0.1200 C.3    67  LEU67       0.0001
     47  N          0.4180  -37.9990   -4.0310 N.am   68  MET68      -0.1977
     48  CA         1.1250  -37.4220   -5.1830 C.3    68  MET68       0.1605
     49  C          1.8850  -38.5020   -5.9440 C.2    68  MET68       0.2287
     50  O          1.8940  -38.4750   -7.1790 O.2    68  MET68      -0.2864
     51  CB         2.0600  -36.3050   -4.7780 C.3    68  MET68       0.0413
     52  CG         1.3230  -35.0580   -4.2110 C.3    68  MET68       0.0598
     53  SD         0.8050  -35.2320   -2.4800 S.3    68  MET68      -0.1393
     54  CE         2.3750  -34.9590   -1.6180 C.3    68  MET68       0.0692
     55  N          4.0740  -34.3710    1.5040 N.3   138  ALA138     -0.1245
     56  CA         2.9760  -34.6330    2.4310 C.3   138  ALA138      0.1562
     57  C          3.3250  -34.0340    3.7950 C.2   138  ALA138      0.2260
     58  O          4.4840  -34.0850    4.2320 O.2   138  ALA138     -0.2867
     59  CB         2.7390  -36.1280    2.5590 C.3   138  ALA138      0.0290
     60  N          0.5900  -37.3480   11.9960 N.3   159  GLN159     -0.1231
     61  CA        -0.0510  -38.1140   10.9440 C.3   159  GLN159      0.1698
     62  C         -0.1460  -37.3000    9.6560 C.2   159  GLN159      0.2592
     63  O         -0.7100  -36.2000    9.6440 O.2   159  GLN159     -0.2718
     64  CB        -1.4560  -38.4850   11.4000 C.3   159  GLN159      0.0381
     65  CG        -2.2160  -39.2370   10.3900 C.3   159  GLN159      0.0905
     66  CD        -3.6390  -39.4690   10.8200 C.2   159  GLN159      0.2608
     67  OE1       -4.1140  -40.5850   10.7680 O.2   159  GLN159     -0.2717
     68  NE2       -4.3390  -38.4070   11.2140 N.am  159  GLN159     -0.0878
     69  N          0.4600  -37.8010    8.5860 N.am  160  LEU160     -0.1966
     70  CA         0.3580  -37.1450    7.2980 C.3   160  LEU160      0.1728
     71  C         -1.1270  -37.0350    6.9330 C.2   160  LEU160      0.2616
     72  O         -1.8750  -38.0070    7.0790 O.2   160  LEU160     -0.2715
     73  CB         1.1390  -37.9400    6.2400 C.3   160  LEU160      0.0311
     74  CG         2.6620  -38.0380    6.4190 C.3   160  LEU160      0.0022
     75  CD1        3.2860  -38.9990    5.4050 C.3   160  LEU160      0.0001
     76  CD2        3.3200  -36.6820    6.3840 C.3   160  LEU160      0.0001
     77  N         -1.5420  -35.8790    6.4170 N.am  161  ASP161     -0.1957
     78  CA        -2.9480  -35.6890    6.0650 C.3   161  ASP161      0.1840
     79  C         -3.1780  -34.7070    4.9260 C.2   161  ASP161      0.2622
     80  O         -4.3350  -34.5180    4.5330 O.2   161  ASP161     -0.2715
     81  CB        -3.7990  -35.3250    7.3090 C.3   161  ASP161      0.1450
     82  CG        -3.3820  -34.0130    7.9320 C.2   161  ASP161      0.3671
     83  OD1       -3.6660  -33.7580    9.1330 O.co2 161  ASP161     -0.2456
     84  OD2       -2.7590  -33.1780    7.2990 O.co2 161  ASP161     -0.2456
     85  N         -2.1150  -34.1130    4.3670 N.am  162  HIS162     -0.1959
     86  CA        -2.3230  -33.0070    3.4120 C.3   162  HIS162      0.1787
     87  C         -1.1380  -32.9300    2.4730 C.2   162  HIS162      0.2620
     88  O          0.0350  -33.0280    2.8940 O.2   162  HIS162     -0.2715
     89  CB        -2.4810  -31.7390    4.2550 C.3   162  HIS162      0.0785
     90  CG        -2.8870  -30.5180    3.5150 C.ar  162  HIS162      0.0821
     91  ND1       -3.8520  -30.5280    2.5340 N.ar  162  HIS162     -0.2267
     92  CD2       -2.4120  -29.2580    3.5530 C.ar  162  HIS162      0.1154
     93  CE1       -4.0270  -29.2910    2.0930 C.ar  162  HIS162      0.1986
     94  NE2       -3.1710  -28.5080    2.6910 N.ar  162  HIS162     -0.2212
     95  N         -1.4030  -32.7430    1.1760 N.am  163  GLY163     -0.1954
     96  CA        -0.3210  -32.5000    0.2180 C.3   163  GLY163      0.1869
     97  C         -0.1450  -31.0310   -0.0750 C.2   163  GLY163      0.2309
     98  O         -1.1220  -30.2920   -0.2690 O.2   163  GLY163     -0.2863
     99  N          7.6540  -37.6990    2.7480 N.3   208  GLU208     -0.1245
    100  CA         7.1250  -38.1350    1.4580 C.3   208  GLU208      0.1567
    101  C          7.2560  -37.0080    0.4280 C.2   208  GLU208      0.2260
    102  O          6.2620  -36.3680    0.0250 O.2   208  GLU208     -0.2867
    103  CB         5.6770  -38.5770    1.6450 C.3   208  GLU208      0.0388
    104  CG         5.1140  -39.3200    0.4720 C.3   208  GLU208      0.1160
    105  CD         3.8410  -40.0720    0.7780 C.2   208  GLU208      0.3649
    106  OE1        3.1450  -40.4810   -0.1760 O.co2 208  GLU208     -0.2457
    107  OE2        3.5590  -40.2870    1.9770 O.co2 208  GLU208     -0.2457
@<TRIPOS>BOND
     1    24    23   ar
     2    24    22   ar
     3    23    21   ar
     4    50    49    2
     5    22    20   ar
     6    21    18   ar
     7    49    48    1
     8    42    41    2
     9    14    13    2
    10    48    51    1
    11    48    47    1
    12    20    18   ar
    13    20    19   ar
    14    18    16   ar
    15    51    52    1
    16    13    12    1
    17    52    53    1
    18    41    47   am
    19    41    40    1
    20    19    17   ar
    21    16    15    1
    22    16    17   ar
    23    12    15    1
    24    12    11    1
    25    39    40    1
    26    39    37   am
    27     8     7    2
    28    40    43    1
    29    34    33    2
    30    36    37    1
    31    36    35    1
    32    43    44    1
    33    11     7   am
    34     7     6    1
    35    53    54    1
    36    37    38    2
    37     5     6    1
    38     6     9    1
    39    33    35   am
    40    33    32    1
    41    25    26    1
    42     4     3    2
    43     3     2    1
    44    44    45    1
    45    44    46    1
    46    31    32    1
    47    31    27   am
    48     1     2    1
    49    30    29    1
    50    29    26    1
    51    26    27    1
    52     9    10    1
    53    98    97    2
    54    27    28    2
    55   106   105   ar
    56    97    96    1
    57   102   101    2
    58    96    95    1
    59   101   100    1
    60   104   105    1
    61   104   103    1
    62   105   107   ar
    63    95    87   am
    64   100   103    1
    65   100    99    1
    66    55    56    1
    67    93    91   ar
    68    93    94   ar
    69    56    59    1
    70    56    57    1
    71    87    88    2
    72    87    86    1
    73    91    90   ar
    74    94    92   ar
    75    86    89    1
    76    86    85    1
    77    90    92   ar
    78    90    89    1
    79    57    58    2
    80    85    79   am
    81    80    79    2
    82    79    78    1
    83    75    74    1
    84    78    77    1
    85    78    81    1
    86    73    74    1
    87    73    70    1
    88    76    74    1
    89    77    71   am
    90    71    72    2
    91    71    70    1
    92    70    69    1
    93    84    82   ar
    94    81    82    1
    95    82    83   ar
    96    69    62   am
    97    63    62    2
    98    62    61    1
    99    65    66    1
   100    65    64    1
   101    67    66    2
   102    66    68   am
   103    61    64    1
   104    61    60    1
