@<TRIPOS>MOLECULE
tmp/3kkvA00.pdb
 207 195 0 0 0
SMALL
GASTEIGER

@<TRIPOS>ATOM
      1  N        -27.0740  -15.7790   -8.2150 N.3    37  LEU37      -0.1231
      2  CA       -27.2360  -14.3540   -8.4810 C.3    37  LEU37       0.1693
      3  C        -26.0120  -13.5510   -8.0550 C.2    37  LEU37       0.2593
      4  O        -25.8750  -12.3790   -8.4070 O.2    37  LEU37      -0.2718
      5  CB       -28.4790  -13.8200   -7.7680 C.3    37  LEU37       0.0284
      6  CG       -29.8050  -14.4900   -8.1260 C.3    37  LEU37       0.0019
      7  CD1      -30.9160  -13.9930   -7.2150 C.3    37  LEU37       0.0001
      8  CD2      -30.1520  -14.2470   -9.5870 C.3    37  LEU37       0.0001
      9  N        -25.1260  -14.1840   -7.2930 N.am   38  GLY38      -0.1942
     10  CA       -23.9250  -13.5230   -6.8180 C.3    38  GLY38       0.2014
     11  C        -23.0590  -14.4220   -5.9590 C.2    38  GLY38       0.2640
     12  O        -23.5450  -15.3790   -5.3540 O.2    38  GLY38      -0.2714
     13  N        -21.7680  -14.1120   -5.9060 N.am   39  THR39      -0.1936
     14  CA       -20.8270  -14.8920   -5.1130 C.3    39  THR39       0.2028
     15  C        -19.7480  -14.0020   -4.5060 C.2    39  THR39       0.2642
     16  O        -19.3860  -12.9710   -5.0720 O.2    39  THR39      -0.2714
     17  CB       -20.1580  -15.9990   -5.9530 C.3    39  THR39       0.1808
     18  OG1      -19.3320  -16.8100   -5.1080 O.3    39  THR39      -0.2208
     19  CG2      -19.3050  -15.3900   -7.0580 C.3    39  THR39       0.0379
     20  N        -19.2430  -14.4080   -3.3460 N.am   40  GLY40      -0.1954
     21  CA       -18.1920  -13.6740   -2.6670 C.3    40  GLY40       0.1869
     22  C        -17.3580  -14.5940   -1.7990 C.2    40  GLY40       0.2309
     23  O        -17.5470  -15.8110   -1.8160 O.2    40  GLY40      -0.2863
     24  N        -17.6380  -15.1780    1.0890 N.3    42  PHE42      -0.1227
     25  CA       -18.6200  -15.9510    1.8380 C.3    42  PHE42       0.1736
     26  C        -19.9450  -15.1930    1.9170 C.2    42  PHE42       0.2596
     27  O        -20.0240  -14.1180    2.5120 O.2    42  PHE42      -0.2718
     28  CB       -18.1010  -16.2820    3.2410 C.3    42  PHE42       0.0547
     29  CG       -18.2890  -15.1740    4.2350 C.ar   42  PHE42      -0.0202
     30  CD1      -17.4470  -14.0750    4.2370 C.ar   42  PHE42      -0.0042
     31  CD2      -19.3120  -15.2310    5.1660 C.ar   42  PHE42      -0.0042
     32  CE1      -17.6210  -13.0540    5.1500 C.ar   42  PHE42      -0.0003
     33  CE2      -19.4920  -14.2140    6.0810 C.ar   42  PHE42      -0.0003
     34  CZ       -18.6450  -13.1240    6.0730 C.ar   42  PHE42      -0.0000
     35  N        -20.9780  -15.7430    1.2880 N.am   43  GLY43      -0.1942
     36  CA       -20.8500  -16.9650    0.5170 C.3    43  GLY43       0.2014
     37  C        -21.3860  -16.7860   -0.8890 C.2    43  GLY43       0.2639
     38  O        -20.7040  -16.2450   -1.7590 O.2    43  GLY43      -0.2714
     39  N        -22.6150  -17.2360   -1.1120 N.am   44  ARG44      -0.1963
     40  CA       -23.2450  -17.1200   -2.4220 C.3    44  ARG44       0.1729
     41  C        -24.7510  -16.9270   -2.2950 C.2    44  ARG44       0.2616
     42  O        -25.3760  -17.4420   -1.3700 O.2    44  ARG44      -0.2715
     43  CB       -22.9390  -18.3550   -3.2700 C.3    44  ARG44       0.0348
     44  CG       -23.1560  -19.6680   -2.5390 C.3    44  ARG44       0.0492
     45  CD       -22.8020  -20.8580   -3.4130 C.3    44  ARG44       0.2205
     46  NE       -22.7530  -22.0950   -2.6400 N.pl3  44  ARG44      -0.0865
     47  CZ       -22.5740  -23.3020   -3.1670 C.cat  44  ARG44       0.5346
     48  NH1      -22.5420  -24.3700   -2.3820 N.pl3  44  ARG44       0.1354
     49  NH2      -22.4290  -23.4420   -4.4770 N.pl3  44  ARG44       0.1354
     50  N        -25.3270  -16.1790   -3.2290 N.am   45  VAL45      -0.1977
     51  CA       -26.7640  -15.9410   -3.2450 C.3    45  VAL45       0.1596
     52  C        -27.3860  -16.5720   -4.4830 C.2    45  VAL45       0.2287
     53  O        -26.9240  -16.3470   -5.6010 O.2    45  VAL45      -0.2864
     54  CB       -27.0880  -14.4360   -3.2300 C.3    45  VAL45       0.0276
     55  CG1      -28.5790  -14.2110   -3.4200 C.3    45  VAL45       0.0022
     56  CG2      -26.6040  -13.8010   -1.9330 C.3    45  VAL45       0.0022
     57  N        -34.4990  -14.9920   -2.7700 N.3    58  ALA58      -0.1245
     58  CA       -33.0470  -14.9490   -2.8410 C.3    58  ALA58       0.1562
     59  C        -32.4830  -15.6390   -1.6070 C.2    58  ALA58       0.2260
     60  O        -32.6650  -15.1660   -0.4850 O.2    58  ALA58      -0.2867
     61  CB       -32.5610  -13.5140   -2.9210 C.3    58  ALA58       0.0290
     62  N        -29.2560  -16.9240    0.4930 N.3    60  LYS60      -0.1245
     63  CA       -27.8170  -16.8690    0.7080 C.3    60  LYS60       0.1561
     64  C        -27.3370  -18.1010    1.4630 C.2    60  LYS60       0.2260
     65  O        -27.8890  -18.4600    2.5030 O.2    60  LYS60      -0.2867
     66  CB       -27.4070  -15.5960    1.4520 C.3    60  LYS60       0.0271
     67  CG       -25.9090  -15.5180    1.7220 C.3    60  LYS60       0.0035
     68  CD       -25.4400  -14.0910    1.9480 C.3    60  LYS60       0.0206
     69  CE       -26.0270  -13.5000    3.2150 C.3    60  LYS60       0.1093
     70  NZ       -25.4920  -12.1360    3.4770 N.3    60  LYS60      -0.1314
     71  N        -25.9280  -10.1800   11.6900 N.3    79  GLU79      -0.1245
     72  CA       -26.7390  -10.0390   10.4870 C.3    79  GLU79       0.1567
     73  C        -28.0990  -10.7160   10.6160 C.2    79  GLU79       0.2260
     74  O        -29.1350  -10.0990   10.3700 O.2    79  GLU79      -0.2867
     75  CB       -25.9910  -10.6040    9.2780 C.3    79  GLU79       0.0388
     76  CG       -26.7810  -10.5520    7.9840 C.3    79  GLU79       0.1160
     77  CD       -26.0600  -11.2280    6.8360 C.2    79  GLU79       0.3649
     78  OE1      -24.9080  -11.6690    7.0310 O.co2  79  GLU79      -0.2457
     79  OE2      -26.6470  -11.3190    5.7390 O.co2  79  GLU79      -0.2457
     80  N        -31.6780   -8.7960   10.9760 N.3    83  LEU83      -0.1245
     81  CA       -32.5940   -8.9280    9.8460 C.3    83  LEU83       0.1561
     82  C        -33.9710   -9.4470   10.2550 C.2    83  LEU83       0.2260
     83  O        -34.9920   -8.9620    9.7690 O.2    83  LEU83      -0.2867
     84  CB       -31.9910   -9.8280    8.7640 C.3    83  LEU83       0.0270
     85  CG       -30.9050   -9.1950    7.8920 C.3    83  LEU83       0.0019
     86  CD1      -30.2970  -10.2260    6.9540 C.3    83  LEU83       0.0001
     87  CD2      -31.4700   -8.0200    7.1090 C.3    83  LEU83       0.0001
     88  N        -35.1170   -5.1510    2.6580 N.3    92  VAL92      -0.1245
     89  CA       -35.5470   -6.4640    2.1900 C.3    92  VAL92       0.1561
     90  C        -35.9270   -7.3410    3.3780 C.2    92  VAL92       0.2260
     91  O        -35.1910   -7.4250    4.3610 O.2    92  VAL92      -0.2867
     92  CB       -34.4520   -7.1590    1.3580 C.3    92  VAL92       0.0252
     93  CG1      -34.9270   -8.5270    0.8880 C.3    92  VAL92       0.0019
     94  CG2      -34.0630   -6.2920    0.1730 C.3    92  VAL92       0.0019
     95  N        -30.1660  -18.0840    4.6280 N.3   106  MET106     -0.1245
     96  CA       -31.0590  -16.9480    4.8170 C.3   106  MET106      0.1570
     97  C        -31.8840  -16.7200    3.5560 C.2   106  MET106      0.2261
     98  O        -31.3380  -16.4940    2.4760 O.2   106  MET106     -0.2867
     99  CB       -30.2720  -15.6900    5.1880 C.3   106  MET106      0.0387
    100  CG       -29.8060  -15.6660    6.6360 C.3   106  MET106      0.0595
    101  SD       -28.8310  -14.2050    7.0420 S.3   106  MET106     -0.1393
    102  CE       -27.3070  -14.5670    6.1780 C.3   106  MET106      0.0692
    103  N        -34.6300  -14.4930    1.6390 N.3   108  MET108     -0.1230
    104  CA       -35.2560  -13.1780    1.6130 C.3   108  MET108      0.1702
    105  C        -36.0170  -12.9520    0.3120 C.2   108  MET108      0.2592
    106  O        -35.8330  -13.6830   -0.6610 O.2   108  MET108     -0.2718
    107  CB       -34.2010  -12.0880    1.8090 C.3   108  MET108      0.0401
    108  CG       -33.2620  -12.3540    2.9760 C.3   108  MET108      0.0596
    109  SD       -32.1170  -10.9970    3.2750 S.3   108  MET108     -0.1393
    110  CE       -33.2420   -9.7530    3.8970 C.3   108  MET108      0.0692
    111  N        -36.8760  -11.9390    0.3040 N.am  109  GLU109     -0.1966
    112  CA       -37.6450  -11.5980   -0.8860 C.3   109  GLU109      0.1733
    113  C        -36.7310  -11.3070   -2.0660 C.2   109  GLU109      0.2616
    114  O        -35.7140  -10.6310   -1.9250 O.2   109  GLU109     -0.2715
    115  CB       -38.5400  -10.3900   -0.6220 C.3   109  GLU109      0.0429
    116  CG       -39.6500  -10.6490    0.3720 C.3   109  GLU109      0.1163
    117  CD       -40.6010   -9.4790    0.4840 C.2   109  GLU109      0.3649
    118  OE1      -40.1480   -8.3250    0.3210 O.co2 109  GLU109     -0.2457
    119  OE2      -41.8010   -9.7130    0.7380 O.co2 109  GLU109     -0.2457
    120  N        -37.1040  -11.8240   -3.2300 N.am  110  TYR110     -0.1960
    121  CA       -36.3210  -11.6260   -4.4400 C.3   110  TYR110      0.1771
    122  C        -36.7090  -10.3330   -5.1490 C.2   110  TYR110      0.2619
    123  O        -37.8900  -10.0080   -5.2700 O.2   110  TYR110     -0.2715
    124  CB       -36.4890  -12.8220   -5.3780 C.3   110  TYR110      0.0574
    125  CG       -35.8080  -12.6570   -6.7140 C.ar  110  TYR110     -0.0198
    126  CD1      -34.4290  -12.5300   -6.8000 C.ar  110  TYR110     -0.0009
    127  CD2      -36.5430  -12.6410   -7.8910 C.ar  110  TYR110     -0.0009
    128  CE1      -33.8020  -12.3820   -8.0210 C.ar  110  TYR110      0.0417
    129  CE2      -35.9240  -12.4950   -9.1170 C.ar  110  TYR110      0.0417
    130  CZ       -34.5530  -12.3660   -9.1750 C.ar  110  TYR110      0.1957
    131  OH       -33.9270  -12.2200  -10.3920 O.3   110  TYR110     -0.2866
    132  N        -35.7020   -9.5970   -5.6100 N.am  111  VAL111     -0.1977
    133  CA       -35.9270   -8.3510   -6.3300 C.3   111  VAL111      0.1596
    134  C        -35.3330   -8.4360   -7.7320 C.2   111  VAL111      0.2287
    135  O        -34.1420   -8.1900   -7.9230 O.2   111  VAL111     -0.2864
    136  CB       -35.3110   -7.1530   -5.5850 C.3   111  VAL111      0.0276
    137  CG1      -35.6270   -5.8570   -6.3130 C.3   111  VAL111      0.0022
    138  CG2      -35.8200   -7.1020   -4.1510 C.3   111  VAL111      0.0022
    139  N        -29.4110   -4.6560   -9.0790 N.3   115  GLU115     -0.1245
    140  CA       -28.7000   -3.7030   -8.2350 C.3   115  GLU115      0.1567
    141  C        -28.6460   -2.3190   -8.8720 C.2   115  GLU115      0.2260
    142  O        -28.5970   -2.1910  -10.0950 O.2   115  GLU115     -0.2867
    143  CB       -27.2770   -4.1970   -7.9720 C.3   115  GLU115      0.0388
    144  CG       -27.1980   -5.6200   -7.4480 C.3   115  GLU115      0.1160
    145  CD       -25.7820   -6.1630   -7.4530 C.2   115  GLU115      0.3649
    146  OE1      -24.8650   -5.4310   -7.8790 O.co2 115  GLU115     -0.2457
    147  OE2      -25.5880   -7.3240   -7.0340 O.co2 115  GLU115     -0.2457
    148  N        -23.5910    1.1570   -0.3710 N.3   155  LYS155     -0.1245
    149  CA       -23.0180    1.2240   -1.7110 C.3   155  LYS155      0.1561
    150  C        -24.0470    0.7520   -2.7340 C.2   155  LYS155      0.2260
    151  O        -24.9670    0.0100   -2.3900 O.2   155  LYS155     -0.2867
    152  CB       -21.7390    0.3860   -1.8040 C.3   155  LYS155      0.0271
    153  CG       -21.9230   -1.0910   -1.4990 C.3   155  LYS155      0.0035
    154  CD       -20.5900   -1.8230   -1.5480 C.3   155  LYS155      0.0206
    155  CE       -20.7420   -3.2880   -1.1770 C.3   155  LYS155      0.1093
    156  NZ       -19.4250   -3.9820   -1.1310 N.3   155  LYS155     -0.1314
    157  N        -23.9640   -1.4340   -4.8820 N.3   157  GLU157     -0.1231
    158  CA       -23.9990   -2.8890   -4.9920 C.3   157  GLU157      0.1699
    159  C        -25.0060   -3.5090   -4.0260 C.2   157  GLU157      0.2592
    160  O        -25.5350   -4.5900   -4.2800 O.2   157  GLU157     -0.2718
    161  CB       -22.6100   -3.4870   -4.7480 C.3   157  GLU157      0.0402
    162  CG       -21.5840   -3.1950   -5.8370 C.3   157  GLU157      0.1161
    163  CD       -20.7870   -1.9280   -5.5810 C.2   157  GLU157      0.3649
    164  OE1      -21.3700   -0.9380   -5.0920 O.co2 157  GLU157     -0.2457
    165  OE2      -19.5730   -1.9230   -5.8750 O.co2 157  GLU157     -0.2457
    166  N        -25.2640   -2.8220   -2.9170 N.am  158  ASN158     -0.1974
    167  CA       -26.1680   -3.3340   -1.8910 C.3   158  ASN158      0.1688
    168  C        -27.5560   -2.7020   -1.9340 C.2   158  ASN158      0.2292
    169  O        -28.3180   -2.7970   -0.9720 O.2   158  ASN158     -0.2864
    170  CB       -25.5590   -3.1470   -0.4990 C.3   158  ASN158      0.1181
    171  CG       -24.3350   -4.0110   -0.2770 C.2   158  ASN158      0.2629
    172  OD1      -24.0510   -4.9180   -1.0590 O.2   158  ASN158     -0.2716
    173  ND2      -23.6040   -3.7370    0.7980 N.am  158  ASN158     -0.0877
    174  N        -31.0220   -2.6550   -4.1720 N.3   160  LEU160     -0.1245
    175  CA       -31.8180   -3.2270   -5.2520 C.3   160  LEU160      0.1561
    176  C        -32.9800   -2.3150   -5.6320 C.2   160  LEU160      0.2260
    177  O        -33.4600   -1.5330   -4.8130 O.2   160  LEU160     -0.2867
    178  CB       -32.3410   -4.6100   -4.8580 C.3   160  LEU160      0.0270
    179  CG       -31.2880   -5.6740   -4.5450 C.3   160  LEU160      0.0019
    180  CD1      -31.9510   -6.9840   -4.1480 C.3   160  LEU160      0.0001
    181  CD2      -30.3610   -5.8800   -5.7320 C.3   160  LEU160      0.0001
    182  N        -29.8800   -4.2700    0.9800 N.3   170  THR170     -0.1203
    183  CA       -29.4730   -5.6480    1.2310 C.3   170  THR170      0.1994
    184  C        -28.1250   -5.7080    1.9410 C.2   170  THR170      0.2617
    185  O        -27.4590   -4.6890    2.1160 O.2   170  THR170     -0.2717
    186  CB       -29.3600   -6.4490   -0.0790 C.3   170  THR170      0.1784
    187  OG1      -28.2590   -5.9530   -0.8490 O.3   170  THR170     -0.2211
    188  CG2      -30.6390   -6.3310   -0.8920 C.3   170  THR170      0.0376
    189  N        -27.7360   -6.9130    2.3440 N.am  171  ASP171     -0.1973
    190  CA       -26.4310   -7.1580    2.9530 C.3   171  ASP171      0.1709
    191  C        -26.2480   -6.4470    4.2930 C.2   171  ASP171      0.2293
    192  O        -25.7440   -5.3250    4.3520 O.2   171  ASP171     -0.2864
    193  CB       -25.3010   -6.7760    1.9920 C.3   171  ASP171      0.1436
    194  CG       -23.9550   -7.3230    2.4300 C.2   171  ASP171      0.3671
    195  OD1      -23.8940   -7.9730    3.4950 O.co2 171  ASP171     -0.2456
    196  OD2      -22.9590   -7.1060    1.7080 O.co2 171  ASP171     -0.2456
    197  N        -29.5080   -9.4280  -13.7340 N.3   313  PHE313     -0.1241
    198  CA       -28.3540   -9.8640  -12.9550 C.3   313  PHE313      0.1605
    199  C        -27.3060  -10.5150  -13.8510 C.2   313  PHE313      0.2264
    200  O        -27.6380  -11.1300  -14.8640 O.2   313  PHE313     -0.2867
    201  CB       -28.7810  -10.8390  -11.8560 C.3   313  PHE313      0.0534
    202  CG       -29.6400  -10.2170  -10.7920 C.ar  313  PHE313     -0.0203
    203  CD1      -29.0680   -9.6700   -9.6550 C.ar  313  PHE313     -0.0042
    204  CD2      -31.0180  -10.1810  -10.9270 C.ar  313  PHE313     -0.0042
    205  CE1      -29.8540   -9.0970   -8.6730 C.ar  313  PHE313     -0.0003
    206  CE2      -31.8090   -9.6100   -9.9490 C.ar  313  PHE313     -0.0003
    207  CZ       -31.2270   -9.0670   -8.8200 C.ar  313  PHE313     -0.0000
@<TRIPOS>BOND
     1   200   199    2
     2   199   198    1
     3   197   198    1
     4   198   201    1
     5   201   202    1
     6   204   202   ar
     7   204   206   ar
     8   202   203   ar
     9   131   130    1
    10   142   141    2
    11   206   207   ar
    12   203   205   ar
    13     8     6    1
    14   130   129   ar
    15   130   128   ar
    16   129   127   ar
    17   139   140    1
    18   141   140    1
    19   207   205   ar
    20     2     1    1
    21     2     3    1
    22     2     5    1
    23     4     3    2
    24   140   143    1
    25     6     5    1
    26     6     7    1
    27     3     9   am
    28   128   126   ar
    29   143   144    1
    30   135   134    2
    31   127   125   ar
    32   146   145   ar
    33   134   133    1
    34   145   144    1
    35   145   147   ar
    36     9    10    1
    37    19    17    1
    38    10    11    1
    39   126   125   ar
    40   125   124    1
    41   133   132    1
    42   133   136    1
    43   137   136    1
    44    11    13   am
    45    11    12    2
    46    17    14    1
    47    17    18    1
    48    13    14    1
    49   165   163   ar
    50   162   163    1
    51   162   161    1
    52   181   179    1
    53   176   175    1
    54   176   177    2
    55   132   122   am
    56    53    52    2
    57   136   138    1
    58   163   164   ar
    59   124   121    1
    60   123   122    2
    61   175   178    1
    62   175   174    1
    63   122   121    1
    64    14    15    1
    65    16    15    2
    66   158   157    1
    67   158   161    1
    68   158   159    1
    69   178   179    1
    70   179   180    1
    71    15    20   am
    72    52    51    1
    73    49    47    1
    74   121   120    1
    75   160   159    2
    76   159   166   am
    77    55    54    1
    78    45    46    1
    79    45    44    1
    80    20    21    1
    81    43    44    1
    82    43    40    1
    83    51    54    1
    84    51    50    1
    85    54    56    1
    86   120   113   am
    87    50    41   am
    88    47    46    2
    89    47    48    1
    90    61    58    1
    91   166   167    1
    92    58    57    1
    93    58    59    1
    94   150   151    2
    95   150   149    1
    96    21    22    1
    97    40    41    1
    98    40    39    1
    99    41    42    2
   100   113   114    2
   101   113   112    1
   102   168   167    1
   103   168   169    2
   104   167   170    1
   105    23    22    2
   106   152   149    1
   107   152   153    1
   108    38    37    2
   109   149   148    1
   110    59    60    2
   111   154   153    1
   112   154   155    1
   113   155   156    1
   114    39    37   am
   115   172   171    2
   116   188   186    1
   117    37    36    1
   118   112   115    1
   119   112   111    1
   120   187   186    1
   121   106   105    2
   122   115   116    1
   123   170   171    1
   124   171   173   am
   125   186   183    1
   126    94    92    1
   127   111   105   am
   128   105   104    1
   129   118   117   ar
   130   116   117    1
   131   117   119   ar
   132    62    63    1
   133    36    35    1
   134    63    66    1
   135    63    64    1
   136    93    92    1
   137   182   183    1
   138    24    25    1
   139   183   184    1
   140    35    26   am
   141    92    89    1
   142    66    67    1
   143    64    65    2
   144   104   103    1
   145   104   107    1
   146   196   194   ar
   147    67    68    1
   148   107   108    1
   149    25    26    1
   150    25    28    1
   151    26    27    2
   152   184   185    2
   153   184   189   am
   154    68    69    1
   155   193   194    1
   156   193   190    1
   157    89    88    1
   158    89    90    1
   159   189   190    1
   160   194   195   ar
   161    98    97    2
   162   190   191    1
   163   108   109    1
   164    69    70    1
   165    28    29    1
   166   109   110    1
   167    90    91    2
   168    97    96    1
   169    29    30   ar
   170    29    31   ar
   171    30    32   ar
   172   191   192    2
   173    95    96    1
   174    96    99    1
   175    32    34   ar
   176    31    33   ar
   177    99   100    1
   178    79    77   ar
   179    34    33   ar
   180   102   101    1
   181   100   101    1
   182    77    78   ar
   183    77    76    1
   184    86    85    1
   185    87    85    1
   186    85    84    1
   187    76    75    1
   188    84    81    1
   189    75    72    1
   190    83    82    2
   191    81    82    1
   192    81    80    1
   193    74    73    2
   194    72    73    1
   195    72    71    1
