@<TRIPOS>MOLECULE
tmp/3kkzA00.pdb
 196 191 0 0 0
SMALL
GASTEIGER

@<TRIPOS>ATOM
      1  N         43.0380   66.1120   22.5290 N.3    19  ARG19      -0.1231
      2  CA        42.1360   65.4510   21.5890 C.3    19  ARG19       0.1694
      3  C         42.8850   65.2070   20.2880 C.2    19  ARG19       0.2592
      4  O         43.8070   65.9560   19.9500 O.2    19  ARG19      -0.2718
      5  CB        40.9090   66.3270   21.2820 C.3    19  ARG19       0.0321
      6  CG        39.9430   66.5020   22.4490 C.3    19  ARG19       0.0489
      7  CD        39.2470   65.1970   22.8120 C.3    19  ARG19       0.2205
      8  NE        38.4590   64.6260   21.7180 N.pl3  19  ARG19      -0.0865
      9  CZ        37.2020   64.9630   21.4320 C.cat  19  ARG19       0.5346
     10  NH1       36.5690   65.8850   22.1540 N.pl3  19  ARG19       0.1354
     11  NH2       36.5720   64.3640   20.4260 N.pl3  19  ARG19       0.1354
     12  N         42.4690   64.1860   19.5420 N.am   20  GLN20      -0.1966
     13  CA        43.1220   63.8670   18.2710 C.3    20  GLN20       0.1733
     14  C         42.1960   64.0520   17.0720 C.2    20  GLN20       0.2617
     15  O         42.4930   63.6050   15.9610 O.2    20  GLN20      -0.2715
     16  CB        43.7170   62.4590   18.2990 C.3    20  GLN20       0.0408
     17  CG        44.8580   62.3060   19.3010 C.3    20  GLN20       0.0908
     18  CD        44.3600   62.1410   20.7220 C.2    20  GLN20       0.2608
     19  OE1       43.4070   61.3970   20.9680 O.2    20  GLN20      -0.2717
     20  NE2       45.0040   62.8260   21.6670 N.am   20  GLN20      -0.0878
     21  N         41.0880   64.7460   17.2980 N.am   21  GLY21      -0.1941
     22  CA        40.1770   65.1060   16.2230 C.3    21  GLY21       0.1998
     23  C         39.2310   66.1940   16.7060 C.2    21  GLY21       0.2480
     24  O         39.2350   66.5410   17.8860 O.2    21  GLY21      -0.2729
     25  N         38.4190   66.7400   15.7960 N.am   22  PRO22      -0.2726
     26  CA        37.4890   67.8200   16.1480 C.3    22  PRO22       0.1402
     27  C         36.5130   67.3910   17.2350 C.2    22  PRO22       0.2269
     28  O         36.0590   66.2480   17.2390 O.2    22  PRO22      -0.2865
     29  CB        36.7320   68.0700   14.8410 C.3    22  PRO22       0.0296
     30  CG        37.7210   67.6610   13.7680 C.3    22  PRO22       0.0237
     31  CD        38.4780   66.4970   14.3440 C.3    22  PRO22       0.0939
     32  N         35.0930   53.6490   21.0780 N.3    47  ILE47      -0.1231
     33  CA        35.8800   52.9850   20.0390 C.3    47  ILE47       0.1692
     34  C         36.7290   53.9930   19.2720 C.2    47  ILE47       0.2593
     35  O         36.2260   55.0280   18.8500 O.2    47  ILE47      -0.2718
     36  CB        34.9440   52.2550   19.0460 C.3    47  ILE47       0.0266
     37  CG1       33.9650   51.3480   19.7950 C.3    47  ILE47       0.0019
     38  CG2       35.7350   51.4770   17.9940 C.3    47  ILE47       0.0020
     39  CD1       34.6210   50.3690   20.6960 C.3    47  ILE47       0.0001
     40  N         38.0120   53.6850   19.0800 N.am   48  GLY48      -0.1942
     41  CA        38.9390   54.6510   18.5100 C.3    48  GLY48       0.2014
     42  C         39.1120   55.8480   19.4300 C.2    48  GLY48       0.2639
     43  O         39.1050   56.9960   18.9800 O.2    48  GLY48      -0.2714
     44  N         39.2890   55.5710   20.7210 N.am   49  CYS49      -0.1953
     45  CA        39.2550   56.5970   21.7610 C.3    49  CYS49       0.1843
     46  C         40.4650   57.5370   21.7830 C.2    49  CYS49       0.2626
     47  O         40.4310   58.5690   22.4520 O.2    49  CYS49      -0.2714
     48  CB        39.1200   55.9440   23.1450 C.3    49  CYS49       0.0997
     49  SG        40.4940   54.8440   23.5540 S.3    49  CYS49      -0.0797
     50  N         41.5320   57.1920   21.0690 N.am   50  GLY50      -0.1954
     51  CA        42.7380   58.0030   21.1390 C.3    50  GLY50       0.1869
     52  C         43.2730   58.0140   22.5620 C.2    50  GLY50       0.2309
     53  O         43.2460   56.9870   23.2470 O.2    50  GLY50      -0.2863
     54  N         37.8570   62.8240   25.1950 N.3    54  GLN54      -0.1245
     55  CA        36.3930   62.7670   25.2600 C.3    54  GLN54       0.1566
     56  C         35.9100   61.6870   26.2330 C.2    54  GLN54       0.2260
     57  O         34.8520   61.8240   26.8440 O.2    54  GLN54      -0.2867
     58  CB        35.7670   62.5790   23.8620 C.3    54  GLN54       0.0367
     59  CG        35.9260   61.1730   23.2410 C.3    54  GLN54       0.0905
     60  CD        37.3730   60.8350   22.8700 C.2    54  GLN54       0.2608
     61  OE1       38.2100   61.7180   22.7070 O.2    54  GLN54      -0.2717
     62  NE2       37.6590   59.5510   22.7230 N.am   54  GLN54      -0.0878
     63  N         38.7880   51.8290   23.6300 N.3    68  LEU68      -0.1231
     64  CA        39.5480   50.9150   22.7870 C.3    68  LEU68       0.1693
     65  C         40.2350   51.6730   21.6620 C.2    68  LEU68       0.2592
     66  O         39.6190   52.4980   20.9870 O.2    68  LEU68      -0.2718
     67  CB        38.6340   49.8170   22.2220 C.3    68  LEU68       0.0284
     68  CG        39.2390   48.8440   21.2060 C.3    68  LEU68       0.0019
     69  CD1       38.5730   47.4670   21.3190 C.3    68  LEU68       0.0001
     70  CD2       39.1530   49.3890   19.7740 C.3    68  LEU68       0.0001
     71  N         41.5200   51.4030   21.4570 N.am   69  ASP69      -0.1960
     72  CA        42.2280   52.0350   20.3510 C.3    69  ASP69       0.1840
     73  C         43.2830   51.0930   19.8020 C.2    69  ASP69       0.2622
     74  O         43.7910   50.2390   20.5190 O.2    69  ASP69      -0.2715
     75  CB        42.8820   53.3490   20.7870 C.3    69  ASP69       0.1450
     76  CG        43.1500   54.2740   19.6120 C.2    69  ASP69       0.3671
     77  OD1       44.2040   54.1290   18.9420 O.co2  69  ASP69      -0.2456
     78  OD2       42.2920   55.1360   19.3450 O.co2  69  ASP69      -0.2456
     79  N         43.6030   51.2620   18.5240 N.am   70  PHE70      -0.1960
     80  CA        44.6050   50.4440   17.8620 C.3    70  PHE70       0.1771
     81  C         46.0160   50.7450   18.3660 C.2    70  PHE70       0.2619
     82  O         46.8700   49.8590   18.4080 O.2    70  PHE70      -0.2715
     83  CB        44.5380   50.6690   16.3510 C.3    70  PHE70       0.0574
     84  CG        45.5210   49.8540   15.5860 C.ar   70  PHE70      -0.0200
     85  CD1       45.2650   48.5220   15.3090 C.ar   70  PHE70      -0.0042
     86  CD2       46.7190   50.4090   15.1640 C.ar   70  PHE70      -0.0042
     87  CE1       46.1820   47.7590   14.6120 C.ar   70  PHE70      -0.0003
     88  CE2       47.6370   49.6530   14.4700 C.ar   70  PHE70      -0.0003
     89  CZ        47.3680   48.3240   14.1930 C.ar   70  PHE70      -0.0000
     90  N         46.2630   51.9940   18.7420 N.am   71  LEU71      -0.1977
     91  CA        47.6200   52.4180   19.1030 C.3    71  LEU71       0.1596
     92  C         47.8980   52.2740   20.5960 C.2    71  LEU71       0.2287
     93  O         47.3150   52.9890   21.4090 O.2    71  LEU71      -0.2864
     94  CB        47.8510   53.8670   18.6850 C.3    71  LEU71       0.0297
     95  CG        47.9570   54.1150   17.1800 C.3    71  LEU71       0.0022
     96  CD1       48.2150   55.5840   16.8880 C.3    71  LEU71       0.0001
     97  CD2       49.0640   53.2600   16.5880 C.3    71  LEU71       0.0001
     98  N         48.6590   55.4270   22.5160 N.3    74  PHE74      -0.1241
     99  CA        47.4960   56.2170   22.9280 C.3    74  PHE74       0.1605
    100  C         46.8420   55.6120   24.1730 C.2    74  PHE74       0.2264
    101  O         46.4330   56.3280   25.0950 O.2    74  PHE74      -0.2867
    102  CB        46.4590   56.2950   21.7990 C.3    74  PHE74       0.0534
    103  CG        46.7860   57.3030   20.7240 C.ar   74  PHE74      -0.0203
    104  CD1       47.8210   58.2150   20.8840 C.ar   74  PHE74      -0.0042
    105  CD2       46.0440   57.3380   19.5530 C.ar   74  PHE74      -0.0042
    106  CE1       48.1110   59.1470   19.8820 C.ar   74  PHE74      -0.0003
    107  CE2       46.3260   58.2660   18.5460 C.ar   74  PHE74      -0.0003
    108  CZ        47.3630   59.1680   18.7110 C.ar   74  PHE74      -0.0000
    109  N         42.9870   47.3650   20.7120 N.3    96  GLY96      -0.1210
    110  CA        42.1870   46.5200   19.8490 C.3    96  GLY96       0.1956
    111  C         41.8750   47.2050   18.5400 C.2    96  GLY96       0.2612
    112  O         42.2250   48.3680   18.3430 O.2    96  GLY96      -0.2717
    113  N         41.2150   46.4800   17.6430 N.am   97  SER97      -0.1952
    114  CA        40.8630   47.0150   16.3380 C.3    97  SER97       0.1924
    115  C         39.3490   47.0350   16.1670 C.2    97  SER97       0.2314
    116  O         38.6650   46.0790   16.5340 O.2    97  SER97      -0.2863
    117  CB        41.4980   46.1870   15.2290 C.3    97  SER97       0.2116
    118  OG        41.2130   46.7660   13.9680 O.3    97  SER97      -0.2180
    119  N         37.5530   46.6940   13.6810 N.3    98  ASP98      -0.1239
    120  CA        37.0280   45.6980   12.7530 C.3    98  ASP98       0.1674
    121  C         36.9770   44.3110   13.3900 C.2    98  ASP98       0.2266
    122  O         36.5970   43.3340   12.7400 O.2    98  ASP98      -0.2867
    123  CB        37.8230   45.6720   11.4340 C.3    98  ASP98       0.1410
    124  CG        39.2350   45.1520   11.6080 C.2    98  ASP98       0.3668
    125  OD1       39.7000   45.0520   12.7620 O.co2  98  ASP98      -0.2456
    126  OD2       39.8840   44.8410   10.5850 O.co2  98  ASP98      -0.2456
    127  N         34.1640   59.0570   18.5860 N.3   113  GLU113     -0.1231
    128  CA        34.3170   60.3880   18.0050 C.3   113  GLU113      0.1699
    129  C         35.4700   60.4430   17.0180 C.2   113  GLU113      0.2593
    130  O         36.5880   60.0300   17.3330 O.2   113  GLU113     -0.2718
    131  CB        34.4790   61.4550   19.0940 C.3   113  GLU113      0.0402
    132  CG        33.2380   61.5950   19.9830 C.3   113  GLU113      0.1161
    133  CD        33.2350   62.8720   20.8050 C.2   113  GLU113      0.3649
    134  OE1       33.6600   63.9290   20.2810 O.co2 113  GLU113     -0.2457
    135  OE2       32.8000   62.8180   21.9770 O.co2 113  GLU113     -0.2457
    136  N         35.1800   60.9250   15.8120 N.am  114  GLY114     -0.1942
    137  CA        36.2080   61.1110   14.7990 C.3   114  GLY114      0.2014
    138  C         37.0290   59.8650   14.5270 C.2   114  GLY114      0.2638
    139  O         38.2430   59.9520   14.3300 O.2   114  GLY114     -0.2714
    140  N         36.3830   58.7030   14.4970 N.am  115  ALA115     -0.1977
    141  CA        37.1360   57.4550   14.3420 C.3   115  ALA115      0.1597
    142  C         36.4740   56.3870   13.4770 C.2   115  ALA115      0.2287
    143  O         37.1610   55.5040   12.9590 O.2   115  ALA115     -0.2864
    144  CB        37.4690   56.8790   15.7110 C.3   115  ALA115      0.0319
    145  N         35.3760   56.4910   10.6220 N.3   117  TYR117     -0.1227
    146  CA        35.8350   56.5710    9.2300 C.3   117  TYR117      0.1736
    147  C         36.9250   55.5290    8.9400 C.2   117  TYR117      0.2595
    148  O         37.1600   55.1690    7.7810 O.2   117  TYR117     -0.2718
    149  CB        36.3430   57.9770    8.8980 C.3   117  TYR117      0.0548
    150  CG        37.6760   58.3030    9.5260 C.ar  117  TYR117     -0.0200
    151  CD1       38.8680   57.8960    8.9310 C.ar  117  TYR117     -0.0009
    152  CD2       37.7450   58.9980   10.7160 C.ar  117  TYR117     -0.0009
    153  CE1       40.0870   58.1840    9.5030 C.ar  117  TYR117      0.0417
    154  CE2       38.9680   59.2930   11.3000 C.ar  117  TYR117      0.0417
    155  CZ        40.1340   58.8820   10.6910 C.ar  117  TYR117      0.1957
    156  OH        41.3500   59.1710   11.2750 O.3   117  TYR117     -0.2866
    157  N         37.5930   55.0460    9.9880 N.am  118  ASN118     -0.1960
    158  CA        38.6340   54.0330    9.8000 C.3   118  ASN118      0.1819
    159  C         38.1060   52.7130    9.2440 C.2   118  ASN118      0.2621
    160  O         38.8210   52.0040    8.5280 O.2   118  ASN118     -0.2715
    161  CB        39.4420   53.8090   11.0860 C.3   118  ASN118      0.1195
    162  CG        40.3970   54.9550   11.3720 C.2   118  ASN118      0.2630
    163  OD1       41.3930   55.1340   10.6690 O.2   118  ASN118     -0.2716
    164  ND2       40.0930   55.7410   12.3950 N.am  118  ASN118     -0.0877
    165  N         36.8590   52.3720    9.5610 N.am  119  ILE119     -0.1977
    166  CA        36.2500   51.2100    8.9190 C.3   119  ILE119      0.1596
    167  C         35.1300   51.5930    7.9640 C.2   119  ILE119      0.2287
    168  O         34.7130   50.7850    7.1360 O.2   119  ILE119     -0.2864
    169  CB        35.7420   50.1590    9.9190 C.3   119  ILE119      0.0276
    170  CG1       34.7490   50.7750   10.9010 C.3   119  ILE119      0.0022
    171  CG2       36.9090   49.5110   10.6420 C.3   119  ILE119      0.0022
    172  CD1       34.0830   49.7360   11.7780 C.3   119  ILE119      0.0001
    173  N         41.0140   71.9920   18.1610 N.3   196  TYR196     -0.1241
    174  CA        41.7990   71.0320   17.3950 C.3   196  TYR196      0.1605
    175  C         42.9670   71.6670   16.6280 C.2   196  TYR196      0.2264
    176  O         44.1270   71.4170   16.9570 O.2   196  TYR196     -0.2867
    177  CB        40.8840   70.1760   16.5000 C.3   196  TYR196      0.0534
    178  CG        41.6110   69.1900   15.6160 C.ar  196  TYR196     -0.0201
    179  CD1       42.2300   68.0650   16.1470 C.ar  196  TYR196     -0.0009
    180  CD2       41.6660   69.3810   14.2450 C.ar  196  TYR196     -0.0009
    181  CE1       42.9040   67.1620   15.3270 C.ar  196  TYR196      0.0417
    182  CE2       42.3310   68.4910   13.4190 C.ar  196  TYR196      0.0417
    183  CZ        42.9470   67.3860   13.9600 C.ar  196  TYR196      0.1957
    184  OH        43.6040   66.5130   13.1170 O.3   196  TYR196     -0.2866
    185  N         31.8220   67.9660   10.7770 N.3   239  TYR239     -0.1241
    186  CA        31.5410   66.7440   11.5070 C.3   239  TYR239      0.1605
    187  C         30.1120   66.8170   12.0010 C.2   239  TYR239      0.2264
    188  O         29.6260   67.8930   12.3550 O.2   239  TYR239     -0.2867
    189  CB        32.4520   66.6390   12.7310 C.3   239  TYR239      0.0534
    190  CG        33.6560   65.7430   12.5890 C.ar  239  TYR239     -0.0201
    191  CD1       34.2500   65.5120   11.3550 C.ar  239  TYR239     -0.0009
    192  CD2       34.2340   65.1610   13.7140 C.ar  239  TYR239     -0.0009
    193  CE1       35.3760   64.7010   11.2500 C.ar  239  TYR239      0.0417
    194  CE2       35.3540   64.3560   13.6150 C.ar  239  TYR239      0.0417
    195  CZ        35.9150   64.1280   12.3760 C.ar  239  TYR239      0.1957
    196  OH        37.0320   63.3230   12.2630 O.3   239  TYR239     -0.2866
@<TRIPOS>BOND
     1   168   167    2
     2   148   147    2
     3   167   166    1
     4   160   159    2
     5   149   146    1
     6   149   150    1
     7   166   165    1
     8   166   169    1
     9   151   153   ar
    10   151   150   ar
    11   147   146    1
    12   147   157   am
    13   146   145    1
    14   159   165   am
    15   159   158    1
    16   153   155   ar
    17   150   152   ar
    18   158   157    1
    19   158   161    1
    20   169   171    1
    21   169   170    1
    22   126   124   ar
    23   163   162    2
    24   155   156    1
    25   155   154   ar
    26   152   154   ar
    27   185   186    1
    28   170   172    1
    29   161   162    1
    30   193   191   ar
    31   193   195   ar
    32   191   190   ar
    33   162   164   am
    34   123   124    1
    35   123   120    1
    36   186   187    1
    37   186   189    1
    38   124   125   ar
    39   187   188    2
    40   196   195    1
    41   195   194   ar
    42   190   189    1
    43   190   192   ar
    44   122   121    2
    45   120   121    1
    46   120   119    1
    47   143   142    2
    48   184   183    1
    49   182   183   ar
    50   182   180   ar
    51   142   141    1
    52   194   192   ar
    53    30    31    1
    54    30    29    1
    55   183   181   ar
    56   118   117    1
    57    89    88   ar
    58    89    87   ar
    59   180   178   ar
    60   139   138    2
    61   141   140    1
    62   141   144    1
    63    31    25    1
    64    88    86   ar
    65   140   138   am
    66   138   137    1
    67    87    85   ar
    68   137   136    1
    69    29    26    1
    70    86    84   ar
    71   117   114    1
    72    85    84   ar
    73   181   179   ar
    74    84    83    1
    75   178   179   ar
    76   178   177    1
    77    25    26    1
    78    25    23   am
    79   136   129   am
    80    15    14    2
    81    26    27    1
    82   115   114    1
    83   115   116    2
    84    22    23    1
    85    22    21    1
    86   114   113    1
    87    83    80    1
    88   177   174    1
    89    97    95    1
    90   175   176    2
    91   175   174    1
    92    23    24    2
    93    96    95    1
    94   129   130    2
    95   129   128    1
    96    14    21   am
    97    14    13    1
    98    95    94    1
    99    27    28    2
   100   174   173    1
   101   113   111   am
   102    80    81    1
   103    80    79    1
   104    38    36    1
   105   128   127    1
   106   128   131    1
   107    13    16    1
   108    13    12    1
   109    16    17    1
   110   112   111    2
   111    81    82    2
   112    81    90   am
   113    41    40    1
   114    41    42    1
   115    79    73   am
   116   111   110    1
   117   107   108   ar
   118   107   105   ar
   119    94    91    1
   120   108   106   ar
   121    90    91    1
   122    35    34    2
   123    77    76   ar
   124    43    42    2
   125    36    37    1
   126    36    33    1
   127    40    34   am
   128   131   132    1
   129    91    92    1
   130    34    33    1
   131    17    18    1
   132    78    76   ar
   133    42    44   am
   134    12     3   am
   135   105   103   ar
   136    76    75    1
   137    70    68    1
   138    37    39    1
   139    73    72    1
   140    73    74    2
   141   110   109    1
   142   106   104   ar
   143     4     3    2
   144   132   133    1
   145    33    32    1
   146   134   133   ar
   147     3     2    1
   148    72    75    1
   149    72    71    1
   150    11     9    1
   151    92    93    2
   152    44    45    1
   153    18    19    2
   154    18    20   am
   155   103   104   ar
   156   103   102    1
   157   133   135   ar
   158    66    65    2
   159    50    51    1
   160    50    46   am
   161    51    52    1
   162    68    69    1
   163    68    67    1
   164     5     2    1
   165     5     6    1
   166     9     8    2
   167     9    10    1
   168    71    65   am
   169     2     1    1
   170    65    64    1
   171     8     7    1
   172    45    46    1
   173    45    48    1
   174    46    47    2
   175   102    99    1
   176    67    64    1
   177     6     7    1
   178    98    99    1
   179    52    53    2
   180    61    60    2
   181    62    60   am
   182    64    63    1
   183    60    59    1
   184    99   100    1
   185    48    49    1
   186    59    58    1
   187    58    55    1
   188   100   101    2
   189    54    55    1
   190    55    56    1
   191    56    57    2
