@<TRIPOS>MOLECULE
tmp/3kl0A04.pdb
 118 120 0 0 0
SMALL
GASTEIGER

@<TRIPOS>ATOM
      1  N         54.9090   68.1610   -1.6860 N.3    26  TRP26      -0.1241
      2  CA        55.3630   68.6520   -0.3860 C.3    26  TRP26       0.1605
      3  C         56.7840   69.1830   -0.4300 C.2    26  TRP26       0.2264
      4  O         57.0670   70.1940    0.2020 O.2    26  TRP26      -0.2867
      5  CB        55.2300   67.5840    0.7120 C.3    26  TRP26       0.0550
      6  CG        53.8310   67.3240    1.1490 C.ar   26  TRP26       0.0003
      7  CD1       52.6780   67.8770    0.6360 C.ar   26  TRP26       0.0946
      8  CD2       53.4120   66.4010    2.1560 C.ar   26  TRP26       0.0152
      9  NE1       51.5810   67.3850    1.2980 N.ar   26  TRP26      -0.2442
     10  CE2       52.0040   66.4830    2.2420 C.ar   26  TRP26       0.0810
     11  CE3       54.0920   65.5420    3.0270 C.ar   26  TRP26       0.0012
     12  CZ2       51.2620   65.7100    3.1370 C.ar   26  TRP26       0.0191
     13  CZ3       53.3510   64.7850    3.9320 C.ar   26  TRP26       0.0001
     14  CH2       51.9540   64.8700    3.9770 C.ar   26  TRP26       0.0015
     15  N         48.3630   58.9260    2.4130 N.3    84  TRP84      -0.1241
     16  CA        48.1970   59.6920    3.6380 C.3    84  TRP84       0.1605
     17  C         46.6870   59.8610    3.9370 C.2    84  TRP84       0.2264
     18  O         46.2530   59.7480    5.0940 O.2    84  TRP84      -0.2867
     19  CB        48.8750   61.0590    3.5090 C.3    84  TRP84       0.0550
     20  CG        50.2830   61.1320    4.0850 C.ar   84  TRP84       0.0003
     21  CD1       50.6850   61.8360    5.1920 C.ar   84  TRP84       0.0946
     22  CD2       51.4560   60.4840    3.5780 C.ar   84  TRP84       0.0152
     23  NE1       52.0200   61.6530    5.4180 N.ar   84  TRP84      -0.2442
     24  CE2       52.5300   60.8430    4.4310 C.ar   84  TRP84       0.0810
     25  CE3       51.7110   59.6430    2.4750 C.ar   84  TRP84       0.0012
     26  CZ2       53.8340   60.3870    4.2260 C.ar   84  TRP84       0.0191
     27  CZ3       53.0070   59.2020    2.2680 C.ar   84  TRP84       0.0001
     28  CH2       54.0560   59.5660    3.1470 C.ar   84  TRP84       0.0015
     29  N         49.8670   55.5790    5.7950 N.3   138  ASN138     -0.1225
     30  CA        50.9950   56.1390    6.5060 C.3   138  ASN138      0.1785
     31  C         50.6240   56.5010    7.9550 C.2   138  ASN138      0.2597
     32  O         49.6890   57.2730    8.1720 O.2   138  ASN138     -0.2718
     33  CB        51.4810   57.4070    5.8260 C.3   138  ASN138      0.1169
     34  CG        52.6630   57.9890    6.5580 C.2   138  ASN138      0.2627
     35  OD1       53.7430   57.3960    6.5400 O.2   138  ASN138     -0.2716
     36  ND2       52.4490   59.0930    7.2930 N.am  138  ASN138     -0.0877
     37  N         51.3850   55.9980    8.9250 N.am  139  GLU139     -0.1979
     38  CA        51.2220   56.3670   10.3480 C.3   139  GLU139      0.1602
     39  C         49.7560   56.5100   10.7990 C.2   139  GLU139      0.2287
     40  O         49.3270   57.6080   11.1710 O.2   139  GLU139     -0.2864
     41  CB        52.0230   57.6600   10.6330 C.3   139  GLU139      0.0415
     42  CG        53.5170   57.4540   10.4390 C.3   139  GLU139      0.1163
     43  CD        54.3810   58.6650   10.8340 C.2   139  GLU139      0.3649
     44  OE1       53.8300   59.6740   11.3440 O.co2 139  GLU139     -0.2457
     45  OE2       55.6190   58.5990   10.6660 O.co2 139  GLU139     -0.2457
     46  N         46.3460   63.8100    9.1010 N.3   146  TRP146     -0.1241
     47  CA        45.8590   62.9340    8.0280 C.3   146  TRP146      0.1605
     48  C         44.7040   62.0460    8.5210 C.2   146  TRP146      0.2264
     49  O         43.7540   62.5660    9.1020 O.2   146  TRP146     -0.2867
     50  CB        47.0130   62.1910    7.3160 C.3   146  TRP146      0.0550
     51  CG        48.1020   61.5620    8.1800 C.ar  146  TRP146      0.0003
     52  CD1       48.0930   60.3160    8.7850 C.ar  146  TRP146      0.0946
     53  CD2       49.3710   62.1460    8.4940 C.ar  146  TRP146      0.0152
     54  NE1       49.2870   60.1100    9.4590 N.ar  146  TRP146     -0.2442
     55  CE2       50.0860   61.2100    9.2890 C.ar  146  TRP146      0.0810
     56  CE3       49.9830   63.3730    8.1710 C.ar  146  TRP146      0.0012
     57  CZ2       51.3760   61.4740    9.7840 C.ar  146  TRP146      0.0191
     58  CZ3       51.2640   63.6250    8.6390 C.ar  146  TRP146      0.0001
     59  CH2       51.9550   62.6760    9.4350 C.ar  146  TRP146      0.0015
     60  N         60.4180   56.6790   14.4640 N.3   203  TYR203     -0.1241
     61  CA        60.5540   58.0070   15.1200 C.3   203  TYR203      0.1605
     62  C         60.4200   57.9330   16.6290 C.2   203  TYR203      0.2264
     63  O         59.3450   57.6250   17.1550 O.2   203  TYR203     -0.2867
     64  CB        59.5070   58.9950   14.5680 C.3   203  TYR203      0.0534
     65  CG        59.7400   59.3780   13.1110 C.ar  203  TYR203     -0.0201
     66  CD1       60.7450   60.2860   12.7610 C.ar  203  TYR203     -0.0009
     67  CD2       58.9190   58.8520   12.0840 C.ar  203  TYR203     -0.0009
     68  CE1       60.9840   60.6440   11.4060 C.ar  203  TYR203      0.0417
     69  CE2       59.1280   59.2030   10.7360 C.ar  203  TYR203      0.0417
     70  CZ        60.1660   60.0970   10.4120 C.ar  203  TYR203      0.1957
     71  OH        60.3610   60.4960    9.1200 O.3   203  TYR203     -0.2866
     72  N         60.2460   54.5170    6.7550 N.3   228  GLU228     -0.1245
     73  CA        60.4700   55.9610    6.8580 C.3   228  GLU228      0.1567
     74  C         61.1350   56.3250    8.1680 C.2   228  GLU228      0.2260
     75  O         60.6780   55.8980    9.2340 O.2   228  GLU228     -0.2867
     76  CB        59.1320   56.7180    6.7750 C.3   228  GLU228      0.0388
     77  CG        59.3240   58.2550    6.7080 C.3   228  GLU228      0.1160
     78  CD        58.0660   59.0690    7.0400 C.2   228  GLU228      0.3649
     79  OE1       56.9410   58.7430    6.5760 O.co2 228  GLU228     -0.2457
     80  OE2       58.2130   60.0950    7.7670 O.co2 228  GLU228     -0.2457
     81  N         63.8420   59.9020    9.6950 N.3   230  TYR230     -0.1241
     82  CA        65.0960   60.6750    9.6380 C.3   230  TYR230      0.1605
     83  C         65.7730   60.5380   11.0250 C.2   230  TYR230      0.2264
     84  O         65.1130   60.2430   11.9990 O.2   230  TYR230     -0.2867
     85  CB        64.8760   62.1590    9.2190 C.3   230  TYR230      0.0534
     86  CG        63.9360   62.9300   10.1080 C.ar  230  TYR230     -0.0201
     87  CD1       64.3060   63.2730   11.4040 C.ar  230  TYR230     -0.0009
     88  CD2       62.6670   63.2940    9.6660 C.ar  230  TYR230     -0.0009
     89  CE1       63.4220   63.9610   12.2390 C.ar  230  TYR230      0.0417
     90  CE2       61.7830   63.9740   10.4810 C.ar  230  TYR230      0.0417
     91  CZ        62.1670   64.3090   11.7620 C.ar  230  TYR230      0.1957
     92  OH        61.2720   64.9990   12.5590 O.3   230  TYR230     -0.2866
     93  N         63.2470   59.4970    4.9280 N.3   267  TRP267     -0.1241
     94  CA        62.2120   60.4600    4.4970 C.3   267  TRP267      0.1605
     95  C         62.7490   61.1970    3.2400 C.2   267  TRP267      0.2264
     96  O         63.4720   60.5900    2.4340 O.2   267  TRP267     -0.2867
     97  CB        61.9410   61.4080    5.6670 C.3   267  TRP267      0.0550
     98  CG        60.8050   62.4140    5.5410 C.ar  267  TRP267      0.0003
     99  CD1       60.8440   63.7290    5.9920 C.ar  267  TRP267      0.0946
    100  CD2       59.4970   62.2220    4.9800 C.ar  267  TRP267      0.0152
    101  NE1       59.6370   64.3500    5.7520 N.ar  267  TRP267     -0.2442
    102  CE2       58.7950   63.4560    5.1260 C.ar  267  TRP267      0.0810
    103  CE3       58.8210   61.1220    4.3920 C.ar  267  TRP267      0.0012
    104  CZ2       57.4550   63.6230    4.7170 C.ar  267  TRP267      0.0191
    105  CZ3       57.4860   61.3080    3.9610 C.ar  267  TRP267      0.0001
    106  CH2       56.8280   62.5670    4.1120 C.ar  267  TRP267      0.0015
    107  N         68.6200   68.3600    5.8670 N.3   273  TYR273     -0.1241
    108  CA        69.0140   67.3690    6.8800 C.3   273  TYR273      0.1605
    109  C         69.0280   65.9400    6.2860 C.2   273  TYR273      0.2264
    110  O         69.1620   64.9670    7.0340 O.2   273  TYR273     -0.2867
    111  CB        68.0500   67.4320    8.0770 C.3   273  TYR273      0.0534
    112  CG        66.6000   67.1540    7.7060 C.ar  273  TYR273     -0.0201
    113  CD1       66.0770   65.8510    7.7720 C.ar  273  TYR273     -0.0009
    114  CD2       65.7460   68.1820    7.2840 C.ar  273  TYR273     -0.0009
    115  CE1       64.7490   65.5860    7.4120 C.ar  273  TYR273      0.0417
    116  CE2       64.4130   67.9300    6.9520 C.ar  273  TYR273      0.0417
    117  CZ        63.9240   66.6250    6.9890 C.ar  273  TYR273      0.1957
    118  OH        62.6130   66.3670    6.6310 O.3   273  TYR273     -0.2866
@<TRIPOS>BOND
     1     1     2    1
     2     3     2    1
     3     3     4    2
     4     2     5    1
     5     7     6   ar
     6     7     9   ar
     7     5     6    1
     8     6     8   ar
     9     9    10   ar
    10     8    10   ar
    11     8    11   ar
    12    10    12   ar
    13    27    25   ar
    14    27    28   ar
    15    15    16    1
    16    96    95    2
    17    25    22   ar
    18    11    13   ar
    19    12    14   ar
    20    28    26   ar
    21    95    94    1
    22    19    16    1
    23    19    20    1
    24    22    20   ar
    25    22    24   ar
    26    16    17    1
    27    13    14   ar
    28    17    18    2
    29   105   106   ar
    30   105   103   ar
    31    20    21   ar
    32   106   104   ar
    33    26    24   ar
    34   103   100   ar
    35    24    23   ar
    36    94    93    1
    37    94    97    1
    38   104   102   ar
    39   100   102   ar
    40   100    98   ar
    41   102   101   ar
    42    21    23   ar
    43    98    97    1
    44    98    99   ar
    45   101    99   ar
    46    29    30    1
    47    33    30    1
    48    33    34    1
    49   107   108    1
    50   109   108    1
    51   109   110    2
    52    30    31    1
    53    35    34    2
    54    34    36   am
    55    79    78   ar
    56   118   117    1
    57    77    76    1
    58    77    78    1
    59    72    73    1
    60    76    73    1
    61    73    74    1
    62   108   111    1
    63   116   117   ar
    64   116   114   ar
    65   117   115   ar
    66    78    80   ar
    67   114   112   ar
    68    50    47    1
    69    50    51    1
    70   115   113   ar
    71   112   113   ar
    72   112   111    1
    73    31    32    2
    74    31    37   am
    75    47    48    1
    76    47    46    1
    77    74    75    2
    78    56    53   ar
    79    56    58   ar
    80    51    53   ar
    81    51    52   ar
    82    53    55   ar
    83    48    49    2
    84    58    59   ar
    85    52    54   ar
    86    37    38    1
    87    71    70    1
    88    85    82    1
    89    85    86    1
    90    55    54   ar
    91    55    57   ar
    92    59    57   ar
    93    82    81    1
    94    82    83    1
    95    88    86   ar
    96    88    90   ar
    97    86    87   ar
    98    38    41    1
    99    38    39    1
   100    70    69   ar
   101    70    68   ar
   102    42    41    1
   103    42    43    1
   104    90    91   ar
   105    45    43   ar
   106    69    67   ar
   107    39    40    2
   108    43    44   ar
   109    83    84    2
   110    87    89   ar
   111    68    66   ar
   112    91    89   ar
   113    91    92    1
   114    67    65   ar
   115    66    65   ar
   116    65    64    1
   117    60    61    1
   118    64    61    1
   119    61    62    1
   120    62    63    2
