@<TRIPOS>MOLECULE
tmp/3kl3B01.pdb
 91 91 0 0 0
SMALL
GASTEIGER

@<TRIPOS>ATOM
      1  N        -81.6740   47.5350    9.8960 N.3    95  ARG95      -0.1245
      2  CA       -80.3400   46.9440    9.9090 C.3    95  ARG95       0.1563
      3  C        -79.9490   46.4440    8.5190 C.2    95  ARG95       0.2260
      4  O        -80.4140   45.4020    8.0850 O.2    95  ARG95      -0.2867
      5  CB       -80.2090   45.7980   10.9300 C.3    95  ARG95       0.0307
      6  CG       -78.7610   45.3770   11.1270 C.3    95  ARG95       0.0489
      7  CD       -78.5690   44.2070   12.0860 C.3    95  ARG95       0.2205
      8  NE       -77.1660   43.7610   12.0610 N.pl3  95  ARG95      -0.0865
      9  CZ       -76.6900   42.8320   11.2300 C.cat  95  ARG95       0.5346
     10  NH1      -77.4920   42.2090   10.3640 N.pl3  95  ARG95       0.1354
     11  NH2      -75.4180   42.5120   11.2740 N.pl3  95  ARG95       0.1354
     12  N        -82.8930   45.2920    6.5950 N.3    98  ASP98      -0.1239
     13  CA       -83.9690   44.5780    7.2950 C.3    98  ASP98       0.1674
     14  C        -84.5960   45.5590    8.2800 C.2    98  ASP98       0.2266
     15  O        -83.9980   45.8930    9.3020 O.2    98  ASP98      -0.2867
     16  CB       -83.4540   43.3440    8.0390 C.3    98  ASP98       0.1410
     17  CG       -84.5880   42.3780    8.4540 C.2    98  ASP98       0.3668
     18  OD1      -85.7310   42.8270    8.7730 O.co2  98  ASP98      -0.2456
     19  OD2      -84.3380   41.1490    8.4580 O.co2  98  ASP98      -0.2456
     20  N        -87.1360   45.0920   10.1490 N.3   100  SER100     -0.1202
     21  CA       -87.7760   44.4810   11.3100 C.3   100  SER100      0.2020
     22  C        -86.7580   44.0780   12.3870 C.2   100  SER100      0.2619
     23  O        -87.1140   43.4200   13.3560 O.2   100  SER100     -0.2717
     24  CB       -88.6500   43.2950   10.9050 C.3   100  SER100      0.2103
     25  OG       -87.8340   42.2210   10.4620 O.3   100  SER100     -0.2182
     26  N        -85.5010   44.4870   12.2120 N.am  101  ALA101     -0.1965
     27  CA       -84.4270   44.1190   13.1270 C.3   101  ALA101      0.1728
     28  C        -84.6470   44.7050   14.5300 C.2   101  ALA101      0.2616
     29  O        -85.0470   45.8650   14.6840 O.2   101  ALA101     -0.2715
     30  CB       -83.1130   44.5610   12.5810 C.3   101  ALA101      0.0334
     31  N        -84.3570   43.9190   15.5560 N.am  102  LYS102     -0.1977
     32  CA       -84.6290   44.3720   16.9210 C.3   102  LYS102      0.1596
     33  C        -83.3550   44.7590   17.6440 C.2   102  LYS102      0.2287
     34  O        -82.3000   44.1970   17.3860 O.2   102  LYS102     -0.2864
     35  CB       -85.4340   43.3180   17.6760 C.3   102  LYS102      0.0298
     36  CG       -86.8900   43.2280   17.1720 C.3   102  LYS102      0.0038
     37  CD       -87.5740   41.9300   17.5890 C.3   102  LYS102      0.0206
     38  CE       -88.7880   41.6330   16.6810 C.3   102  LYS102      0.1093
     39  NZ       -89.1640   40.1630   16.6570 N.3   102  LYS102     -0.1314
     40  N        -78.2480   37.9130   15.5600 N.3   142  ALA142     -0.1231
     41  CA       -79.5060   38.0780   16.2650 C.3   142  ALA142      0.1694
     42  C        -80.7030   38.1430   15.3340 C.2   142  ALA142      0.2592
     43  O        -81.6540   38.8760   15.5840 O.2   142  ALA142     -0.2718
     44  CB       -79.4400   39.3060   17.1520 C.3   142  ALA142      0.0304
     45  N        -80.6430   37.3520   14.2660 N.am  143  HIS143     -0.1962
     46  CA       -81.7410   37.1910   13.3180 C.3   143  HIS143      0.1787
     47  C        -83.0450   36.8280   14.0500 C.2   143  HIS143      0.2620
     48  O        -84.1160   37.3460   13.7190 O.2   143  HIS143     -0.2715
     49  CB       -81.3640   36.1160   12.2890 C.3   143  HIS143      0.0785
     50  CG       -82.3800   35.9080   11.2060 C.ar  143  HIS143      0.0821
     51  ND1      -82.8300   36.9300   10.3890 N.ar  143  HIS143     -0.2267
     52  CD2      -83.0070   34.7810   10.7780 C.ar  143  HIS143      0.1154
     53  CE1      -83.6990   36.4460    9.5190 C.ar  143  HIS143      0.1986
     54  NE2      -83.8230   35.1450    9.7330 N.ar  143  HIS143     -0.2212
     55  N        -82.9550   35.9750   15.0650 N.am  144  GLU144     -0.1963
     56  CA       -84.1620   35.5690   15.7870 C.3   144  GLU144      0.1733
     57  C        -84.2490   36.1780   17.1940 C.2   144  GLU144      0.2616
     58  O        -85.0330   35.7030   18.0230 O.2   144  GLU144     -0.2715
     59  CB       -84.2550   34.0450   15.8880 C.3   144  GLU144      0.0429
     60  CG       -84.1520   33.2800   14.5950 C.3   144  GLU144      0.1163
     61  CD       -83.5080   31.9170   14.8150 C.2   144  GLU144      0.3649
     62  OE1      -84.2490   30.9020   14.8270 O.co2 144  GLU144     -0.2457
     63  OE2      -82.2590   31.8630   15.0000 O.co2 144  GLU144     -0.2457
     64  N        -83.4510   37.2110   17.4640 N.am  145  TRP145     -0.1974
     65  CA       -83.4840   37.8960   18.7610 C.3   145  TRP145      0.1640
     66  C        -83.0080   39.3450   18.6810 C.2   145  TRP145      0.2290
     67  O        -83.3850   40.0500   17.7550 O.2   145  TRP145     -0.2864
     68  CB       -82.7600   37.1040   19.8750 C.3   145  TRP145      0.0576
     69  CG       -81.3670   36.5520   19.5810 C.ar  145  TRP145      0.0006
     70  CD1      -80.1620   37.2070   19.7140 C.ar  145  TRP145      0.0946
     71  CD2      -81.0500   35.2100   19.1800 C.ar  145  TRP145      0.0152
     72  NE1      -79.1140   36.3550   19.3770 N.ar  145  TRP145     -0.2442
     73  CE2      -79.6370   35.1270   19.0490 C.ar  145  TRP145      0.0810
     74  CE3      -81.8270   34.0740   18.8870 C.ar  145  TRP145      0.0012
     75  CZ2      -78.9930   33.9530   18.6710 C.ar  145  TRP145      0.0191
     76  CZ3      -81.1840   32.9090   18.5080 C.ar  145  TRP145      0.0001
     77  CH2      -79.7700   32.8580   18.4030 C.ar  145  TRP145      0.0015
     78  N        -80.2260   42.4060   18.4050 N.3   147  TRP147     -0.1241
     79  CA       -78.9160   42.8150   17.8700 C.3   147  TRP147      0.1605
     80  C        -78.2680   43.8730   18.7480 C.2   147  TRP147      0.2264
     81  O        -78.9470   44.7850   19.2210 O.2   147  TRP147     -0.2867
     82  CB       -79.0500   43.4350   16.4530 C.3   147  TRP147      0.0550
     83  CG       -79.4760   42.4980   15.3550 C.ar  147  TRP147      0.0003
     84  CD1      -80.7420   42.2950   14.9250 C.ar  147  TRP147      0.0946
     85  CD2      -78.6340   41.6210   14.5590 C.ar  147  TRP147      0.0152
     86  NE1      -80.7620   41.3500   13.9240 N.ar  147  TRP147     -0.2442
     87  CE2      -79.4860   40.9220   13.6730 C.ar  147  TRP147      0.0810
     88  CE3      -77.2560   41.3670   14.5100 C.ar  147  TRP147      0.0012
     89  CZ2      -79.0070   39.9770   12.7370 C.ar  147  TRP147      0.0191
     90  CZ3      -76.7700   40.4260   13.5730 C.ar  147  TRP147      0.0001
     91  CH2      -77.6550   39.7270   12.7150 C.ar  147  TRP147      0.0015
@<TRIPOS>BOND
     1    12    13    1
     2    13    16    1
     3    13    14    1
     4    16    17    1
     5     4     3    2
     6    14    15    2
     7    17    19   ar
     8    17    18   ar
     9     3     2    1
    10    53    54   ar
    11    53    51   ar
    12    54    52   ar
    13     1     2    1
    14     2     5    1
    15    20    21    1
    16    10     9    1
    17    51    50   ar
    18    25    24    1
    19    52    50   ar
    20    24    21    1
    21     5     6    1
    22     6     7    1
    23    50    49    1
    24     9    11    1
    25     9     8    2
    26    21    22    1
    27     8     7    1
    28    26    22   am
    29    26    27    1
    30    49    46    1
    31    22    23    2
    32    30    27    1
    33    91    89   ar
    34    91    90   ar
    35    89    87   ar
    36    27    28    1
    37    46    47    1
    38    46    45    1
    39    90    88   ar
    40    87    86   ar
    41    87    85   ar
    42    48    47    2
    43    86    84   ar
    44    47    55   am
    45    45    42   am
    46    88    85   ar
    47    28    29    2
    48    28    31   am
    49    85    83   ar
    50    60    61    1
    51    60    59    1
    52    61    62   ar
    53    61    63   ar
    54    84    83   ar
    55    55    56    1
    56    42    43    2
    57    42    41    1
    58    83    82    1
    59    31    32    1
    60    40    41    1
    61    56    59    1
    62    56    57    1
    63    41    44    1
    64    82    79    1
    65    39    38    1
    66    38    37    1
    67    32    33    1
    68    32    35    1
    69    36    37    1
    70    36    35    1
    71    57    64   am
    72    57    58    2
    73    34    33    2
    74    64    65    1
    75    67    66    2
    76    79    78    1
    77    79    80    1
    78    77    76   ar
    79    77    75   ar
    80    76    74   ar
    81    75    73   ar
    82    66    65    1
    83    80    81    2
    84    65    68    1
    85    74    71   ar
    86    73    71   ar
    87    73    72   ar
    88    71    69   ar
    89    72    70   ar
    90    69    70   ar
    91    69    68    1
