@<TRIPOS>MOLECULE
tmp/3kl5A00.pdb
 186 186 0 0 0
SMALL
GASTEIGER

@<TRIPOS>ATOM
      1  N         54.5360   68.0500   -1.6080 N.3    25  TRP25      -0.1241
      2  CA        55.0570   68.6160   -0.3550 C.3    25  TRP25       0.1605
      3  C         56.5190   69.0480   -0.3980 C.2    25  TRP25       0.2264
      4  O         56.9300   69.9190    0.3800 O.2    25  TRP25      -0.2867
      5  CB        54.8910   67.6260    0.7990 C.3    25  TRP25       0.0550
      6  CG        53.4800   67.2790    1.1330 C.ar   25  TRP25       0.0003
      7  CD1       52.3410   67.8370    0.6100 C.ar   25  TRP25       0.0946
      8  CD2       53.0480   66.3160    2.0940 C.ar   25  TRP25       0.0152
      9  NE1       51.2290   67.2640    1.1780 N.ar   25  TRP25      -0.2442
     10  CE2       51.6330   66.3290    2.0950 C.ar   25  TRP25       0.0810
     11  CE3       53.7190   65.4260    2.9450 C.ar   25  TRP25       0.0012
     12  CZ2       50.8730   65.4870    2.9190 C.ar   25  TRP25       0.0191
     13  CZ3       52.9650   64.5950    3.7760 C.ar   25  TRP25       0.0001
     14  CH2       51.5560   64.6310    3.7540 C.ar   25  TRP25       0.0015
     15  N         48.0020   58.6160    2.7640 N.3    83  TRP83      -0.1241
     16  CA        47.7980   59.3830    3.9960 C.3    83  TRP83       0.1605
     17  C         46.3000   59.5000    4.3080 C.2    83  TRP83       0.2264
     18  O         45.8580   59.1370    5.4130 O.2    83  TRP83      -0.2867
     19  CB        48.4720   60.7520    3.9030 C.3    83  TRP83       0.0550
     20  CG        49.8910   60.7780    4.4380 C.ar   83  TRP83       0.0003
     21  CD1       50.3220   61.4190    5.5720 C.ar   83  TRP83       0.0946
     22  CD2       51.0520   60.1280    3.8860 C.ar   83  TRP83       0.0152
     23  NE1       51.6780   61.2200    5.7500 N.ar   83  TRP83      -0.2442
     24  CE2       52.1490   60.4350    4.7320 C.ar   83  TRP83       0.0810
     25  CE3       51.2740   59.3280    2.7580 C.ar   83  TRP83       0.0012
     26  CZ2       53.4540   59.9620    4.4880 C.ar   83  TRP83       0.0191
     27  CZ3       52.5850   58.8680    2.5020 C.ar   83  TRP83       0.0001
     28  CH2       53.6510   59.1840    3.3730 C.ar   83  TRP83       0.0015
     29  N         49.3670   55.2960    6.0510 N.3   137  ASN137     -0.1225
     30  CA        50.5320   55.8270    6.7470 C.3   137  ASN137      0.1785
     31  C         50.2030   56.2710    8.1610 C.2   137  ASN137      0.2597
     32  O         49.3240   57.1290    8.3690 O.2   137  ASN137     -0.2718
     33  CB        51.1030   57.0240    6.0250 C.3   137  ASN137      0.1169
     34  CG        52.2570   57.6350    6.7840 C.2   137  ASN137      0.2627
     35  OD1       53.3800   57.1220    6.7320 O.2   137  ASN137     -0.2716
     36  ND2       51.9880   58.7190    7.5200 N.am  137  ASN137     -0.0877
     37  N         50.9220   55.6910    9.1250 N.am  138  GLU138     -0.1979
     38  CA        50.8610   56.0830   10.5420 C.3   138  GLU138      0.1602
     39  C         49.4380   56.2880   11.0750 C.2   138  GLU138      0.2287
     40  O         49.1030   57.3930   11.5450 O.2   138  GLU138     -0.2864
     41  CB        51.6920   57.3470   10.7840 C.3   138  GLU138      0.0415
     42  CG        53.1350   57.2170   10.3290 C.3   138  GLU138      0.1163
     43  CD        54.0710   58.2580   10.9470 C.2   138  GLU138      0.3649
     44  OE1       53.5720   59.2720   11.4980 O.co2 138  GLU138     -0.2457
     45  OE2       55.3150   58.0460   10.8850 O.co2 138  GLU138     -0.2457
     46  N         48.9690   57.7070   14.6740 N.3   141  TYR141     -0.1241
     47  CA        49.5370   59.0330   14.9080 C.3   141  TYR141      0.1605
     48  C         49.0330   59.9490   13.8120 C.2   141  TYR141      0.2264
     49  O         49.8100   60.5990   13.1060 O.2   141  TYR141     -0.2867
     50  CB        51.0670   58.9710   14.8720 C.3   141  TYR141      0.0534
     51  CG        51.7590   60.1890   15.4500 C.ar  141  TYR141     -0.0201
     52  CD1       51.8520   60.3690   16.8410 C.ar  141  TYR141     -0.0009
     53  CD2       52.3290   61.1590   14.6130 C.ar  141  TYR141     -0.0009
     54  CE1       52.4950   61.4960   17.3880 C.ar  141  TYR141      0.0417
     55  CE2       52.9700   62.2910   15.1420 C.ar  141  TYR141      0.0417
     56  CZ        53.0510   62.4530   16.5340 C.ar  141  TYR141      0.1957
     57  OH        53.6930   63.5720   17.0440 O.3   141  TYR141     -0.2866
     58  N         46.9820   64.7850   11.8490 N.3   144  GLU144     -0.1231
     59  CA        46.8510   65.6040   10.6530 C.3   144  GLU144      0.1699
     60  C         46.4000   64.7740    9.4560 C.2   144  GLU144      0.2592
     61  O         46.4840   65.2450    8.3190 O.2   144  GLU144     -0.2718
     62  CB        48.1860   66.3090   10.3380 C.3   144  GLU144      0.0402
     63  CG        48.5540   67.4410   11.3060 C.3   144  GLU144      0.1161
     64  CD        49.7860   68.2580   10.8500 C.2   144  GLU144      0.3649
     65  OE1       50.8840   67.6620   10.6680 O.co2 144  GLU144     -0.2457
     66  OE2       49.6580   69.5050   10.6900 O.co2 144  GLU144     -0.2457
     67  N         45.9420   63.5430    9.6980 N.am  145  TRP145     -0.1976
     68  CA        45.3700   62.7110    8.6130 C.3   145  TRP145      0.1640
     69  C         44.2760   61.7620    9.1200 C.2   145  TRP145      0.2290
     70  O         43.4060   62.2000    9.8780 O.2   145  TRP145     -0.2864
     71  CB        46.4540   61.9840    7.7820 C.3   145  TRP145      0.0576
     72  CG        47.5170   61.2470    8.5680 C.ar  145  TRP145      0.0006
     73  CD1       47.4540   59.9670    9.0420 C.ar  145  TRP145      0.0946
     74  CD2       48.8230   61.7380    8.9140 C.ar  145  TRP145      0.0152
     75  NE1       48.6320   59.6370    9.6820 N.ar  145  TRP145     -0.2442
     76  CE2       49.4850   60.7090    9.6180 C.ar  145  TRP145      0.0810
     77  CE3       49.4900   62.9560    8.7060 C.ar  145  TRP145      0.0012
     78  CZ2       50.7760   60.8600   10.1200 C.ar  145  TRP145      0.0191
     79  CZ3       50.7780   63.1080    9.2130 C.ar  145  TRP145      0.0001
     80  CH2       51.4070   62.0640    9.9090 C.ar  145  TRP145      0.0015
     81  N         53.8060   54.6050   13.6640 N.3   174  PHE174     -0.1241
     82  CA        54.8710   55.6180   13.6430 C.3   174  PHE174      0.1605
     83  C         56.0830   55.1560   14.4670 C.2   174  PHE174      0.2264
     84  O         57.2250   55.6050   14.2330 O.2   174  PHE174     -0.2867
     85  CB        54.3520   56.9870   14.1260 C.3   174  PHE174      0.0534
     86  CG        54.1830   57.0950   15.6380 C.ar  174  PHE174     -0.0203
     87  CD1       55.0780   57.8460   16.3920 C.ar  174  PHE174     -0.0042
     88  CD2       53.1100   56.4620   16.2910 C.ar  174  PHE174     -0.0042
     89  CE1       54.9410   57.9450   17.7910 C.ar  174  PHE174     -0.0003
     90  CE2       52.9470   56.5490   17.6860 C.ar  174  PHE174     -0.0003
     91  CZ        53.8720   57.2940   18.4450 C.ar  174  PHE174     -0.0000
     92  N         60.0650   56.1950   14.6220 N.3   202  TYR202     -0.1241
     93  CA        60.2260   57.4940   15.3140 C.3   202  TYR202      0.1605
     94  C         60.1580   57.3570   16.8460 C.2   202  TYR202      0.2264
     95  O         59.0820   57.1250   17.4200 O.2   202  TYR202     -0.2867
     96  CB        59.1990   58.5130   14.8300 C.3   202  TYR202      0.0534
     97  CG        59.3880   58.9240   13.3930 C.ar  202  TYR202     -0.0201
     98  CD1       60.4550   59.7100   13.0130 C.ar  202  TYR202     -0.0009
     99  CD2       58.4930   58.5160   12.4100 C.ar  202  TYR202     -0.0009
    100  CE1       60.6280   60.0800   11.6760 C.ar  202  TYR202      0.0417
    101  CE2       58.6440   58.8940   11.0830 C.ar  202  TYR202      0.0417
    102  CZ        59.7180   59.6700   10.7270 C.ar  202  TYR202      0.1957
    103  OH        59.8710   60.0490    9.4190 O.3   202  TYR202     -0.2866
    104  N         59.6530   54.2560    6.7370 N.3   227  GLU227     -0.1245
    105  CA        59.9550   55.6870    6.8430 C.3   227  GLU227      0.1567
    106  C         60.7340   56.0440    8.1110 C.2   227  GLU227      0.2260
    107  O         60.3850   55.5900    9.2280 O.2   227  GLU227     -0.2867
    108  CB        58.6810   56.5110    6.8190 C.3   227  GLU227      0.0388
    109  CG        58.9150   57.9860    6.6350 C.3   227  GLU227      0.1160
    110  CD        57.6890   58.7980    6.9920 C.2   227  GLU227      0.3649
    111  OE1       56.5790   58.4500    6.5020 O.co2 227  GLU227     -0.2457
    112  OE2       57.8350   59.7770    7.7770 O.co2 227  GLU227     -0.2457
    113  N         63.6150   59.5640    9.5890 N.3   229  TYR229     -0.1241
    114  CA        64.8170   60.3970    9.5490 C.3   229  TYR229      0.1605
    115  C         65.4520   60.3220   10.9190 C.2   229  TYR229      0.2264
    116  O         64.7550   60.1790   11.9340 O.2   229  TYR229     -0.2867
    117  CB        64.5250   61.8330    9.1470 C.3   229  TYR229      0.0534
    118  CG        63.4510   62.5140    9.9520 C.ar  229  TYR229     -0.0201
    119  CD1       63.7460   63.1500   11.1670 C.ar  229  TYR229     -0.0009
    120  CD2       62.1400   62.5540    9.4920 C.ar  229  TYR229     -0.0009
    121  CE1       62.7490   63.8040   11.9060 C.ar  229  TYR229      0.0417
    122  CE2       61.1380   63.2040   10.2190 C.ar  229  TYR229      0.0417
    123  CZ        61.4500   63.8300   11.4180 C.ar  229  TYR229      0.1957
    124  OH        60.4610   64.4680   12.1370 O.3   229  TYR229     -0.2866
    125  N         65.5610   66.2260   12.3230 N.3   233  SER233     -0.1217
    126  CA        65.3210   67.0010   11.1050 C.3   233  SER233      0.1889
    127  C         65.7830   68.4520   11.2630 C.2   233  SER233      0.2288
    128  O         65.1700   69.3690   10.7090 O.2   233  SER233     -0.2866
    129  CB        63.8430   66.9580   10.7140 C.3   233  SER233      0.2089
    130  OG        63.0210   67.2600   11.8260 O.3   233  SER233     -0.2183
    131  N         67.4070   71.8280   10.5440 N.3   235  THR235     -0.1218
    132  CA        67.7180   72.5260    9.2960 C.3   235  THR235      0.1862
    133  C         69.2250   72.5210    9.0440 C.2   235  THR235      0.2287
    134  O         70.0140   72.8370    9.9370 O.2   235  THR235     -0.2866
    135  CB        67.1670   73.9530    9.3440 C.3   235  THR235      0.1770
    136  OG1       65.7740   73.8810    9.6590 O.3   235  THR235     -0.2211
    137  CG2       67.3480   74.6760    8.0030 C.3   235  THR235      0.0375
    138  N         62.8280   59.3300    4.6920 N.3   266  TRP266     -0.1227
    139  CA        61.8110   60.2880    4.3190 C.3   266  TRP266      0.1737
    140  C         62.3660   60.9930    3.0850 C.2   266  TRP266      0.2595
    141  O         63.2120   60.4300    2.3910 O.2   266  TRP266     -0.2718
    142  CB        61.6100   61.2410    5.4980 C.3   266  TRP266      0.0564
    143  CG        60.4570   62.2340    5.4030 C.ar  266  TRP266      0.0003
    144  CD1       60.5000   63.5540    5.7500 C.ar  266  TRP266      0.0946
    145  CD2       59.1040   61.9790    4.9620 C.ar  266  TRP266      0.0152
    146  NE1       59.2670   64.1370    5.5580 N.ar  266  TRP266     -0.2442
    147  CE2       58.3950   63.2000    5.0720 C.ar  266  TRP266      0.0810
    148  CE3       58.4290   60.8410    4.4740 C.ar  266  TRP266      0.0012
    149  CZ2       57.0420   63.3260    4.7120 C.ar  266  TRP266      0.0191
    150  CZ3       57.0740   60.9620    4.1090 C.ar  266  TRP266      0.0001
    151  CH2       56.3970   62.2050    4.2340 C.ar  266  TRP266      0.0015
    152  N         61.9200   62.2220    2.8230 N.am  267  TYR267     -0.1976
    153  CA        62.3570   62.9870    1.6640 C.3   267  TYR267      0.1639
    154  C         63.7930   62.6810    1.2900 C.2   267  TYR267      0.2290
    155  O         64.7070   62.8400    2.1170 O.2   267  TYR267     -0.2864
    156  CB        62.2320   64.4910    1.9200 C.3   267  TYR267      0.0560
    157  CG        60.8420   64.9920    2.2450 C.ar  267  TYR267     -0.0198
    158  CD1       59.7130   64.4610    1.6180 C.ar  267  TYR267     -0.0009
    159  CD2       60.6650   66.0320    3.1610 C.ar  267  TYR267     -0.0009
    160  CE1       58.4240   64.9260    1.9180 C.ar  267  TYR267      0.0417
    161  CE2       59.3880   66.5170    3.4720 C.ar  267  TYR267      0.0417
    162  CZ        58.2680   65.9560    2.8450 C.ar  267  TYR267      0.1957
    163  OH        57.0060   66.4350    3.1420 O.3   267  TYR267     -0.2866
    164  N         66.6330   67.0300    0.9020 N.3   270  ARG270     -0.1245
    165  CA        66.3000   67.9250    2.0190 C.3   270  ARG270      0.1563
    166  C         67.5640   68.3170    2.7860 C.2   270  ARG270      0.2260
    167  O         68.5740   67.5980    2.7530 O.2   270  ARG270     -0.2867
    168  CB        65.2850   67.2740    2.9670 C.3   270  ARG270      0.0307
    169  CG        64.2280   68.2140    3.5060 C.3   270  ARG270      0.0489
    170  CD        63.2950   68.7140    2.4080 C.3   270  ARG270      0.2205
    171  NE        62.0640   69.2980    2.9510 N.pl3 270  ARG270     -0.0865
    172  CZ        61.2130   70.0570    2.2510 C.cat 270  ARG270      0.5346
    173  NH1       60.1130   70.5430    2.8300 N.pl3 270  ARG270      0.1354
    174  NH2       61.4510   70.3410    0.9680 N.pl3 270  ARG270      0.1354
    175  N         68.2720   68.0970    5.6440 N.3   272  TYR272     -0.1241
    176  CA        68.6380   67.0400    6.5950 C.3   272  TYR272      0.1605
    177  C         68.5780   65.6280    5.9780 C.2   272  TYR272      0.2264
    178  O         68.6220   64.6160    6.6890 O.2   272  TYR272     -0.2867
    179  CB        67.7490   67.1300    7.8330 C.3   272  TYR272      0.0534
    180  CG        66.2850   66.9560    7.5420 C.ar  272  TYR272     -0.0201
    181  CD1       65.6630   65.7190    7.7060 C.ar  272  TYR272     -0.0009
    182  CD2       65.5140   68.0260    7.1060 C.ar  272  TYR272     -0.0009
    183  CE1       64.3050   65.5590    7.4340 C.ar  272  TYR272      0.0417
    184  CE2       64.1600   67.8780    6.8370 C.ar  272  TYR272      0.0417
    185  CZ        63.5680   66.6490    7.0010 C.ar  272  TYR272      0.1957
    186  OH        62.2200   66.5210    6.7320 O.3   272  TYR272     -0.2866
@<TRIPOS>BOND
     1     1     2    1
     2     3     2    1
     3     3     4    2
     4     2     5    1
     5     7     6   ar
     6     7     9   ar
     7     5     6    1
     8   164   165    1
     9   174   172    1
    10     6     8   ar
    11     9    10   ar
    12   154   153    1
    13   154   155    2
    14   158   160   ar
    15   158   157   ar
    16   153   156    1
    17   153   152    1
    18   160   162   ar
    19   156   157    1
    20   165   166    1
    21   165   168    1
    22     8    10   ar
    23     8    11   ar
    24    10    12   ar
    25   157   159   ar
    26   172   173    1
    27   172   171    2
    28   141   140    2
    29   170   171    1
    30   170   169    1
    31    27    25   ar
    32    27    28   ar
    33   167   166    2
    34    25    22   ar
    35    15    16    1
    36   152   140   am
    37   162   163    1
    38   162   161   ar
    39    12    14   ar
    40    11    13   ar
    41   168   169    1
    42   140   139    1
    43   159   161   ar
    44    28    26   ar
    45    14    13   ar
    46    22    20   ar
    47    22    24   ar
    48    19    16    1
    49    19    20    1
    50    16    17    1
    51   150   151   ar
    52   150   148   ar
    53   151   149   ar
    54    17    18    2
    55   139   138    1
    56   139   142    1
    57    20    21   ar
    58   148   145   ar
    59    26    24   ar
    60   149   147   ar
    61    24    23   ar
    62   145   147   ar
    63   145   143   ar
    64   147   146   ar
    65   143   142    1
    66   143   144   ar
    67   146   144   ar
    68    21    23   ar
    69   175   176    1
    70   177   176    1
    71   177   178    2
    72    33    30    1
    73    33    34    1
    74    29    30    1
    75   111   110   ar
    76   176   179    1
    77   109   108    1
    78   109   110    1
    79   186   185    1
    80    35    34    2
    81   104   105    1
    82    30    31    1
    83    34    36   am
    84   108   105    1
    85   184   185   ar
    86   184   182   ar
    87   105   106    1
    88   110   112   ar
    89   185   183   ar
    90   182   180   ar
    91   183   181   ar
    92   180   181   ar
    93   180   179    1
    94    71    72    1
    95    71    68    1
    96   137   135    1
    97   106   107    2
    98    31    32    2
    99    31    37   am
   100    61    60    2
   101    72    74   ar
   102    72    73   ar
   103    68    69    1
   104    68    67    1
   105    77    74   ar
   106    77    79   ar
   107    74    76   ar
   108    73    75   ar
   109   133   132    1
   110   133   134    2
   111    69    70    2
   112    37    38    1
   113   117   114    1
   114   117   118    1
   115    79    80   ar
   116   132   135    1
   117   132   131    1
   118   135   136    1
   119   103   102    1
   120    60    67   am
   121    60    59    1
   122   120   118   ar
   123   120   122   ar
   124   114   113    1
   125   114   115    1
   126    76    75   ar
   127    76    78   ar
   128    80    78   ar
   129   118   119   ar
   130   122   123   ar
   131    42    41    1
   132    42    43    1
   133    62    59    1
   134    62    63    1
   135    38    41    1
   136    38    39    1
   137    59    58    1
   138    65    64   ar
   139    66    64   ar
   140   128   127    2
   141   129   126    1
   142   129   130    1
   143   102   101   ar
   144   102   100   ar
   145    64    63    1
   146    45    43   ar
   147   115   116    2
   148    43    44   ar
   149    39    40    2
   150   101    99   ar
   151   126   127    1
   152   126   125    1
   153   119   121   ar
   154   123   121   ar
   155   123   124    1
   156   100    98   ar
   157    99    97   ar
   158    98    97   ar
   159    49    48    2
   160    97    96    1
   161    82    81    1
   162    82    85    1
   163    82    83    1
   164    48    47    1
   165    85    86    1
   166    84    83    2
   167    53    55   ar
   168    53    51   ar
   169    92    93    1
   170    46    47    1
   171    96    93    1
   172    50    47    1
   173    50    51    1
   174    55    56   ar
   175    93    94    1
   176    51    52   ar
   177    86    88   ar
   178    86    87   ar
   179    88    90   ar
   180    87    89   ar
   181    56    57    1
   182    56    54   ar
   183    52    54   ar
   184    94    95    2
   185    90    91   ar
   186    89    91   ar
