@<TRIPOS>MOLECULE
tmp/3kl6A00.pdb
 194 192 0 0 0
SMALL
GASTEIGER

@<TRIPOS>ATOM
      1  N          9.6200  -13.9680   -7.5930 N.3    42  HIS42      -0.1241
      2  CA         8.7180  -14.6640   -8.5160 C.3    42  HIS42       0.1621
      3  C          9.4470  -15.2760   -9.7110 C.2    42  HIS42       0.2264
      4  O          8.9650  -16.2380  -10.3210 O.2    42  HIS42      -0.2867
      5  CB         7.5230  -13.7830   -8.9310 C.3    42  HIS42       0.0745
      6  CG         7.7880  -12.8580  -10.0830 C.ar   42  HIS42       0.0817
      7  ND1        8.1270  -11.5320   -9.9130 N.ar   42  HIS42      -0.2268
      8  CD2        7.7210  -13.0620  -11.4230 C.ar   42  HIS42       0.1154
      9  CE1        8.2790  -10.9650  -11.0980 C.ar   42  HIS42       0.1986
     10  NE2        8.0350  -11.8710  -12.0300 N.ar   42  HIS42      -0.2212
     11  N          2.8000  -16.0110   -3.9790 N.3    82  LYS82      -0.1231
     12  CA         2.2140  -15.7600   -5.3010 C.3    82  LYS82       0.1693
     13  C          0.8700  -15.0340   -5.2060 C.2    82  LYS82       0.2592
     14  O          0.4380  -14.3670   -6.1520 O.2    82  LYS82      -0.2718
     15  CB         2.0340  -17.0710   -6.0810 C.3    82  LYS82       0.0285
     16  CG         0.9500  -17.9890   -5.5260 C.3    82  LYS82       0.0035
     17  CD         0.5680  -19.0880   -6.5140 C.3    82  LYS82       0.0206
     18  CE        -0.5770  -19.9630   -5.9970 C.3    82  LYS82       0.1093
     19  NZ        -0.2780  -20.6510   -4.6980 N.3    82  LYS82      -0.1314
     20  N          0.2040  -15.1700   -4.0630 N.am   83  GLU83      -0.1966
     21  CA        -1.1000  -14.5530   -3.8540 C.3    83  GLU83       0.1733
     22  C         -1.0150  -13.0280   -3.7580 C.2    83  GLU83       0.2617
     23  O         -1.9180  -12.3240   -4.2130 O.2    83  GLU83      -0.2715
     24  CB        -1.7740  -15.1290   -2.6000 C.3    83  GLU83       0.0429
     25  CG        -2.2920  -16.5540   -2.7550 C.3    83  GLU83       0.1163
     26  CD        -1.2050  -17.6150   -2.6680 C.2    83  GLU83       0.3649
     27  OE1       -1.4410  -18.7320   -3.1820 O.co2  83  GLU83      -0.2457
     28  OE2       -0.1250  -17.3560   -2.0850 O.co2  83  GLU83      -0.2457
     29  N          0.0800  -12.5240   -3.1890 N.am   84  THR84      -0.1937
     30  CA         0.2040  -11.0990   -2.8900 C.3    84  THR84       0.2028
     31  C          1.2760  -10.4080   -3.7350 C.2    84  THR84       0.2642
     32  O          1.1990   -9.2000   -3.9890 O.2    84  THR84      -0.2714
     33  CB         0.5930  -10.8770   -1.4070 C.3    84  THR84       0.1808
     34  OG1        1.8830  -11.4490   -1.1770 O.3    84  THR84      -0.2208
     35  CG2       -0.4300  -11.5060   -0.4550 C.3    84  THR84       0.0379
     36  N          2.2780  -11.1780   -4.1590 N.am   85  TYR85      -0.1973
     37  CA         3.5220  -10.6380   -4.7530 C.3    85  TYR85       0.1639
     38  C          4.2680   -9.6720   -3.8160 C.2    85  TYR85       0.2290
     39  O          5.1690   -8.9560   -4.2390 O.2    85  TYR85      -0.2864
     40  CB         3.2870  -10.0170   -6.1470 C.3    85  TYR85       0.0560
     41  CG         3.3890  -11.0150   -7.2850 C.ar   85  TYR85      -0.0198
     42  CD1        2.5230  -12.1020   -7.3550 C.ar   85  TYR85      -0.0009
     43  CD2        4.3410  -10.8570   -8.2990 C.ar   85  TYR85      -0.0009
     44  CE1        2.6050  -13.0220   -8.3880 C.ar   85  TYR85       0.0417
     45  CE2        4.4300  -11.7710   -9.3430 C.ar   85  TYR85       0.0417
     46  CZ         3.5520  -12.8490   -9.3760 C.ar   85  TYR85       0.1957
     47  OH         3.5940  -13.7830  -10.3870 O.3    85  TYR85      -0.2866
     48  N          9.3450   -8.2430  -23.1950 N.3   132  ARG132     -0.1245
     49  CA         8.4170   -7.9680  -24.2840 C.3   132  ARG132      0.1563
     50  C          8.3590   -6.4830  -24.6250 C.2   132  ARG132      0.2260
     51  O          8.4340   -5.6300  -23.7390 O.2   132  ARG132     -0.2867
     52  CB         7.0140   -8.4640  -23.9280 C.3   132  ARG132      0.0307
     53  CG         6.8760   -9.9690  -23.7430 C.3   132  ARG132      0.0489
     54  CD         5.4020  -10.2710  -23.5480 C.3   132  ARG132      0.2205
     55  NE         5.0590  -11.6750  -23.3000 N.pl3 132  ARG132     -0.0865
     56  CZ         4.4910  -12.4880  -24.1880 C.cat 132  ARG132      0.5346
     57  NH1        4.2420  -12.0750  -25.4240 N.pl3 132  ARG132      0.1354
     58  NH2        4.1850  -13.7370  -23.8450 N.pl3 132  ARG132      0.1354
     59  N          2.4890   -5.4720  -24.7550 N.3   135  GLU135     -0.1245
     60  CA         1.7000   -6.5820  -24.2270 C.3   135  GLU135      0.1567
     61  C          1.3890   -7.5520  -25.3660 C.2   135  GLU135      0.2260
     62  O          0.8710   -7.1410  -26.3980 O.2   135  GLU135     -0.2867
     63  CB         0.4100   -6.0820  -23.5730 C.3   135  GLU135      0.0388
     64  CG        -0.2550   -7.1260  -22.6740 C.3   135  GLU135      0.1160
     65  CD        -1.5450   -6.6390  -22.0370 C.2   135  GLU135      0.3649
     66  OE1       -1.5900   -5.4870  -21.5500 O.co2 135  GLU135     -0.2457
     67  OE2       -2.5210   -7.4180  -22.0270 O.co2 135  GLU135     -0.2457
     68  N         -5.8270   -5.1630   -6.7610 N.3   162  PHE162     -0.1227
     69  CA        -4.7950   -5.8420   -5.9750 C.3   162  PHE162      0.1736
     70  C         -4.2260   -4.8810   -4.9370 C.2   162  PHE162      0.2595
     71  O         -4.1960   -3.6640   -5.1520 O.2   162  PHE162     -0.2718
     72  CB        -3.6590   -6.3640   -6.8650 C.3   162  PHE162      0.0547
     73  CG        -4.0790   -7.4570   -7.8080 C.ar  162  PHE162     -0.0202
     74  CD1       -4.3430   -8.7410   -7.3330 C.ar  162  PHE162     -0.0042
     75  CD2       -4.2080   -7.2080   -9.1710 C.ar  162  PHE162     -0.0042
     76  CE1       -4.7390   -9.7600   -8.2040 C.ar  162  PHE162     -0.0003
     77  CE2       -4.6100   -8.2180  -10.0510 C.ar  162  PHE162     -0.0003
     78  CZ        -4.8730   -9.4990   -9.5640 C.ar  162  PHE162     -0.0000
     79  N         -3.7820   -5.4280   -3.8120 N.am  163  ILE163     -0.1980
     80  CA        -3.2050   -4.6100   -2.7570 C.3   163  ILE163      0.1595
     81  C         -1.7650   -4.2540   -3.1080 C.2   163  ILE163      0.2287
     82  O         -0.9150   -5.1280   -3.2780 O.2   163  ILE163     -0.2864
     83  CB        -3.2640   -5.3020   -1.3750 C.3   163  ILE163      0.0276
     84  CG1       -4.7180   -5.6180   -0.9940 C.3   163  ILE163      0.0022
     85  CG2       -2.6040   -4.4170   -0.3190 C.3   163  ILE163      0.0022
     86  CD1       -4.8820   -6.3780    0.3170 C.3   163  ILE163      0.0001
     87  N          6.3240    1.3130  -20.6380 N.3   179  ASP179     -0.1225
     88  CA         6.3000    0.5370  -19.3890 C.3   179  ASP179      0.1805
     89  C          7.3520   -0.5610  -19.4820 C.2   179  ASP179      0.2598
     90  O          7.9280   -0.7980  -20.5460 O.2   179  ASP179     -0.2718
     91  CB         4.9080   -0.1130  -19.2360 C.3   179  ASP179      0.1424
     92  CG         4.5930   -0.6150  -17.8210 C.2   179  ASP179      0.3668
     93  OD1        5.3720   -0.3890  -16.8580 O.co2 179  ASP179     -0.2456
     94  OD2        3.5120   -1.2460  -17.6890 O.co2 179  ASP179     -0.2456
     95  N          7.5950   -1.2330  -18.3650 N.am  180  ALA180     -0.1966
     96  CA         8.2390   -2.5310  -18.4070 C.3   180  ALA180      0.1728
     97  C          7.1990   -3.5880  -18.8140 C.2   180  ALA180      0.2616
     98  O          6.0010   -3.3010  -18.9110 O.2   180  ALA180     -0.2715
     99  CB         8.8680   -2.8610  -17.0570 C.3   180  ALA180      0.0334
    100  N          7.6500   -4.8120  -19.0720 N.am  181  CYS181     -0.1954
    101  CA         6.7290   -5.8790  -19.4610 C.3   181  CYS181      0.1843
    102  C          7.2950   -7.2460  -19.1000 C.2   181  CYS181      0.2625
    103  O          8.3930   -7.3390  -18.5410 O.2   181  CYS181     -0.2714
    104  CB         6.4050   -5.7740  -20.9560 C.3   181  CYS181      0.0997
    105  SG         4.8820   -6.6040  -21.5390 S.3   181  CYS181     -0.0797
    106  N          6.5430   -8.2990  -19.4060 N.am  182  GLN182     -0.1977
    107  CA         6.9920   -9.6540  -19.0980 C.3   182  GLN182      0.1601
    108  C          8.4110   -9.9050  -19.6130 C.2   182  GLN182      0.2287
    109  O          8.7410   -9.5620  -20.7500 O.2   182  GLN182     -0.2864
    110  CB         6.0210  -10.6740  -19.6810 C.3   182  GLN182      0.0394
    111  CG         6.2890  -12.0960  -19.1920 C.3   182  GLN182      0.0908
    112  CD         5.3100  -13.0960  -19.7520 C.2   182  GLN182      0.2608
    113  OE1        5.0510  -13.1340  -20.9560 O.2   182  GLN182     -0.2717
    114  NE2        4.7580  -13.9270  -18.8760 N.am  182  GLN182     -0.0878
    115  N         10.8880   -8.5460  -15.6670 N.3   185  SER185     -0.1217
    116  CA        10.7450   -9.0150  -14.2820 C.3   185  SER185      0.1889
    117  C         12.0840   -9.3610  -13.6540 C.2   185  SER185      0.2288
    118  O         12.8750  -10.0810  -14.2560 O.2   185  SER185     -0.2866
    119  CB         9.8730  -10.2750  -14.2270 C.3   185  SER185      0.2089
    120  OG         8.5220  -10.0060  -14.5450 O.3   185  SER185     -0.2183
    121  N         11.9190   -4.8770  -10.8550 N.3   203  VAL203     -0.1231
    122  CA        10.7390   -5.0150  -11.7120 C.3   203  VAL203      0.1692
    123  C          9.9010   -6.1920  -11.2010 C.2   203  VAL203      0.2593
    124  O         10.3950   -7.3190  -11.1390 O.2   203  VAL203     -0.2718
    125  CB        11.1610   -5.2560  -13.1840 C.3   203  VAL203      0.0266
    126  CG1        9.9450   -5.4180  -14.0980 C.3   203  VAL203      0.0020
    127  CG2       12.0530   -4.1300  -13.6740 C.3   203  VAL203      0.0020
    128  N          8.6420   -5.9360  -10.8300 N.am  204  SER204     -0.1938
    129  CA         7.8490   -6.9620  -10.1450 C.3   204  SER204      0.2055
    130  C          6.5820   -7.4070  -10.8870 C.2   204  SER204      0.2643
    131  O          6.4980   -8.5570  -11.3050 O.2   204  SER204     -0.2714
    132  CB         7.5470   -6.5350   -8.6930 C.3   204  SER204      0.2130
    133  OG         6.8410   -7.5470   -7.9880 O.3   204  SER204     -0.2179
    134  N          5.6010   -6.5210  -11.0450 N.am  205  TRP205     -0.1959
    135  CA         4.3650   -6.9070  -11.7150 C.3   205  TRP205      0.1771
    136  C          3.6310   -5.7160  -12.2900 C.2   205  TRP205      0.2620
    137  O          3.9040   -4.5680  -11.9550 O.2   205  TRP205     -0.2715
    138  CB         3.4480   -7.7340  -10.7980 C.3   205  TRP205      0.0590
    139  CG         2.9770   -7.0580   -9.5370 C.ar  205  TRP205      0.0006
    140  CD1        3.6560   -6.9680   -8.3520 C.ar  205  TRP205      0.0946
    141  CD2        1.7090   -6.4110   -9.3210 C.ar  205  TRP205      0.0152
    142  NE1        2.8990   -6.3000   -7.4190 N.ar  205  TRP205     -0.2442
    143  CE2        1.6980   -5.9510   -7.9830 C.ar  205  TRP205      0.0810
    144  CE3        0.5800   -6.1840  -10.1250 C.ar  205  TRP205      0.0012
    145  CZ2        0.6070   -5.2630   -7.4320 C.ar  205  TRP205      0.0191
    146  CZ3       -0.5060   -5.4950   -9.5770 C.ar  205  TRP205      0.0001
    147  CH2       -0.4840   -5.0520   -8.2380 C.ar  205  TRP205      0.0015
    148  N          2.7110   -6.0070  -13.1950 N.am  206  GLY206     -0.1940
    149  CA         1.7650   -5.0150  -13.6760 C.3   206  GLY206      0.2014
    150  C          0.5450   -5.7650  -14.1360 C.2   206  GLY206      0.2639
    151  O          0.5960   -6.9810  -14.3220 O.2   206  GLY206     -0.2714
    152  N         -0.5610   -5.0540  -14.2990 N.am  207  GLU207     -0.1963
    153  CA        -1.7390   -5.6470  -14.9180 C.3   207  GLU207      0.1733
    154  C         -1.5820   -5.4340  -16.4170 C.2   207  GLU207      0.2617
    155  O         -1.8380   -4.3490  -16.9320 O.2   207  GLU207     -0.2715
    156  CB        -3.0260   -5.0390  -14.3430 C.3   207  GLU207      0.0429
    157  CG        -3.3120   -5.5250  -12.9150 C.3   207  GLU207      0.1163
    158  CD        -4.4990   -4.8460  -12.2690 C.2   207  GLU207      0.3649
    159  OE1       -5.6330   -5.3350  -12.4290 O.co2 207  GLU207     -0.2457
    160  OE2       -4.2890   -3.8330  -11.5750 O.co2 207  GLU207     -0.2457
    161  N         -1.1020   -6.4660  -17.1060 N.am  208  GLY208     -0.1940
    162  CA        -0.6720   -6.3140  -18.4990 C.3   208  GLY208      0.2014
    163  C          0.5600   -5.4260  -18.5910 C.2   208  GLY208      0.2639
    164  O          1.3560   -5.3660  -17.6470 O.2   208  GLY208     -0.2714
    165  N          0.7240   -4.7430  -19.7240 N.am  209  CYS209     -0.1967
    166  CA         1.8470   -3.8140  -19.9280 C.3   209  CYS209      0.1712
    167  C          1.3540   -2.5530  -20.5930 C.2   209  CYS209      0.2296
    168  O          0.6320   -2.6130  -21.5950 O.2   209  CYS209     -0.2864
    169  CB         2.9290   -4.4330  -20.8150 C.3   209  CYS209      0.0983
    170  SG         3.3930   -6.0680  -20.2740 S.3   209  CYS209     -0.0798
    171  N          3.6010    0.3740  -13.5740 N.3   216  GLY216     -0.1210
    172  CA         4.4780   -0.7270  -13.2430 C.3   216  GLY216      0.1956
    173  C          4.6580   -0.7840  -11.7450 C.2   216  GLY216      0.2612
    174  O          4.7920    0.2540  -11.0970 O.2   216  GLY216     -0.2717
    175  N          4.6540   -1.9930  -11.1940 N.am  217  ILE217     -0.1965
    176  CA         4.8800   -2.1640   -9.7630 C.3   217  ILE217      0.1727
    177  C          6.2710   -2.7550   -9.5490 C.2   217  ILE217      0.2616
    178  O          6.6400   -3.7640  -10.1730 O.2   217  ILE217     -0.2715
    179  CB         3.8170   -3.0740   -9.1070 C.3   217  ILE217      0.0290
    180  CG1        2.3880   -2.6920   -9.5460 C.3   217  ILE217      0.0022
    181  CG2        3.9670   -3.0520   -7.5820 C.3   217  ILE217      0.0023
    182  CD1        1.9990   -1.2330   -9.2920 C.3   217  ILE217      0.0001
    183  N          7.0170   -2.1220   -8.6480 N.am  218  TYR218     -0.1974
    184  CA         8.4110   -2.4670   -8.3480 C.3   218  TYR218      0.1639
    185  C          8.5590   -2.7870   -6.8710 C.2   218  TYR218      0.2290
    186  O          7.9490   -2.1200   -6.0370 O.2   218  TYR218     -0.2864
    187  CB         9.3270   -1.2740   -8.6600 C.3   218  TYR218      0.0560
    188  CG         9.3340   -0.8720  -10.1140 C.ar  218  TYR218     -0.0198
    189  CD1        8.2900   -0.1250  -10.6560 C.ar  218  TYR218     -0.0009
    190  CD2       10.3680   -1.2710  -10.9580 C.ar  218  TYR218     -0.0009
    191  CE1        8.2720    0.2320  -12.0120 C.ar  218  TYR218      0.0417
    192  CE2       10.3690   -0.9210  -12.3170 C.ar  218  TYR218      0.0417
    193  CZ         9.3190   -0.1740  -12.8330 C.ar  218  TYR218      0.1957
    194  OH         9.3370    0.1700  -14.1680 O.3   218  TYR218     -0.2866
@<TRIPOS>BOND
     1    62    61    2
     2    57    56    1
     3    61    60    1
     4    59    60    1
     5    50    49    1
     6    50    51    2
     7    49    52    1
     8    49    48    1
     9    60    63    1
    10    56    58    1
    11    56    55    2
    12    52    53    1
    13    53    54    1
    14    63    64    1
    15    54    55    1
    16    64    65    1
    17    65    67   ar
    18    65    66   ar
    19   168   167    2
    20   105   104    1
    21   105   170    1
    22   104   101    1
    23   113   112    2
    24   169   170    1
    25   169   166    1
    26   109   108    2
    27    87    88    1
    28   167   166    1
    29    90    89    2
    30   166   165    1
    31   112   111    1
    32   112   114   am
    33   165   163   am
    34   110   111    1
    35   110   107    1
    36   108   107    1
    37    89    88    1
    38    89    95   am
    39   101   102    1
    40   101   100    1
    41   106   102   am
    42   106   107    1
    43    88    91    1
    44    91    92    1
    45   102   103    2
    46   100    97   am
    47    98    97    2
    48    97    96    1
    49   163   162    1
    50   163   164    2
    51   162   161    1
    52    96    95    1
    53    96    99    1
    54    92    94   ar
    55    92    93   ar
    56   161   154   am
    57   155   154    2
    58   154   153    1
    59   115   116    1
    60   153   156    1
    61   153   152    1
    62   120   119    1
    63   156   157    1
    64   151   150    2
    65   152   150   am
    66   116   119    1
    67   116   117    1
    68   118   117    2
    69   194   193    1
    70   150   149    1
    71   126   125    1
    72   149   148    1
    73   127   125    1
    74   171   172    1
    75   172   173    1
    76   148   136   am
    77   125   122    1
    78   157   158    1
    79   193   192   ar
    80   193   191   ar
    81   159   158   ar
    82   192   190   ar
    83   136   137    2
    84   136   135    1
    85   158   160   ar
    86    10     8   ar
    87    10     9   ar
    88   191   189   ar
    89   173   175   am
    90   173   174    2
    91   135   134    1
    92   135   138    1
    93   122   123    1
    94   122   121    1
    95     8     6   ar
    96   131   130    2
    97   123   124    2
    98   123   128   am
    99   175   176    1
   100     9     7   ar
   101   134   130   am
   102   190   188   ar
   103   130   129    1
   104   128   129    1
   105   138   139    1
   106   189   188   ar
   107    47    46    1
   108     4     3    2
   109   178   177    2
   110   129   132    1
   111   144   146   ar
   112   144   141   ar
   113   188   187    1
   114     6     7   ar
   115     6     5    1
   116    77    78   ar
   117    77    75   ar
   118   176   177    1
   119   176   179    1
   120     3     2    1
   121   146   147   ar
   122    78    76   ar
   123   177   183   am
   124   180   182    1
   125   180   179    1
   126   139   141   ar
   127   139   140   ar
   128    46    45   ar
   129    46    44   ar
   130    45    43   ar
   131   141   143   ar
   132    75    73   ar
   133   179   181    1
   134     5     2    1
   135   132   133    1
   136   187   184    1
   137   183   184    1
   138     2     1    1
   139    44    42   ar
   140   140   142   ar
   141   184   185    1
   142    43    41   ar
   143   147   145   ar
   144    76    74   ar
   145   143   145   ar
   146   143   142   ar
   147    73    74   ar
   148    73    72    1
   149    42    41   ar
   150    41    40    1
   151   185   186    2
   152    72    69    1
   153    68    69    1
   154    17    18    1
   155    17    16    1
   156    14    13    2
   157    40    37    1
   158    15    16    1
   159    15    12    1
   160    18    19    1
   161    69    70    1
   162    12    13    1
   163    12    11    1
   164    13    20   am
   165    71    70    2
   166    70    79   am
   167    37    36    1
   168    37    38    1
   169    39    38    2
   170    23    22    2
   171    36    31   am
   172    20    21    1
   173    32    31    2
   174    21    22    1
   175    21    24    1
   176    79    80    1
   177    22    29   am
   178    31    30    1
   179    82    81    2
   180    29    30    1
   181    27    26   ar
   182    81    80    1
   183    30    33    1
   184    80    83    1
   185    25    26    1
   186    25    24    1
   187    26    28   ar
   188    33    34    1
   189    33    35    1
   190    83    84    1
   191    83    85    1
   192    84    86    1
