@<TRIPOS>MOLECULE
tmp/3klbA00.pdb
 141 142 0 0 0
SMALL
GASTEIGER

@<TRIPOS>ATOM
      1  N         34.8840    4.3770   34.0050 N.3    12  SER12      -0.1202
      2  CA        35.1250    3.0110   33.5520 C.3    12  SER12       0.2020
      3  C         35.2400    2.1070   34.7560 C.2    12  SER12       0.2619
      4  O         35.9720    2.4340   35.6960 O.2    12  SER12      -0.2717
      5  CB        36.3770    2.9590   32.6620 C.3    12  SER12       0.2103
      6  OG        36.6560    1.6470   32.2220 O.3    12  SER12      -0.2182
      7  N         34.5040    0.9870   34.7500 N.am   13  CYS13      -0.1955
      8  CA        34.5610    0.0150   35.8090 C.3    13  CYS13       0.1843
      9  C         35.3820   -1.1750   35.4320 C.2    13  CYS13       0.2626
     10  O         36.2080   -1.6100   36.2390 O.2    13  CYS13      -0.2714
     11  CB        33.1670   -0.4320   36.2390 C.3    13  CYS13       0.0997
     12  SG        32.2790    0.9420   37.0220 S.3    13  CYS13      -0.0797
     13  N         35.2070   -1.7040   34.2200 N.am   14  SER14      -0.1950
     14  CA        36.0050   -2.8430   33.8110 C.3    14  SER14       0.1924
     15  C         37.0970   -2.5160   32.8230 C.2    14  SER14       0.2314
     16  O         37.6880   -3.4340   32.2560 O.2    14  SER14      -0.2863
     17  CB        35.1320   -4.0280   33.3540 C.3    14  SER14       0.2116
     18  OG        34.1820   -3.6790   32.3830 O.3    14  SER14      -0.2180
     19  N         37.2290   -1.0420   29.8330 N.3    16  VAL16      -0.1231
     20  CA        37.0340   -0.9730   28.3930 C.3    16  VAL16       0.1692
     21  C         36.9760    0.4910   27.9540 C.2    16  VAL16       0.2592
     22  O         37.6260    0.8950   26.9680 O.2    16  VAL16      -0.2718
     23  CB        35.7730   -1.7810   27.9290 C.3    16  VAL16       0.0266
     24  CG1       35.5340   -1.6470   26.4180 C.3    16  VAL16       0.0020
     25  CG2       35.9100   -3.2840   28.3760 C.3    16  VAL16       0.0020
     26  N         36.1590    1.2940   28.6570 N.am   17  THR17      -0.1953
     27  CA        36.0320    2.7030   28.2770 C.3    17  THR17       0.1897
     28  C         37.3580    3.4230   28.5710 C.2    17  THR17       0.2313
     29  O         37.7210    4.3580   27.8630 O.2    17  THR17      -0.2863
     30  CB        34.8380    3.3750   28.9880 C.3    17  THR17       0.1794
     31  OG1       33.6690    2.5330   28.8590 O.3    17  THR17      -0.2208
     32  CG2       34.5660    4.8130   28.4500 C.3    17  THR17       0.0378
     33  N         27.8060   -4.4860   40.0870 N.3    46  LEU46      -0.1245
     34  CA        27.6290   -4.3980   38.6390 C.3    46  LEU46       0.1561
     35  C         26.8530   -5.5760   38.0330 C.2    46  LEU46       0.2260
     36  O         26.7650   -5.7090   36.8010 O.2    46  LEU46      -0.2867
     37  CB        29.0130   -4.3220   37.9870 C.3    46  LEU46       0.0270
     38  CG        29.8870   -3.1350   38.3710 C.3    46  LEU46       0.0019
     39  CD1       31.3070   -3.2590   37.7840 C.3    46  LEU46       0.0001
     40  CD2       29.2100   -1.8350   37.9290 C.3    46  LEU46       0.0001
     41  N         23.9920   -7.0050   36.6350 N.3    48  TRP48      -0.1241
     42  CA        22.7910   -6.5040   36.0010 C.3    48  TRP48       0.1605
     43  C         21.6740   -7.5050   36.0360 C.2    48  TRP48       0.2264
     44  O         20.5370   -7.1700   35.7310 O.2    48  TRP48      -0.2867
     45  CB        23.0600   -6.0550   34.5630 C.3    48  TRP48       0.0550
     46  CG        23.5730   -7.0980   33.6140 C.ar   48  TRP48       0.0003
     47  CD1       22.8680   -8.1580   33.0550 C.ar   48  TRP48       0.0946
     48  CD2       24.8630   -7.1290   33.0170 C.ar   48  TRP48       0.0152
     49  NE1       23.6810   -8.8490   32.1750 N.ar   48  TRP48      -0.2442
     50  CE2       24.9120   -8.2450   32.1510 C.ar   48  TRP48       0.0810
     51  CE3       25.9920   -6.3220   33.1290 C.ar   48  TRP48       0.0012
     52  CZ2       26.0500   -8.5530   31.3990 C.ar   48  TRP48       0.0191
     53  CZ3       27.1280   -6.6650   32.4110 C.ar   48  TRP48       0.0001
     54  CH2       27.1380   -7.7510   31.5460 C.ar   48  TRP48       0.0015
     55  N         24.1050   -1.0070   41.0620 N.3    55  SER55      -0.1217
     56  CA        23.8870   -0.4130   39.7370 C.3    55  SER55       0.1889
     57  C         22.4110   -0.5190   39.3300 C.2    55  SER55       0.2288
     58  O         21.8650    0.4120   38.7790 O.2    55  SER55      -0.2866
     59  CB        24.8030   -1.0530   38.6800 C.3    55  SER55       0.2089
     60  OG        24.4940   -2.4330   38.5210 O.3    55  SER55      -0.2183
     61  N         30.6190    3.7010   29.9860 N.3    85  PRO85      -0.2102
     62  CA        29.8640    2.5370   29.5230 C.3    85  PRO85       0.1504
     63  C         28.3850    2.8720   29.4450 C.2    85  PRO85       0.2576
     64  O         27.9040    3.6550   30.2850 O.2    85  PRO85      -0.2718
     65  CB        30.0840    1.5280   30.6450 C.3    85  PRO85       0.0282
     66  CG        30.2240    2.4110   31.8580 C.3    85  PRO85       0.0208
     67  CD        31.0370    3.5500   31.4000 C.3    85  PRO85       0.0893
     68  N         27.6660    2.3240   28.4510 N.am   86  VAL86      -0.1966
     69  CA        26.1890    2.3370   28.4850 C.3    86  VAL86       0.1727
     70  C         25.6940    1.4620   29.6420 C.2    86  VAL86       0.2616
     71  O         26.0840    0.3120   29.7630 O.2    86  VAL86      -0.2715
     72  CB        25.5860    1.8630   27.1400 C.3    86  VAL86       0.0290
     73  CG1       24.0640    1.8720   27.1910 C.3    86  VAL86       0.0023
     74  CG2       26.1860    2.6780   25.9480 C.3    86  VAL86       0.0023
     75  N         24.9030    2.0390   30.5390 N.am   87  TRP87      -0.1960
     76  CA        24.2230    1.3010   31.5790 C.3    87  TRP87       0.1771
     77  C         22.7250    1.4620   31.3710 C.2    87  TRP87       0.2620
     78  O         22.1880    2.5670   31.4490 O.2    87  TRP87      -0.2715
     79  CB        24.6000    1.8430   32.9540 C.3    87  TRP87       0.0590
     80  CG        25.9580    1.3900   33.4920 C.ar   87  TRP87       0.0006
     81  CD1       26.9220    0.6850   32.8170 C.ar   87  TRP87       0.0946
     82  CD2       26.4570    1.5870   34.8230 C.ar   87  TRP87       0.0152
     83  NE1       27.9970    0.4410   33.6410 N.ar   87  TRP87      -0.2442
     84  CE2       27.7520    0.9760   34.8820 C.ar   87  TRP87       0.0810
     85  CE3       25.9490    2.1940   35.9790 C.ar   87  TRP87       0.0012
     86  CZ2       28.5380    0.9850   36.0270 C.ar   87  TRP87       0.0191
     87  CZ3       26.7350    2.2020   37.1410 C.ar   87  TRP87       0.0001
     88  CH2       28.0110    1.5960   37.1600 C.ar   87  TRP87       0.0015
     89  N         22.0360    0.3450   31.1370 N.am   88  TRP88      -0.1960
     90  CA        20.5970    0.3480   30.9360 C.3    88  TRP88       0.1771
     91  C         20.1730    1.4330   29.9410 C.2    88  TRP88       0.2619
     92  O         19.2040    2.2130   30.1420 O.2    88  TRP88      -0.2715
     93  CB        19.9320    0.4400   32.3020 C.3    88  TRP88       0.0590
     94  CG        20.1680   -0.7930   33.1290 C.ar   88  TRP88       0.0006
     95  CD1       20.9430   -0.8980   34.2610 C.ar   88  TRP88       0.0946
     96  CD2       19.6200   -2.0890   32.9050 C.ar   88  TRP88       0.0152
     97  NE1       20.9200   -2.2070   34.7360 N.ar   88  TRP88      -0.2442
     98  CE2       20.1330   -2.9480   33.9050 C.ar   88  TRP88       0.0810
     99  CE3       18.7960   -2.6320   31.9100 C.ar   88  TRP88       0.0012
    100  CZ2       19.7810   -4.2960   33.9810 C.ar   88  TRP88       0.0191
    101  CZ3       18.4570   -3.9650   31.9800 C.ar   88  TRP88       0.0001
    102  CH2       18.9700   -4.7880   33.0010 C.ar   88  TRP88       0.0015
    103  N         20.8850    1.4280   28.8350 N.am   89  TYR89      -0.1974
    104  CA        20.5440    2.1940   27.6370 C.3    89  TYR89       0.1639
    105  C         20.8170    3.6810   27.7550 C.2    89  TYR89       0.2290
    106  O         20.5780    4.4080   26.7940 O.2    89  TYR89      -0.2864
    107  CB        19.1010    1.9270   27.1640 C.3    89  TYR89       0.0560
    108  CG        18.8110    0.4560   27.1430 C.ar   89  TYR89      -0.0198
    109  CD1       19.4470   -0.3730   26.2220 C.ar   89  TYR89      -0.0009
    110  CD2       18.0260   -0.1380   28.1340 C.ar   89  TYR89      -0.0009
    111  CE1       19.2810   -1.7440   26.2600 C.ar   89  TYR89       0.0417
    112  CE2       17.8490   -1.5230   28.1710 C.ar   89  TYR89       0.0417
    113  CZ        18.4800   -2.3150   27.2310 C.ar   89  TYR89       0.1957
    114  OH        18.3320   -3.6920   27.2220 O.3    89  TYR89      -0.2866
    115  N         31.2490    3.0360   25.3990 N.3   114  THR114     -0.1203
    116  CA        31.3720    1.6350   24.9670 C.3   114  THR114      0.1994
    117  C         30.1530    0.8940   25.5020 C.2   114  THR114      0.2619
    118  O         29.4540    1.3840   26.3850 O.2   114  THR114     -0.2717
    119  CB        32.6590    0.9820   25.4560 C.3   114  THR114      0.1784
    120  OG1       32.6240    0.8690   26.8810 O.3   114  THR114     -0.2211
    121  CG2       33.9610    1.7590   25.0150 C.3   114  THR114      0.0376
    122  N         29.8730   -0.2670   24.9360 N.am  115  SER115     -0.1937
    123  CA        28.6540   -1.0180   25.2250 C.3   115  SER115      0.2055
    124  C         28.8120   -2.4760   24.9040 C.2   115  SER115      0.2644
    125  O         29.7650   -2.8760   24.2040 O.2   115  SER115     -0.2714
    126  CB        27.4620   -0.5110   24.4420 C.3   115  SER115      0.2130
    127  OG        27.4600   -0.9520   23.0890 O.3   115  SER115     -0.2179
    128  N         27.8420   -3.2610   25.3710 N.am  116  GLY116     -0.1939
    129  CA        27.7490   -4.6950   24.9900 C.3   116  GLY116      0.2014
    130  C         26.8580   -4.9110   23.7790 C.2   116  GLY116      0.2639
    131  O         26.3240   -6.0180   23.5740 O.2   116  GLY116     -0.2714
    132  N         26.6620   -3.8710   22.9860 N.am  117  GLY117     -0.1939
    133  CA        25.8070   -3.9450   21.8310 C.3   117  GLY117      0.2014
    134  C         24.8610   -2.7660   21.5910 C.2   117  GLY117      0.2639
    135  O         24.5620   -2.4490   20.4560 O.2   117  GLY117     -0.2714
    136  N         24.3820   -2.1020   22.6300 N.am  118  SER118     -0.1949
    137  CA        23.5150   -0.9350   22.4530 C.3   118  SER118      0.1924
    138  C         24.2300    0.2730   21.8880 C.2   118  SER118      0.2314
    139  O         25.4450    0.4500   22.0790 O.2   118  SER118     -0.2863
    140  CB        22.9650   -0.5040   23.7970 C.3   118  SER118      0.2116
    141  OG        22.1160   -1.4780   24.3230 O.3   118  SER118     -0.2180
@<TRIPOS>BOND
     1   135   134    2
     2   134   133    1
     3   134   136   am
     4   133   132    1
     5   138   139    2
     6   138   137    1
     7   137   136    1
     8   137   140    1
     9   132   130   am
    10   127   126    1
    11   131   130    2
    12   130   129    1
    13   140   141    1
    14   125   124    2
    15   126   123    1
    16   124   123    1
    17   124   128   am
    18   122   123    1
    19   122   117   am
    20   116   115    1
    21   116   119    1
    22   116   117    1
    23   129   128    1
    24   121   119    1
    25   119   120    1
    26   117   118    2
    27    74    72    1
    28   109   111   ar
    29   109   108   ar
    30   111   113   ar
    31    24    23    1
    32   106   105    2
    33    22    21    2
    34    72    73    1
    35    72    69    1
    36   108   107    1
    37   108   110   ar
    38   107   104    1
    39   114   113    1
    40   113   112   ar
    41   104   105    1
    42   104   103    1
    43    29    28    2
    44    23    25    1
    45    23    20    1
    46    21    20    1
    47    21    26   am
    48   110   112   ar
    49    27    28    1
    50    27    26    1
    51    27    30    1
    52    20    19    1
    53    32    30    1
    54    68    69    1
    55    68    63   am
    56    69    70    1
    57   103    91   am
    58    31    30    1
    59    63    62    1
    60    63    64    2
    61    62    61    1
    62    62    65    1
    63    70    71    2
    64    70    75   am
    65    91    92    2
    66    91    90    1
    67    61    67    1
    68    75    76    1
    69    65    66    1
    70    90    89    1
    71    90    93    1
    72    89    77   am
    73    77    78    2
    74    77    76    1
    75    52    54   ar
    76    52    50   ar
    77    67    66    1
    78    54    53   ar
    79    76    79    1
    80    99   101   ar
    81    99    96   ar
    82   101   102   ar
    83    50    49   ar
    84    50    48   ar
    85    49    47   ar
    86     6     5    1
    87    16    15    2
    88    93    94    1
    89    18    17    1
    90    53    51   ar
    91     5     2    1
    92    81    80   ar
    93    81    83   ar
    94    15    14    1
    95    96    94   ar
    96    96    98   ar
    97    79    80    1
    98   102   100   ar
    99    48    51   ar
   100    48    46   ar
   101    47    46   ar
   102    94    95   ar
   103    17    14    1
   104    80    82   ar
   105     2     1    1
   106     2     3    1
   107    46    45    1
   108    83    84   ar
   109    14    13    1
   110    98   100   ar
   111    98    97   ar
   112    13     9   am
   113    95    97   ar
   114    45    42    1
   115     7     3   am
   116     7     8    1
   117     3     4    2
   118    82    84   ar
   119    82    85   ar
   120    84    86   ar
   121     9     8    1
   122     9    10    2
   123    44    43    2
   124     8    11    1
   125    85    87   ar
   126    42    43    1
   127    42    41    1
   128    86    88   ar
   129    11    12    1
   130    36    35    2
   131    87    88   ar
   132    39    38    1
   133    40    38    1
   134    37    38    1
   135    37    34    1
   136    35    34    1
   137    60    59    1
   138    34    33    1
   139    59    56    1
   140    58    57    2
   141    57    56    1
   142    56    55    1
