@<TRIPOS>MOLECULE
tmp/3kleE00.pdb
 202 192 0 0 0
SMALL
GASTEIGER

@<TRIPOS>ATOM
      1  N          0.7760   79.8230   -1.2240 N.3     1  PRO1       -0.2116
      2  CA         0.0440   78.8040   -0.4630 C.3     1  PRO1        0.1372
      3  C          0.2980   77.4020   -1.0050 C.2     1  PRO1        0.2244
      4  O          0.5260   77.2360   -2.2040 O.2     1  PRO1       -0.2868
      5  CB        -1.4180   79.1950   -0.6820 C.3     1  PRO1        0.0268
      6  CG        -1.4240   79.8830   -2.0000 C.3     1  PRO1        0.0207
      7  CD        -0.1160   80.6170   -2.0880 C.3     1  PRO1        0.0892
      8  N         10.4940   84.6990   -1.8260 N.3    40  GLU40      -0.1245
      9  CA         9.1270   84.5050   -2.3010 C.3    40  GLU40       0.1567
     10  C          8.5830   83.1730   -1.7750 C.2    40  GLU40       0.2260
     11  O          7.5460   83.1280   -1.1020 O.2    40  GLU40      -0.2867
     12  CB         9.1260   84.4710   -3.8270 C.3    40  GLU40       0.0388
     13  CG         7.7720   84.2440   -4.4610 C.3    40  GLU40       0.1160
     14  CD         7.8890   83.6000   -5.8300 C.2    40  GLU40       0.3649
     15  OE1        8.7530   84.0280   -6.6250 O.co2  40  GLU40      -0.2457
     16  OE2        7.1160   82.6630   -6.1160 O.co2  40  GLU40      -0.2457
     17  N          5.4880   82.3720    0.8490 N.3    44  GLU44      -0.1245
     18  CA         4.4580   81.5000    0.2890 C.3    44  GLU44       0.1567
     19  C          4.3660   80.1960    1.0900 C.2    44  GLU44       0.2260
     20  O          3.4020   79.4310    0.9430 O.2    44  GLU44      -0.2867
     21  CB         4.7650   81.1890   -1.1800 C.3    44  GLU44       0.0388
     22  CG         4.7850   82.4110   -2.0810 C.3    44  GLU44       0.1160
     23  CD         5.0170   82.0570   -3.5510 C.2    44  GLU44       0.3649
     24  OE1        6.0800   81.4640   -3.8610 O.co2  44  GLU44      -0.2457
     25  OE2        4.1360   82.3750   -4.3940 O.co2  44  GLU44      -0.2457
     26  N          6.4670   77.7070    0.8420 N.3    46  LYS46      -0.1245
     27  CA         6.9140   76.5850    0.0230 C.3    46  LYS46       0.1561
     28  C          8.2020   75.9770    0.5800 C.2    46  LYS46       0.2260
     29  O          8.4560   74.7730    0.4440 O.2    46  LYS46      -0.2867
     30  CB         7.0810   77.0510   -1.4280 C.3    46  LYS46       0.0271
     31  CG         5.7640   77.5470   -2.0090 C.3    46  LYS46       0.0035
     32  CD         5.9330   78.1640   -3.3770 C.3    46  LYS46       0.0206
     33  CE         4.6060   78.7060   -3.8950 C.3    46  LYS46       0.1093
     34  NZ         4.7410   79.3590   -5.2360 N.3    46  LYS46      -0.1314
     35  N         18.7150   78.7220  -13.6960 N.3    63  ILE63      -0.1245
     36  CA        18.8240   78.5830  -15.1380 C.3    63  ILE63       0.1561
     37  C         17.6600   79.3850  -15.7290 C.2    63  ILE63       0.2260
     38  O         16.6290   79.5840  -15.0800 O.2    63  ILE63      -0.2867
     39  CB        18.7830   77.0670  -15.5720 C.3    63  ILE63       0.0252
     40  CG1       19.2630   76.9220  -17.0200 C.3    63  ILE63       0.0019
     41  CG2       17.3690   76.4850  -15.3860 C.3    63  ILE63       0.0019
     42  CD1       19.3050   75.5090  -17.4930 C.3    63  ILE63       0.0001
     43  N         14.4050   80.4380  -17.9680 N.3    65  LYS65      -0.1231
     44  CA        13.1690   79.7670  -18.3540 C.3    65  LYS65       0.1693
     45  C         12.9050   79.9130  -19.8490 C.2    65  LYS65       0.2591
     46  O         13.8000   80.2720  -20.6150 O.2    65  LYS65      -0.2718
     47  CB        11.9870   80.3200  -17.5550 C.3    65  LYS65       0.0285
     48  CG        12.0000   79.9400  -16.0830 C.3    65  LYS65       0.0035
     49  CD        10.9280   80.6900  -15.3100 C.3    65  LYS65       0.0206
     50  CE        10.3050   79.8120  -14.2370 C.3    65  LYS65       0.1093
     51  NZ         8.8190   79.9140  -14.2310 N.3    65  LYS65      -0.1314
     52  N         11.6720   79.6330  -20.2570 N.am   66  LYS66      -0.1980
     53  CA        11.2890   79.7330  -21.6600 C.3    66  LYS66       0.1596
     54  C         11.5520   81.1320  -22.2050 C.2    66  LYS66       0.2287
     55  O         12.3730   81.3140  -23.1050 O.2    66  LYS66      -0.2864
     56  CB         9.8140   79.3680  -21.8400 C.3    66  LYS66       0.0298
     57  CG         9.5730   77.9070  -22.1850 C.3    66  LYS66       0.0038
     58  CD        10.2630   77.5260  -23.4840 C.3    66  LYS66       0.0206
     59  CE        10.0910   76.0470  -23.7880 C.3    66  LYS66       0.1093
     60  NZ         8.7270   75.7410  -24.3010 N.3    66  LYS66      -0.1314
     61  N         13.1560   85.4930  -16.8930 N.3    70  ARG70      -0.1245
     62  CA        13.0760   84.9100  -15.5620 C.3    70  ARG70       0.1563
     63  C         13.9880   83.7060  -15.3520 C.2    70  ARG70       0.2260
     64  O         14.6180   83.2010  -16.2820 O.2    70  ARG70      -0.2867
     65  CB        11.6290   84.5260  -15.2390 C.3    70  ARG70       0.0307
     66  CG        10.9350   85.4750  -14.2750 C.3    70  ARG70       0.0489
     67  CD         9.4460   85.1820  -14.1870 C.3    70  ARG70       0.2205
     68  NE         9.1710   83.9700  -13.4220 N.pl3  70  ARG70      -0.0865
     69  CZ         8.1400   83.8250  -12.5970 C.cat  70  ARG70       0.5346
     70  NH1        7.9670   82.6850  -11.9420 N.pl3  70  ARG70       0.1354
     71  NH2        7.2800   84.8200  -12.4270 N.pl3  70  ARG70       0.1354
     72  N         14.7130   79.8620  -12.9030 N.3    72  ARG72      -0.1245
     73  CA        14.1770   78.6590  -12.2880 C.3    72  ARG72       0.1563
     74  C         15.2500   78.0990  -11.3620 C.2    72  ARG72       0.2260
     75  O         16.3960   77.8730  -11.7640 O.2    72  ARG72      -0.2867
     76  CB        13.8040   77.6390  -13.3750 C.3    72  ARG72       0.0307
     77  CG        13.7990   76.1840  -12.9190 C.3    72  ARG72       0.0489
     78  CD        13.5730   75.2610  -14.0960 C.3    72  ARG72       0.2205
     79  NE        12.1740   74.8600  -14.1760 N.pl3  72  ARG72      -0.0865
     80  CZ        11.3380   75.2730  -15.1180 C.cat  72  ARG72       0.5346
     81  NH1       11.7600   76.1050  -16.0690 N.pl3  72  ARG72       0.1354
     82  NH2       10.0840   74.8540  -15.1070 N.pl3  72  ARG72       0.1354
     83  N         17.2300   75.3860   -9.3730 N.3    74  LEU74      -0.1245
     84  CA        17.4940   73.9720   -9.5950 C.3    74  LEU74       0.1561
     85  C         18.4370   73.3870   -8.5520 C.2    74  LEU74       0.2260
     86  O         19.4960   73.9600   -8.2540 O.2    74  LEU74      -0.2867
     87  CB        18.0750   73.7650  -10.9920 C.3    74  LEU74       0.0270
     88  CG        17.1440   74.1390  -12.1390 C.3    74  LEU74       0.0019
     89  CD1       17.8610   73.9340  -13.4630 C.3    74  LEU74       0.0001
     90  CD2       15.8750   73.2910  -12.0420 C.3    74  LEU74       0.0001
     91  N         -1.8100   75.4820  -17.7820 N.3   110  ASP110     -0.1225
     92  CA        -0.5510   75.0870  -17.1800 C.3   110  ASP110      0.1805
     93  C         -0.5530   75.6020  -15.7410 C.2   110  ASP110      0.2598
     94  O         -1.1200   76.6530  -15.4610 O.2   110  ASP110     -0.2718
     95  CB         0.6060   75.7860  -17.8940 C.3   110  ASP110      0.1424
     96  CG         1.9590   75.4030  -17.3320 C.2   110  ASP110      0.3668
     97  OD1        2.7290   74.7000  -18.0230 O.co2 110  ASP110     -0.2456
     98  OD2        2.2470   75.8150  -16.1880 O.co2 110  ASP110     -0.2456
     99  N          0.0610   74.8620  -14.8310 N.am  111  VAL111     -0.1966
    100  CA         0.0710   75.2870  -13.4440 C.3   111  VAL111      0.1727
    101  C          1.2570   76.0960  -12.9570 C.2   111  VAL111      0.2617
    102  O          2.3930   75.6250  -12.9830 O.2   111  VAL111     -0.2715
    103  CB        -0.0380   74.0420  -12.5820 C.3   111  VAL111      0.0290
    104  CG1       -0.2200   74.4330  -11.1240 C.3   111  VAL111      0.0023
    105  CG2       -1.1790   73.1820  -13.0910 C.3   111  VAL111      0.0023
    106  N          0.9960   77.3160  -12.5010 N.am  112  GLY112     -0.1940
    107  CA         2.0750   78.1580  -12.0050 C.3   112  GLY112      0.2014
    108  C          2.8370   77.4780  -10.8750 C.2   112  GLY112      0.2639
    109  O          2.2290   77.0810   -9.8720 O.2   112  GLY112     -0.2714
    110  N          4.1590   77.3460  -11.0310 N.am  113  ASP113     -0.1957
    111  CA         5.0140   76.6910  -10.0290 C.3   113  ASP113      0.1840
    112  C          4.4310   75.3560   -9.5630 C.2   113  ASP113      0.2622
    113  O          4.2960   75.1070   -8.3610 O.2   113  ASP113     -0.2715
    114  CB         5.2380   77.5890   -8.8200 C.3   113  ASP113      0.1450
    115  CG         6.0680   78.8000   -9.1520 C.2   113  ASP113      0.3671
    116  OD1        6.9280   78.6870  -10.0550 O.co2 113  ASP113     -0.2456
    117  OD2        5.8640   79.8540   -8.5010 O.co2 113  ASP113     -0.2456
    118  N          4.1010   74.5070  -10.5360 N.am  114  ALA114     -0.1963
    119  CA         3.5070   73.1980  -10.2890 C.3   114  ALA114      0.1728
    120  C          4.0280   72.2630   -9.1940 C.2   114  ALA114      0.2616
    121  O          3.2500   71.7950   -8.3640 O.2   114  ALA114     -0.2715
    122  CB         3.6270   72.3410  -11.5540 C.3   114  ALA114      0.0334
    123  N          5.3300   71.9750   -9.2100 N.am  115  TYR115     -0.1960
    124  CA         5.9350   71.1000   -8.2060 C.3   115  TYR115      0.1771
    125  C          5.7950   71.8240   -6.8720 C.2   115  TYR115      0.2619
    126  O          5.4820   71.2070   -5.8480 O.2   115  TYR115     -0.2715
    127  CB         7.4250   70.9420   -8.5050 C.3   115  TYR115      0.0574
    128  CG         7.7710   69.8960   -9.5300 C.ar  115  TYR115     -0.0198
    129  CD1        6.7990   69.3630  -10.3750 C.ar  115  TYR115     -0.0009
    130  CD2        9.0940   69.4760   -9.6850 C.ar  115  TYR115     -0.0009
    131  CE1        7.1300   68.4400  -11.3560 C.ar  115  TYR115      0.0417
    132  CE2        9.4430   68.5570  -10.6590 C.ar  115  TYR115      0.0417
    133  CZ         8.4550   68.0390  -11.4980 C.ar  115  TYR115      0.1957
    134  OH         8.7850   67.1300  -12.4840 O.3   115  TYR115     -0.2866
    135  N          6.0340   73.1350   -6.8910 N.am  116  PHE116     -0.1974
    136  CA         5.9740   73.9630   -5.6860 C.3   116  PHE116      0.1639
    137  C          4.6060   74.0430   -5.0250 C.2   116  PHE116      0.2290
    138  O          4.4440   74.7150   -4.0060 O.2   116  PHE116     -0.2864
    139  CB         6.4540   75.3760   -6.0100 C.3   116  PHE116      0.0560
    140  CG         7.9010   75.4430   -6.3730 C.ar  116  PHE116     -0.0200
    141  CD1        8.8840   75.2390   -5.4050 C.ar  116  PHE116     -0.0042
    142  CD2        8.2930   75.6660   -7.6920 C.ar  116  PHE116     -0.0042
    143  CE1       10.2410   75.2530   -5.7490 C.ar  116  PHE116     -0.0003
    144  CE2        9.6440   75.6820   -8.0440 C.ar  116  PHE116     -0.0003
    145  CZ        10.6160   75.4740   -7.0720 C.ar  116  PHE116     -0.0000
    146  N         12.5820   70.6020   -7.7290 N.3   151  GLN151     -0.1231
    147  CA        13.0330   70.2350   -9.0910 C.3   151  GLN151      0.1698
    148  C         14.4340   69.6110   -9.1600 C.2   151  GLN151      0.2592
    149  O         15.4320   70.2720   -8.8510 O.2   151  GLN151     -0.2718
    150  CB        13.0080   71.4610  -10.0130 C.3   151  GLN151      0.0381
    151  CG        11.6680   72.1630  -10.0750 C.3   151  GLN151      0.0905
    152  CD        11.6830   73.3580  -11.0040 C.2   151  GLN151      0.2608
    153  OE1       11.8430   73.2180  -12.2160 O.2   151  GLN151     -0.2717
    154  NE2       11.5170   74.5430  -10.4380 N.am  151  GLN151     -0.0878
    155  N         14.4970   68.3460   -9.5640 N.am  152  GLY152     -0.1957
    156  CA        15.7630   67.6490   -9.6890 C.3   152  GLY152      0.1869
    157  C         15.8790   66.4810   -8.7290 C.2   152  GLY152      0.2309
    158  O         16.9010   66.3100   -8.0640 O.2   152  GLY152     -0.2863
    159  N          2.3070   65.9260  -17.0840 N.3   184  MET184     -0.1230
    160  CA         2.8070   66.7340  -15.9860 C.3   184  MET184      0.1702
    161  C          1.6890   67.6540  -15.5000 C.2   184  MET184      0.2592
    162  O          0.6390   67.1790  -15.0600 O.2   184  MET184     -0.2718
    163  CB         4.0180   67.5570  -16.4350 C.3   184  MET184      0.0401
    164  CG         5.3490   66.9340  -16.0610 C.3   184  MET184      0.0596
    165  SD         5.4920   66.6850  -14.2780 S.3   184  MET184     -0.1393
    166  CE         6.7250   65.3690  -14.1880 C.3   184  MET184      0.0692
    167  N          1.9160   68.9610  -15.6030 N.am  185  ASP185     -0.1974
    168  CA         0.9590   69.9760  -15.1700 C.3   185  ASP185      0.1709
    169  C          0.2630   70.5720  -16.3810 C.2   185  ASP185      0.2293
    170  O         -0.5650   71.4690  -16.2580 O.2   185  ASP185     -0.2864
    171  CB         1.7070   71.0860  -14.4490 C.3   185  ASP185      0.1436
    172  CG         2.6330   71.8560  -15.3810 C.2   185  ASP185      0.3671
    173  OD1        2.9200   71.3480  -16.4870 O.co2 185  ASP185     -0.2456
    174  OD2        3.0850   72.9610  -15.0130 O.co2 185  ASP185     -0.2456
    175  N         -2.7340   76.6830   -8.7150 N.3   215  TYR215     -0.1241
    176  CA        -2.9620   78.0290   -9.2220 C.3   215  TYR215      0.1605
    177  C         -3.0130   77.9190  -10.7390 C.2   215  TYR215      0.2264
    178  O         -2.4530   76.9870  -11.2990 O.2   215  TYR215     -0.2867
    179  CB        -1.7960   78.9230   -8.7980 C.3   215  TYR215      0.0534
    180  CG        -2.1670   80.3560   -8.4440 C.ar  215  TYR215     -0.0201
    181  CD1       -2.1130   80.8060   -7.1160 C.ar  215  TYR215     -0.0009
    182  CD2       -2.5070   81.2840   -9.4430 C.ar  215  TYR215     -0.0009
    183  CE1       -2.3780   82.1450   -6.7950 C.ar  215  TYR215      0.0417
    184  CE2       -2.7740   82.6230   -9.1340 C.ar  215  TYR215      0.0417
    185  CZ        -2.7040   83.0450   -7.8110 C.ar  215  TYR215      0.1957
    186  OH        -2.9340   84.3680   -7.5150 O.3   215  TYR215     -0.2866
    187  N         -2.3090   80.5550  -13.7470 N.3   217  PRO217     -0.2116
    188  CA        -2.0000   81.8360  -14.3910 C.3   217  PRO217      0.1372
    189  C         -2.6650   81.9590  -15.7570 C.2   217  PRO217      0.2244
    190  O         -2.9200   80.9480  -16.4110 O.2   217  PRO217     -0.2868
    191  CB        -0.4790   81.7850  -14.5490 C.3   217  PRO217      0.0268
    192  CG        -0.1660   80.3340  -14.6450 C.3   217  PRO217      0.0207
    193  CD        -1.1540   79.6410  -13.7500 C.3   217  PRO217      0.0892
    194  N         -1.7690   82.6160  -18.5350 N.3   219  GLN219     -0.1245
    195  CA        -1.0090   82.2140  -19.7120 C.3   219  GLN219      0.1566
    196  C         -1.4050   80.8160  -20.1730 C.2   219  GLN219      0.2260
    197  O         -0.5840   79.8990  -20.1830 O.2   219  GLN219     -0.2867
    198  CB         0.4930   82.2670  -19.4250 C.3   219  GLN219      0.0367
    199  CG         1.0200   83.6620  -19.1320 C.3   219  GLN219      0.0905
    200  CD         0.0690   84.4770  -18.2780 C.2   219  GLN219      0.2608
    201  OE1       -0.0580   84.2460  -17.0760 O.2   219  GLN219     -0.2717
    202  NE2       -0.6060   85.4390  -18.8970 N.am  219  GLN219     -0.0878
@<TRIPOS>BOND
     1    60    59    1
     2    59    58    1
     3    58    57    1
     4    55    54    2
     5    54    53    1
     6    57    56    1
     7    56    53    1
     8    53    52    1
     9    46    45    2
    10    52    45   am
    11   197   196    2
    12   196   195    1
    13    45    44    1
    14   195   198    1
    15   195   194    1
    16   198   199    1
    17   199   200    1
    18   202   200   am
    19    44    43    1
    20    44    47    1
    21   200   201    2
    22    97    96   ar
    23    95    96    1
    24    95    92    1
    25    91    92    1
    26    47    48    1
    27    42    40    1
    28    96    98   ar
    29    92    93    1
    30   159   160    1
    31    40    39    1
    32    61    62    1
    33   173   172   ar
    34   163   164    1
    35   163   160    1
    36   190   189    2
    37   169   170    2
    38   169   168    1
    39    64    63    2
    40    48    49    1
    41    81    80    1
    42   164   165    1
    43   160   161    1
    44   189   188    1
    45    93    94    2
    46    93    99   am
    47    37    36    1
    48    37    38    2
    49   167   161   am
    50   167   168    1
    51    39    41    1
    52    39    36    1
    53    62    63    1
    54    62    65    1
    55   161   162    2
    56   172   174   ar
    57   172   171    1
    58    49    50    1
    59    65    66    1
    60   168   171    1
    61    36    35    1
    62    80    82    1
    63    80    79    2
    64    99   100    1
    65   192   191    1
    66   192   193    1
    67   191   188    1
    68   188   187    1
    69   165   166    1
    70    66    67    1
    71    50    51    1
    72    67    68    1
    73    79    78    1
    74    78    77    1
    75   193   187    1
    76    89    88    1
    77   100   101    1
    78   100   103    1
    79    68    69    2
    80    76    77    1
    81    76    73    1
    82   105   103    1
    83   102   101    2
    84   101   106   am
    85    72    73    1
    86    69    71    1
    87    69    70    1
    88   103   104    1
    89   106   107    1
    90   134   133    1
    91    73    74    1
    92   153   152    2
    93    88    90    1
    94    88    87    1
    95   107   108    1
    96    75    74    2
    97   122   119    1
    98   133   131   ar
    99   133   132   ar
   100   131   129   ar
   101   178   177    2
   102   110   108   am
   103   110   111    1
   104   152   154   am
   105   152   151    1
   106    87    84    1
   107   108   109    2
   108   177   176    1
   109   132   130   ar
   110   118   119    1
   111   118   112   am
   112   129   128   ar
   113   119   120    1
   114   151   150    1
   115   116   115   ar
   116   111   112    1
   117   111   114    1
   118   150   147    1
   119   156   155    1
   120   156   157    1
   121   130   128   ar
   122    84    83    1
   123    84    85    1
   124   155   148   am
   125   112   113    2
   126   128   127    1
   127   182   184   ar
   128   182   180   ar
   129   176   179    1
   130   176   175    1
   131   123   120   am
   132   123   124    1
   133   120   121    2
   134   148   147    1
   135   148   149    2
   136   115   114    1
   137   115   117   ar
   138   184   185   ar
   139   147   146    1
   140   179   180    1
   141   157   158    2
   142    85    86    2
   143   127   124    1
   144   180   181   ar
   145   124   125    1
   146   144   142   ar
   147   144   145   ar
   148   185   186    1
   149   185   183   ar
   150   142   140   ar
   151   181   183   ar
   152   145   143   ar
   153   135   125   am
   154   135   136    1
   155   125   126    2
   156    15    14   ar
   157   140   139    1
   158   140   141   ar
   159    16    14   ar
   160   139   136    1
   161    14    13    1
   162   143   141   ar
   163   136   137    1
   164    34    33    1
   165   137   138    2
   166    13    12    1
   167    25    23   ar
   168    33    32    1
   169    24    23   ar
   170    12     9    1
   171    23    22    1
   172    32    31    1
   173     9     8    1
   174     9    10    1
   175     4     3    2
   176     7     6    1
   177     7     1    1
   178    22    21    1
   179    31    30    1
   180     6     5    1
   181    10    11    2
   182    30    27    1
   183     1     2    1
   184    21    18    1
   185     3     2    1
   186     5     2    1
   187    27    28    1
   188    27    26    1
   189    18    17    1
   190    18    19    1
   191    29    28    2
   192    20    19    2
