@<TRIPOS>MOLECULE
tmp/3kleF00.pdb
 105 103 0 0 0
SMALL
GASTEIGER

@<TRIPOS>ATOM
      1  N         -9.2780   38.3630    8.4750 N.3     3  ILE3       -0.1231
      2  CA        -9.1050   37.4840    9.6260 C.3     3  ILE3        0.1692
      3  C         -7.7080   36.9860    9.9830 C.2     3  ILE3        0.2591
      4  O         -7.2060   37.2490   11.0750 O.2     3  ILE3       -0.2718
      5  CB        -9.8930   36.1720    9.4570 C.3     3  ILE3        0.0266
      6  CG1       -9.3970   35.4070    8.2280 C.3     3  ILE3        0.0019
      7  CG2      -11.3830   36.4560    9.3480 C.3     3  ILE3        0.0020
      8  CD1       -9.9650   34.0090    8.1090 C.3     3  ILE3        0.0001
      9  N         -7.0870   36.2660    9.0540 N.am    4  GLU4       -0.1979
     10  CA        -5.7480   35.7300    9.2690 C.3     4  GLU4        0.1602
     11  C         -5.0230   35.8290    7.9320 C.2     4  GLU4        0.2287
     12  O         -5.6520   35.8900    6.8760 O.2     4  GLU4       -0.2864
     13  CB        -5.6620   34.3010    9.8100 C.3     4  GLU4        0.0415
     14  CG        -5.4860   34.2180   11.3180 C.3     4  GLU4        0.1163
     15  CD        -4.2420   34.9370   11.8000 C.2     4  GLU4        0.3649
     16  OE1       -4.0610   36.1200   11.4440 O.co2   4  GLU4       -0.2457
     17  OE2       -3.4450   34.3190   12.5370 O.co2   4  GLU4       -0.2457
     18  N        -11.0160   34.9240   -2.0820 N.3   115  SER115     -0.1202
     19  CA       -11.6110   34.7220   -0.7660 C.3   115  SER115      0.2020
     20  C        -10.6670   35.0010    0.3970 C.2   115  SER115      0.2619
     21  O        -11.0900   35.5500    1.4180 O.2   115  SER115     -0.2717
     22  CB       -12.1270   33.2890   -0.6540 C.3   115  SER115      0.2103
     23  OG       -12.9620   32.9740   -1.7600 O.3   115  SER115     -0.2182
     24  N         -9.4050   34.5990    0.2490 N.am  116  VAL116     -0.1966
     25  CA        -8.4010   34.8160    1.2880 C.3   116  VAL116      0.1712
     26  C         -7.6580   36.1330    1.0730 C.2   116  VAL116      0.2458
     27  O         -7.3080   36.4920   -0.0490 O.2   116  VAL116     -0.2730
     28  CB        -7.3820   33.6720    1.3330 C.3   116  VAL116      0.0289
     29  CG1       -6.3340   33.9420    2.4020 C.3   116  VAL116      0.0023
     30  CG2       -8.1010   32.3730    1.6000 C.3   116  VAL116      0.0023
     31  N         -7.4260   36.8800    2.1560 N.am  117  PRO117     -0.2727
     32  CA        -6.7230   38.1430    2.0220 C.3   117  PRO117      0.1402
     33  C         -5.2480   37.8380    1.9160 C.2   117  PRO117      0.2269
     34  O         -4.7300   36.8950    2.5360 O.2   117  PRO117     -0.2865
     35  CB        -7.0770   38.8550    3.3060 C.3   117  PRO117      0.0296
     36  CG        -7.0330   37.7300    4.2910 C.3   117  PRO117      0.0237
     37  CD        -7.7820   36.6290    3.5650 C.3   117  PRO117      0.0939
     38  N         -1.3860   28.8140   -0.3340 N.3   157  ILE157     -0.1231
     39  CA        -2.1310   29.1870    0.8710 C.3   157  ILE157      0.1692
     40  C         -3.4160   28.3690    1.0700 C.2   157  ILE157      0.2592
     41  O         -3.6020   27.7210    2.1030 O.2   157  ILE157     -0.2718
     42  CB        -2.5210   30.6990    0.8330 C.3   157  ILE157      0.0266
     43  CG1       -1.2670   31.5670    0.6640 C.3   157  ILE157      0.0019
     44  CG2       -3.2790   31.0770    2.1080 C.3   157  ILE157      0.0020
     45  CD1       -0.2730   31.4460    1.7990 C.3   157  ILE157      0.0001
     46  N         -4.2880   28.4260    0.0650 N.am  158  PHE158     -0.1976
     47  CA        -5.5900   27.7470    0.0440 C.3   158  PHE158      0.1639
     48  C         -5.5140   26.2290    0.2150 C.2   158  PHE158      0.2290
     49  O         -6.5270   25.5780    0.4640 O.2   158  PHE158     -0.2864
     50  CB        -6.3010   28.0830   -1.2770 C.3   158  PHE158      0.0560
     51  CG        -7.7780   27.7530   -1.3000 C.ar  158  PHE158     -0.0200
     52  CD1       -8.6870   28.4610   -0.5100 C.ar  158  PHE158     -0.0042
     53  CD2       -8.2620   26.7530   -2.1400 C.ar  158  PHE158     -0.0042
     54  CE1      -10.0500   28.1760   -0.5580 C.ar  158  PHE158     -0.0003
     55  CE2       -9.6250   26.4630   -2.1950 C.ar  158  PHE158     -0.0003
     56  CZ       -10.5180   27.1760   -1.4030 C.ar  158  PHE158     -0.0000
     57  N         -7.3650   24.8790    3.1060 N.3   161  SER161     -0.1217
     58  CA        -8.8020   24.8390    2.8690 C.3   161  SER161      0.1889
     59  C         -9.2000   23.8080    1.8210 C.2   161  SER161      0.2288
     60  O         -9.8930   22.8420    2.1340 O.2   161  SER161     -0.2866
     61  CB        -9.3170   26.2180    2.4290 C.3   161  SER161      0.2089
     62  OG        -9.2440   27.1590    3.4870 O.3   161  SER161     -0.2183
     63  N         -9.6350   20.2770    2.8620 N.3   164  LYS164     -0.1231
     64  CA       -10.8240   20.0270    3.6720 C.3   164  LYS164      0.1693
     65  C        -12.0850   19.9590    2.8040 C.2   164  LYS164      0.2591
     66  O        -12.8780   19.0260    2.9310 O.2   164  LYS164     -0.2718
     67  CB       -10.9840   21.1190    4.7340 C.3   164  LYS164      0.0285
     68  CG        -9.9020   21.0860    5.8190 C.3   164  LYS164      0.0035
     69  CD       -10.1840   22.0890    6.9570 C.3   164  LYS164      0.0206
     70  CE        -9.1420   22.0020    8.0780 C.3   164  LYS164      0.1093
     71  NZ        -9.4350   22.9510    9.1930 N.3   164  LYS164     -0.1314
     72  N        -12.2700   20.9440    1.9260 N.am  165  ILE165     -0.1980
     73  CA       -13.4340   20.9730    1.0350 C.3   165  ILE165      0.1595
     74  C        -13.5600   19.6660    0.2630 C.2   165  ILE165      0.2287
     75  O        -14.6600   19.2360   -0.0790 O.2   165  ILE165     -0.2864
     76  CB       -13.3210   22.1120   -0.0030 C.3   165  ILE165      0.0276
     77  CG1      -13.3980   23.4540    0.7090 C.3   165  ILE165      0.0022
     78  CG2      -14.4260   21.9930   -1.0530 C.3   165  ILE165      0.0022
     79  CD1      -13.1370   24.6360   -0.1860 C.3   165  ILE165      0.0001
     80  N        -19.7780   24.8290   -0.6700 N.3   210  TRP210     -0.1227
     81  CA       -18.7230   25.4740    0.1140 C.3   210  TRP210      0.1737
     82  C        -18.3590   26.8660   -0.4100 C.2   210  TRP210      0.2596
     83  O        -17.2170   27.3270   -0.2560 O.2   210  TRP210     -0.2718
     84  CB       -17.4900   24.5660    0.1660 C.3   210  TRP210      0.0564
     85  CG       -17.7610   23.2180    0.8180 C.ar  210  TRP210      0.0003
     86  CD1      -18.5770   22.2170    0.3460 C.ar  210  TRP210      0.0946
     87  CD2      -17.1920   22.7230    2.0400 C.ar  210  TRP210      0.0152
     88  NE1      -18.5440   21.1350    1.1980 N.ar  210  TRP210     -0.2442
     89  CE2      -17.7010   21.4160    2.2440 C.ar  210  TRP210      0.0810
     90  CE3      -16.2990   23.2550    2.9810 C.ar  210  TRP210      0.0012
     91  CZ2      -17.3420   20.6290    3.3530 C.ar  210  TRP210      0.0191
     92  CZ3      -15.9420   22.4710    4.0860 C.ar  210  TRP210      0.0001
     93  CH2      -16.4650   21.1710    4.2590 C.ar  210  TRP210      0.0015
     94  N        -19.3580   27.5150   -1.0210 N.am  211  GLY211     -0.1942
     95  CA       -19.2290   28.8640   -1.5540 C.3   211  GLY211      0.2014
     96  C        -18.3620   29.0850   -2.7820 C.2   211  GLY211      0.2638
     97  O        -18.2950   30.2090   -3.2820 O.2   211  GLY211     -0.2714
     98  N        -17.7130   28.0310   -3.2810 N.am  212  LEU212     -0.1977
     99  CA       -16.8280   28.1550   -4.4440 C.3   212  LEU212      0.1596
    100  C        -17.5250   28.1290   -5.8040 C.2   212  LEU212      0.2287
    101  O        -18.3040   27.2220   -6.1200 O.2   212  LEU212     -0.2864
    102  CB       -15.7520   27.0660   -4.4160 C.3   212  LEU212      0.0297
    103  CG       -15.0030   26.8030   -3.1030 C.3   212  LEU212      0.0022
    104  CD1      -13.8510   25.8590   -3.4160 C.3   212  LEU212      0.0001
    105  CD2      -14.4880   28.1110   -2.4610 C.3   212  LEU212      0.0001
@<TRIPOS>BOND
     1   101   100    2
     2   100    99    1
     3    99   102    1
     4    99    98    1
     5   102   103    1
     6   104   103    1
     7    97    96    2
     8    98    96   am
     9   103   105    1
    10    96    95    1
    11    55    53   ar
    12    55    56   ar
    13    53    51   ar
    14    18    19    1
    15    23    22    1
    16    95    94    1
    17    56    54   ar
    18    51    50    1
    19    51    52   ar
    20    50    47    1
    21    78    76    1
    22    94    82   am
    23    19    22    1
    24    19    20    1
    25    80    81    1
    26    54    52   ar
    27    82    83    2
    28    82    81    1
    29    38    39    1
    30    79    77    1
    31    75    74    2
    32    27    26    2
    33    76    77    1
    34    76    73    1
    35    47    46    1
    36    47    48    1
    37    46    40   am
    38    81    84    1
    39    84    85    1
    40    48    49    2
    41    24    20   am
    42    24    25    1
    43    74    73    1
    44    86    85   ar
    45    86    88   ar
    46    20    21    2
    47    43    42    1
    48    43    45    1
    49    85    87   ar
    50    42    39    1
    51    42    44    1
    52    39    40    1
    53    73    72    1
    54    40    41    2
    55    26    25    1
    56    26    31   am
    57    88    89   ar
    58    25    28    1
    59    28    30    1
    60    28    29    1
    61    59    60    2
    62    59    58    1
    63    33    32    1
    64    33    34    2
    65    72    65   am
    66    32    31    1
    67    32    35    1
    68    87    89   ar
    69    87    90   ar
    70    31    37    1
    71    89    91   ar
    72    61    58    1
    73    61    62    1
    74    65    66    2
    75    65    64    1
    76    63    64    1
    77    58    57    1
    78    90    92   ar
    79    35    36    1
    80    91    93   ar
    81    37    36    1
    82    64    67    1
    83    92    93   ar
    84    67    68    1
    85    68    69    1
    86    12    11    2
    87    69    70    1
    88    11    10    1
    89    70    71    1
    90     8     6    1
    91     6     5    1
    92     1     2    1
    93     9    10    1
    94     9     3   am
    95    10    13    1
    96     7     5    1
    97     5     2    1
    98     2     3    1
    99    13    14    1
   100     3     4    2
   101    14    15    1
   102    16    15   ar
   103    15    17   ar
