@<TRIPOS>MOLECULE
tmp/3kllA00.pdb
 130 122 0 0 0
SMALL
GASTEIGER

@<TRIPOS>ATOM
      1  N          9.3810    4.6880  -14.1460 N.3   188  LEU188     -0.1245
      2  CA         8.6400    5.4870  -13.2000 C.3   188  LEU188      0.1561
      3  C          8.7430    7.0030  -13.4880 C.2   188  LEU188      0.2260
      4  O          8.5930    7.8100  -12.6040 O.2   188  LEU188     -0.2867
      5  CB         9.1140    5.1560  -11.7660 C.3   188  LEU188      0.0270
      6  CG         8.7280    3.7630  -11.2380 C.3   188  LEU188      0.0019
      7  CD1        8.8980    3.6790   -9.7330 C.3   188  LEU188      0.0001
      8  CD2        7.2710    3.3790  -11.6070 C.3   188  LEU188      0.0001
      9  N         13.4980    2.1270   -8.0540 N.3   227  ALA227     -0.1245
     10  CA        13.7650    3.4560   -8.5930 C.3   227  ALA227      0.1562
     11  C         13.7210    4.5780   -7.5730 C.2   227  ALA227      0.2260
     12  O         12.6730    4.8520   -6.9620 O.2   227  ALA227     -0.2867
     13  CB        12.8080    3.7520   -9.7610 C.3   227  ALA227      0.0290
     14  N         10.5180    9.1470   -8.5350 N.3   230  LEU230     -0.1245
     15  CA         9.1530    8.7750   -8.7080 C.3   230  LEU230      0.1561
     16  C          8.3500   10.0340   -9.1790 C.2   230  LEU230      0.2260
     17  O          7.8100   10.0270  -10.2860 O.2   230  LEU230     -0.2867
     18  CB         8.5890    8.2750   -7.3630 C.3   230  LEU230      0.0270
     19  CG         7.1130    7.9030   -7.2540 C.3   230  LEU230      0.0019
     20  CD1        6.7310    6.8470   -8.3050 C.3   230  LEU230      0.0001
     21  CD2        6.8340    7.3950   -5.8560 C.3   230  LEU230      0.0001
     22  N          4.9810    5.0200    2.7590 N.3   273  ASP273     -0.1225
     23  CA         4.5920    5.2180    1.3820 C.3   273  ASP273      0.1805
     24  C          5.8290    5.1430    0.5240 C.2   273  ASP273      0.2598
     25  O          6.8530    5.6630    0.9190 O.2   273  ASP273     -0.2718
     26  CB         4.0230    6.6310    1.2390 C.3   273  ASP273      0.1424
     27  CG         3.7500    7.0120   -0.2060 C.2   273  ASP273      0.3668
     28  OD1        2.7000    6.5780   -0.7380 O.co2 273  ASP273     -0.2456
     29  OD2        4.5810    7.7370   -0.8160 O.co2 273  ASP273     -0.2456
     30  N          5.7020    4.5470   -0.6600 N.am  274  ALA274     -0.1966
     31  CA         6.7670    4.4930   -1.6740 C.3   274  ALA274      0.1728
     32  C          8.0560    3.8420   -1.1700 C.2   274  ALA274      0.2616
     33  O          9.1620    4.3690   -1.3680 O.2   274  ALA274     -0.2715
     34  CB         7.0560    5.9040   -2.2630 C.3   274  ALA274      0.0334
     35  N          7.9040    2.7330   -0.4650 N.am  275  VAL275     -0.1963
     36  CA         9.0580    2.0740    0.1500 C.3   275  VAL275      0.1727
     37  C         10.1970    1.8630   -0.8790 C.2   275  VAL275      0.2616
     38  O         11.3530    2.2110   -0.5990 O.2   275  VAL275     -0.2715
     39  CB         8.6960    0.7360    0.8180 C.3   275  VAL275      0.0290
     40  CG1        9.9870   -0.0550    1.1940 C.3   275  VAL275      0.0023
     41  CG2        7.8490    0.9650    2.0530 C.3   275  VAL275      0.0023
     42  N          9.8960    1.2940   -2.0450 N.am  276  ASP276     -0.1957
     43  CA        10.9630    0.9780   -3.0290 C.3   276  ASP276      0.1840
     44  C         11.5280    2.2100   -3.7760 C.2   276  ASP276      0.2622
     45  O         12.2440    2.0770   -4.7710 O.2   276  ASP276     -0.2715
     46  CB        10.5010   -0.1020   -4.0020 C.3   276  ASP276      0.1450
     47  CG        10.2010   -1.4170   -3.2950 C.2   276  ASP276      0.3671
     48  OD1       10.7540   -1.6220   -2.1940 O.co2 276  ASP276     -0.2456
     49  OD2        9.4090   -2.2430   -3.8180 O.co2 276  ASP276     -0.2456
     50  N         11.2390    3.4020   -3.2650 N.am  277  ASN277     -0.1972
     51  CA        11.7350    4.6360   -3.8900 C.3   277  ASN277      0.1688
     52  C         12.5090    5.5380   -2.9560 C.2   277  ASN277      0.2292
     53  O         12.7300    6.7490   -3.2600 O.2   277  ASN277     -0.2864
     54  CB        10.5520    5.4330   -4.5200 C.3   277  ASN277      0.1181
     55  CG         9.6040    4.5520   -5.2840 C.2   277  ASN277      0.2629
     56  OD1        8.5010    4.2600   -4.8250 O.2   277  ASN277     -0.2716
     57  ND2       10.0150    4.1270   -6.4660 N.am  277  ASN277     -0.0877
     58  N          4.0900    0.2050    2.0360 N.3   310  GLU310     -0.1245
     59  CA         3.7980    0.1450    0.6140 C.3   310  GLU310      0.1567
     60  C          5.0650   -0.3320   -0.0880 C.2   310  GLU310      0.2260
     61  O          5.7530    0.4520   -0.7290 O.2   310  GLU310     -0.2867
     62  CB         3.3500    1.5050    0.0280 C.3   310  GLU310      0.0388
     63  CG         2.8710    1.3060   -1.4030 C.3   310  GLU310      0.1160
     64  CD         2.8060    2.5850   -2.2850 C.2   310  GLU310      0.3649
     65  OE1        3.3550    3.6650   -1.9700 O.co2 310  GLU310     -0.2457
     66  OE2        2.2060    2.4510   -3.3470 O.co2 310  GLU310     -0.2457
     67  N          6.2500   -2.8380   -2.8630 N.3   312  TRP312     -0.1241
     68  CA         5.7970   -3.6400   -4.0000 C.3   312  TRP312      0.1605
     69  C          6.8070   -4.7500   -4.4070 C.2   312  TRP312      0.2264
     70  O          6.4120   -5.7290   -5.0430 O.2   312  TRP312     -0.2867
     71  CB         5.4750   -2.7440   -5.2130 C.3   312  TRP312      0.0550
     72  CG         4.2690   -1.8350   -4.9540 C.ar  312  TRP312      0.0003
     73  CD1        4.3080   -0.5240   -4.6230 C.ar  312  TRP312      0.0946
     74  CD2        2.8760   -2.2030   -4.9860 C.ar  312  TRP312      0.0152
     75  NE1        3.0230   -0.0280   -4.4580 N.ar  312  TRP312     -0.2442
     76  CE2        2.1290   -1.0380   -4.6870 C.ar  312  TRP312      0.0810
     77  CE3        2.1860   -3.4000   -5.2730 C.ar  312  TRP312      0.0012
     78  CZ2        0.7310   -1.0280   -4.6280 C.ar  312  TRP312      0.0191
     79  CZ3        0.7970   -3.3980   -5.2180 C.ar  312  TRP312      0.0001
     80  CH2        0.0770   -2.1940   -4.9080 C.ar  312  TRP312      0.0015
     81  N          2.1820   -9.2220   -2.0370 N.3   331  ASP331     -0.1239
     82  CA         1.8940   -8.9550   -3.4490 C.3   331  ASP331      0.1674
     83  C          1.8230  -10.2020   -4.3370 C.2   331  ASP331      0.2266
     84  O          1.1060  -10.2050   -5.3390 O.2   331  ASP331     -0.2867
     85  CB         2.8880   -7.9450   -4.0430 C.3   331  ASP331      0.1410
     86  CG         2.3910   -7.3660   -5.3560 C.2   331  ASP331      0.3668
     87  OD1        1.2510   -6.7980   -5.3840 O.co2 331  ASP331     -0.2456
     88  OD2        3.1090   -7.5380   -6.3670 O.co2 331  ASP331     -0.2456
     89  N         -1.9090  -11.0930   -3.6730 N.3   334  ARG334     -0.1245
     90  CA        -2.8650  -10.1600   -4.3640 C.3   334  ARG334      0.1563
     91  C         -2.8530  -10.4910   -5.8570 C.2   334  ARG334      0.2260
     92  O         -3.8890  -10.5870   -6.4820 O.2   334  ARG334     -0.2867
     93  CB        -2.5130   -8.6880   -4.1640 C.3   334  ARG334      0.0307
     94  CG        -3.6030   -7.7120   -4.8170 C.3   334  ARG334      0.0489
     95  CD        -3.1810   -6.2450   -4.7770 C.3   334  ARG334      0.2205
     96  NE        -1.9300   -6.1180   -5.5100 N.pl3 334  ARG334     -0.0865
     97  CZ        -1.8250   -6.0060   -6.8410 C.cat 334  ARG334      0.5346
     98  NH1       -2.9120   -5.8840   -7.6050 N.pl3 334  ARG334      0.1354
     99  NH2       -0.6220   -5.9560   -7.4030 N.pl3 334  ARG334      0.1354
    100  N         -4.7160    3.6320   -5.3350 N.3   381  ASP381     -0.1225
    101  CA        -3.8790    3.5800   -6.5710 C.3   381  ASP381      0.1805
    102  C         -3.5490    2.1510   -7.1090 C.2   381  ASP381      0.2598
    103  O         -2.5230    1.9340   -7.8150 O.2   381  ASP381     -0.2718
    104  CB        -2.5370    4.3110   -6.3340 C.3   381  ASP381      0.1424
    105  CG        -1.6780    3.6310   -5.2350 C.2   381  ASP381      0.3668
    106  OD1       -2.1840    2.6760   -4.5960 O.co2 381  ASP381     -0.2456
    107  OD2       -0.5240    4.0530   -5.0070 O.co2 381  ASP381     -0.2456
    108  N         -4.3400    1.1730   -6.7380 N.am  382  SER382     -0.1938
    109  CA        -4.1590   -0.1450   -7.2740 C.3   382  SER382      0.2055
    110  C         -5.4760   -0.6090   -7.8130 C.2   382  SER382      0.2643
    111  O         -6.3640   -0.9540   -7.0510 O.2   382  SER382     -0.2714
    112  CB        -3.5940   -1.1160   -6.2030 C.3   382  SER382      0.2130
    113  OG        -3.6160   -2.4240   -6.7170 O.3   382  SER382     -0.2179
    114  N         -5.5810   -0.6140   -9.1430 N.am  383  ASN383     -0.1971
    115  CA        -6.7910   -0.9330   -9.8470 C.3   383  ASN383      0.1688
    116  C         -7.9560   -0.0180   -9.4990 C.2   383  ASN383      0.2292
    117  O         -9.0980   -0.4730   -9.4280 O.2   383  ASN383     -0.2864
    118  CB        -7.1860   -2.4110   -9.6820 C.3   383  ASN383      0.1181
    119  CG        -6.3710   -3.3170  -10.5870 C.2   383  ASN383      0.2629
    120  OD1       -6.4140   -3.1890  -11.8010 O.2   383  ASN383     -0.2716
    121  ND2       -5.6020   -4.2250   -9.9870 N.am  383  ASN383     -0.0877
    122  N         -7.2630    4.1780   -9.6230 N.3   385  GLN385     -0.1245
    123  CA        -7.0090    5.4670  -10.2970 C.3   385  GLN385      0.1566
    124  C         -6.8160    5.4010  -11.8340 C.2   385  GLN385      0.2260
    125  O         -7.2340    6.3190  -12.5410 O.2   385  GLN385     -0.2867
    126  CB        -5.8620    6.2310   -9.6430 C.3   385  GLN385      0.0367
    127  CG        -4.4610    5.6320   -9.8510 C.3   385  GLN385      0.0905
    128  CD        -3.4240    6.3660   -9.0440 C.2   385  GLN385      0.2608
    129  OE1       -3.7620    7.0750   -8.1060 O.2   385  GLN385     -0.2717
    130  NE2       -2.1430    6.1960   -9.3960 N.am  385  GLN385     -0.0878
@<TRIPOS>BOND
     1     1     2    1
     2     3     2    1
     3     3     4    2
     4     2     5    1
     5   125   124    2
     6   124   123    1
     7   120   119    2
     8     5     6    1
     9     8     6    1
    10     6     7    1
    11   119   121   am
    12   119   118    1
    13   123   126    1
    14   123   122    1
    15    17    16    2
    16   127   126    1
    17   127   128    1
    18   115   118    1
    19   115   116    1
    20   115   114    1
    21    13    10    1
    22   116   117    2
    23   130   128   am
    24    16    15    1
    25   114   110   am
    26   128   129    2
    27    15    14    1
    28    15    18    1
    29    10     9    1
    30    10    11    1
    31    20    19    1
    32   103   102    2
    33   110   109    1
    34   110   111    2
    35    98    97    1
    36    11    12    2
    37    99    97    1
    38    18    19    1
    39   109   108    1
    40   109   112    1
    41    19    21    1
    42   102   108   am
    43   102   101    1
    44    97    96    2
    45   113   112    1
    46   101   104    1
    47   101   100    1
    48    92    91    2
    49    57    55   am
    50    88    86   ar
    51   104   105    1
    52    91    90    1
    53    96    95    1
    54    87    86   ar
    55    86    85    1
    56    84    83    2
    57    55    56    2
    58    55    54    1
    59    77    79   ar
    60    77    74   ar
    61   105   107   ar
    62   105   106   ar
    63    79    80   ar
    64    71    72    1
    65    71    68    1
    66    70    69    2
    67    74    72   ar
    68    74    76   ar
    69    72    73   ar
    70    80    78   ar
    71    94    95    1
    72    94    93    1
    73    45    44    2
    74    76    78   ar
    75    76    75   ar
    76    73    75   ar
    77    54    51    1
    78    69    68    1
    79    90    93    1
    80    90    89    1
    81    83    82    1
    82    85    82    1
    83    46    47    1
    84    46    43    1
    85    68    67    1
    86    51    50    1
    87    51    52    1
    88    49    47   ar
    89    44    50   am
    90    44    43    1
    91    82    81    1
    92    66    64   ar
    93    47    48   ar
    94    53    52    2
    95    43    42    1
    96    64    65   ar
    97    64    63    1
    98    34    31    1
    99    42    37   am
   100    31    32    1
   101    31    30    1
   102    63    62    1
   103    33    32    2
   104    32    35   am
   105    37    38    2
   106    37    36    1
   107    29    27   ar
   108    28    27   ar
   109    61    60    2
   110    30    24   am
   111    35    36    1
   112    27    26    1
   113    60    59    1
   114    62    59    1
   115    36    39    1
   116    24    25    2
   117    24    23    1
   118    59    58    1
   119    39    40    1
   120    39    41    1
   121    26    23    1
   122    23    22    1
