@<TRIPOS>MOLECULE
tmp/3kllA01.pdb
 99 100 0 0 0
SMALL
GASTEIGER

@<TRIPOS>ATOM
      1  N          9.3810    4.6880  -14.1460 N.3   188  LEU188     -0.1245
      2  CA         8.6400    5.4870  -13.2000 C.3   188  LEU188      0.1561
      3  C          8.7430    7.0030  -13.4880 C.2   188  LEU188      0.2260
      4  O          8.5930    7.8100  -12.6040 O.2   188  LEU188     -0.2867
      5  CB         9.1140    5.1560  -11.7660 C.3   188  LEU188      0.0270
      6  CG         8.7280    3.7630  -11.2380 C.3   188  LEU188      0.0019
      7  CD1        8.8980    3.6790   -9.7330 C.3   188  LEU188      0.0001
      8  CD2        7.2710    3.3790  -11.6070 C.3   188  LEU188      0.0001
      9  N         20.9470   -3.1370   -8.5220 N.3   224  TYR224     -0.1227
     10  CA        20.1620   -2.1190   -9.2320 C.3   224  TYR224      0.1736
     11  C         19.2010   -1.3470   -8.2920 C.2   224  TYR224      0.2596
     12  O         19.1800   -0.0900   -8.2960 O.2   224  TYR224     -0.2718
     13  CB        19.4200   -2.7580  -10.4040 C.3   224  TYR224      0.0548
     14  CG        18.8770   -1.7500  -11.3900 C.ar  224  TYR224     -0.0200
     15  CD1       19.7010   -0.7510  -11.9230 C.ar  224  TYR224     -0.0009
     16  CD2       17.5450   -1.8080  -11.8070 C.ar  224  TYR224     -0.0009
     17  CE1       19.2140    0.1680  -12.8470 C.ar  224  TYR224      0.0417
     18  CE2       17.0520   -0.8900  -12.7280 C.ar  224  TYR224      0.0417
     19  CZ        17.8820    0.1110  -13.2180 C.ar  224  TYR224      0.1957
     20  OH        17.4020    1.0300  -14.1490 O.3   224  TYR224     -0.2866
     21  N         18.4360   -2.0990   -7.5060 N.am  225  GLY225     -0.1942
     22  CA        17.5700   -1.5540   -6.4730 C.3   225  GLY225      0.2014
     23  C         16.2870   -1.0320   -7.1070 C.2   225  GLY225      0.2639
     24  O         16.1390   -1.0830   -8.3250 O.2   225  GLY225     -0.2714
     25  N         15.3500   -0.5660   -6.2950 N.am  226  GLY226     -0.1939
     26  CA        14.1350    0.0870   -6.8470 C.3   226  GLY226      0.2014
     27  C         14.4240    1.5110   -7.3220 C.2   226  GLY226      0.2638
     28  O         15.4590    2.0690   -7.0100 O.2   226  GLY226     -0.2714
     29  N         13.4980    2.1270   -8.0540 N.am  227  ALA227     -0.1977
     30  CA        13.7650    3.4560   -8.5930 C.3   227  ALA227      0.1597
     31  C         13.7210    4.5780   -7.5730 C.2   227  ALA227      0.2287
     32  O         12.6730    4.8520   -6.9620 O.2   227  ALA227     -0.2864
     33  CB        12.8080    3.7520   -9.7610 C.3   227  ALA227      0.0319
     34  N          9.8960    1.2940   -2.0450 N.3   276  ASP276     -0.1225
     35  CA        10.9630    0.9780   -3.0290 C.3   276  ASP276      0.1805
     36  C         11.5280    2.2100   -3.7760 C.2   276  ASP276      0.2597
     37  O         12.2440    2.0770   -4.7710 O.2   276  ASP276     -0.2718
     38  CB        10.5010   -0.1020   -4.0020 C.3   276  ASP276      0.1424
     39  CG        10.2010   -1.4170   -3.2950 C.2   276  ASP276      0.3668
     40  OD1       10.7540   -1.6220   -2.1940 O.co2 276  ASP276     -0.2456
     41  OD2        9.4090   -2.2430   -3.8180 O.co2 276  ASP276     -0.2456
     42  N         11.2390    3.4020   -3.2650 N.am  277  ASN277     -0.1974
     43  CA        11.7350    4.6360   -3.8900 C.3   277  ASN277      0.1688
     44  C         12.5090    5.5380   -2.9560 C.2   277  ASN277      0.2292
     45  O         12.7300    6.7490   -3.2600 O.2   277  ASN277     -0.2864
     46  CB        10.5520    5.4330   -4.5200 C.3   277  ASN277      0.1181
     47  CG         9.6040    4.5520   -5.2840 C.2   277  ASN277      0.2629
     48  OD1        8.5010    4.2600   -4.8250 O.2   277  ASN277     -0.2716
     49  ND2       10.0150    4.1270   -6.4660 N.am  277  ASN277     -0.0877
     50  N          6.2500   -2.8380   -2.8630 N.3   312  TRP312     -0.1227
     51  CA         5.7970   -3.6400   -4.0000 C.3   312  TRP312      0.1737
     52  C          6.8070   -4.7500   -4.4070 C.2   312  TRP312      0.2596
     53  O          6.4120   -5.7290   -5.0430 O.2   312  TRP312     -0.2718
     54  CB         5.4750   -2.7440   -5.2130 C.3   312  TRP312      0.0564
     55  CG         4.2690   -1.8350   -4.9540 C.ar  312  TRP312      0.0003
     56  CD1        4.3080   -0.5240   -4.6230 C.ar  312  TRP312      0.0946
     57  CD2        2.8760   -2.2030   -4.9860 C.ar  312  TRP312      0.0152
     58  NE1        3.0230   -0.0280   -4.4580 N.ar  312  TRP312     -0.2442
     59  CE2        2.1290   -1.0380   -4.6870 C.ar  312  TRP312      0.0810
     60  CE3        2.1860   -3.4000   -5.2730 C.ar  312  TRP312      0.0012
     61  CZ2        0.7310   -1.0280   -4.6280 C.ar  312  TRP312      0.0191
     62  CZ3        0.7970   -3.3980   -5.2180 C.ar  312  TRP312      0.0001
     63  CH2        0.0770   -2.1940   -4.9080 C.ar  312  TRP312      0.0015
     64  N          8.0750   -4.6040   -4.0300 N.am  313  GLY313     -0.1942
     65  CA         9.1320   -5.5160   -4.5470 C.3   313  GLY313      0.2014
     66  C          9.0090   -6.8960   -3.9580 C.2   313  GLY313      0.2638
     67  O          8.8340   -7.0460   -2.7690 O.2   313  GLY313     -0.2714
     68  N          9.0590   -7.9240   -4.7910 N.am  314  TRP314     -0.1973
     69  CA         8.8240   -9.2890   -4.2980 C.3   314  TRP314      0.1640
     70  C          9.9470   -9.8570   -3.3750 C.2   314  TRP314      0.2290
     71  O          9.7230  -10.8330   -2.6380 O.2   314  TRP314     -0.2864
     72  CB         8.5100  -10.2410   -5.4650 C.3   314  TRP314      0.0576
     73  CG         7.1010  -10.2250   -5.9690 C.ar  314  TRP314      0.0006
     74  CD1        6.2170   -9.1470   -5.9800 C.ar  314  TRP314      0.0946
     75  CD2        6.4170  -11.3000   -6.6160 C.ar  314  TRP314      0.0152
     76  NE1        5.0340   -9.5130   -6.5800 N.ar  314  TRP314     -0.2442
     77  CE2        5.1300  -10.8200   -6.9870 C.ar  314  TRP314      0.0810
     78  CE3        6.7730  -12.6240   -6.9440 C.ar  314  TRP314      0.0012
     79  CZ2        4.1990  -11.6260   -7.6310 C.ar  314  TRP314      0.0191
     80  CZ3        5.8590  -13.4210   -7.5760 C.ar  314  TRP314      0.0001
     81  CH2        4.5800  -12.9230   -7.9220 C.ar  314  TRP314      0.0015
     82  N         14.7860    6.7840  -14.0850 N.3   764  ASP764     -0.1225
     83  CA        14.2160    6.7100  -12.7350 C.3   764  ASP764      0.1805
     84  C         15.1880    6.1570  -11.6720 C.2   764  ASP764      0.2597
     85  O         14.9000    6.2250  -10.4680 O.2   764  ASP764     -0.2718
     86  CB        12.8550    5.9790  -12.7180 C.3   764  ASP764      0.1424
     87  CG        12.9270    4.4920  -13.1270 C.2   764  ASP764      0.3668
     88  OD1       14.0170    3.8530  -13.1580 O.co2 764  ASP764     -0.2456
     89  OD2       11.8410    3.9250  -13.3760 O.co2 764  ASP764     -0.2456
     90  N         16.3440    5.6770  -12.1390 N.am  765  HIS765     -0.1975
     91  CA        17.4330    5.2340  -11.2540 C.3   765  HIS765      0.1656
     92  C         18.5980    6.2230  -11.2550 C.2   765  HIS765      0.2291
     93  O         19.6570    5.9590  -10.6580 O.2   765  HIS765     -0.2864
     94  CB        17.8980    3.8130  -11.6420 C.3   765  HIS765      0.0771
     95  CG        16.9450    2.7460  -11.2160 C.ar  765  HIS765      0.0820
     96  ND1       17.2780    1.7570  -10.3030 N.ar  765  HIS765     -0.2267
     97  CD2       15.6700    2.4990  -11.5880 C.ar  765  HIS765      0.1154
     98  CE1       16.2360    0.9640  -10.1230 C.ar  765  HIS765      0.1986
     99  NE2       15.2460    1.3980  -10.8900 N.ar  765  HIS765     -0.2212
@<TRIPOS>BOND
     1    20    19    1
     2     1     2    1
     3    82    83    1
     4     3     2    1
     5     3     4    2
     6    89    87   ar
     7    19    17   ar
     8    19    18   ar
     9     2     5    1
    10    88    87   ar
    11    87    86    1
    12    17    15   ar
    13    83    86    1
    14    83    84    1
    15    18    16   ar
    16    90    84   am
    17    90    91    1
    18    15    14   ar
    19    16    14   ar
    20     5     6    1
    21    84    85    2
    22    94    91    1
    23    94    95    1
    24     8     6    1
    25    97    95   ar
    26    97    99   ar
    27    14    13    1
    28    92    91    1
    29    92    93    2
    30     6     7    1
    31    95    96   ar
    32    99    98   ar
    33    13    10    1
    34    96    98   ar
    35    33    30    1
    36    10     9    1
    37    10    11    1
    38    30    29    1
    39    30    31    1
    40    24    23    2
    41    12    11    2
    42    11    21   am
    43    29    27   am
    44    81    79   ar
    45    81    80   ar
    46    79    77   ar
    47    80    78   ar
    48    31    32    2
    49    21    22    1
    50    27    28    2
    51    27    26    1
    52    23    22    1
    53    23    25   am
    54    77    75   ar
    55    77    76   ar
    56    78    75   ar
    57    26    25    1
    58    75    73   ar
    59    76    74   ar
    60    49    47   am
    61    74    73   ar
    62    73    72    1
    63    72    69    1
    64    47    48    2
    65    47    46    1
    66    60    62   ar
    67    60    57   ar
    68    62    63   ar
    69    54    55    1
    70    54    51    1
    71    53    52    2
    72    57    55   ar
    73    57    59   ar
    74    55    56   ar
    75    63    61   ar
    76    68    69    1
    77    68    66   am
    78    37    36    2
    79    59    61   ar
    80    59    58   ar
    81    56    58   ar
    82    65    64    1
    83    65    66    1
    84    46    43    1
    85    52    64   am
    86    52    51    1
    87    69    70    1
    88    38    39    1
    89    38    35    1
    90    51    50    1
    91    66    67    2
    92    43    42    1
    93    43    44    1
    94    41    39   ar
    95    36    42   am
    96    36    35    1
    97    70    71    2
    98    39    40   ar
    99    45    44    2
   100    35    34    1
