@<TRIPOS>MOLECULE
tmp/3kloA00.pdb
 103 101 0 0 0
SMALL
GASTEIGER

@<TRIPOS>ATOM
      1  N        -69.3740   12.9680   16.6950 N.3   108  TYR108     -0.1241
      2  CA       -70.8210   12.9650   16.5710 C.3   108  TYR108      0.1605
      3  C        -71.4930   12.1150   17.6290 C.2   108  TYR108      0.2264
      4  O        -70.8780   11.2220   18.2060 O.2   108  TYR108     -0.2867
      5  CB       -71.2430   12.5530   15.1530 C.3   108  TYR108      0.0534
      6  CG       -70.8550   13.5870   14.1230 C.ar  108  TYR108     -0.0201
      7  CD1      -71.6000   14.7440   13.9660 C.ar  108  TYR108     -0.0009
      8  CD2      -69.7230   13.4290   13.3410 C.ar  108  TYR108     -0.0009
      9  CE1      -71.2380   15.7000   13.0520 C.ar  108  TYR108      0.0417
     10  CE2      -69.3530   14.3880   12.4260 C.ar  108  TYR108      0.0417
     11  CZ       -70.1170   15.5180   12.2880 C.ar  108  TYR108      0.1957
     12  OH       -69.7700   16.4830   11.3780 O.3   108  TYR108     -0.2866
     13  N        -63.1340    5.7370   17.4930 N.3   115  THR115     -0.1218
     14  CA       -63.0950    6.9260   16.6620 C.3   115  THR115      0.1862
     15  C        -62.6180    8.1440   17.4610 C.2   115  THR115      0.2287
     16  O        -61.7590    8.8910   17.0050 O.2   115  THR115     -0.2866
     17  CB       -64.4480    7.1660   15.9670 C.3   115  THR115      0.1770
     18  OG1      -64.4440    6.5160   14.6910 O.3   115  THR115     -0.2211
     19  CG2      -64.7040    8.6490   15.7580 C.3   115  THR115      0.0375
     20  N        -58.8900    7.8700   17.8860 N.3   118  LYS118     -0.1245
     21  CA       -58.1650    8.0020   16.6340 C.3   118  LYS118      0.1561
     22  C        -58.0980    9.4750   16.2520 C.2   118  LYS118      0.2260
     23  O        -57.0390    9.9960   15.9240 O.2   118  LYS118     -0.2867
     24  CB       -58.8440    7.1940   15.5220 C.3   118  LYS118      0.0271
     25  CG       -58.1800    7.3700   14.1780 C.3   118  LYS118      0.0035
     26  CD       -58.6910    6.3770   13.1710 C.3   118  LYS118      0.0206
     27  CE       -57.9570    6.5500   11.8490 C.3   118  LYS118      0.1093
     28  NZ       -58.6090    5.8000   10.7260 N.3   118  LYS118     -0.1314
     29  N        -55.0710   12.4560   16.2920 N.3   122  LYS122     -0.1245
     30  CA       -54.6470   13.2120   15.1220 C.3   122  LYS122      0.1561
     31  C        -54.7010   14.7260   15.3880 C.2   122  LYS122      0.2260
     32  O        -53.7840   15.4660   15.0220 O.2   122  LYS122     -0.2867
     33  CB       -55.4310   12.8010   13.8810 C.3   122  LYS122      0.0271
     34  CG       -55.3080   11.3170   13.6040 C.3   122  LYS122      0.0035
     35  CD       -55.3900   10.9910   12.1070 C.3   122  LYS122      0.0206
     36  CE       -54.7760    9.6070   11.8090 C.3   122  LYS122      0.1093
     37  NZ       -53.6250    9.2340   12.7320 N.3   122  LYS122     -0.1314
     38  N        -53.3810   17.8030   13.3050 N.3   127  GLU127     -0.1231
     39  CA       -54.2480   17.5310   12.1640 C.3   127  GLU127      0.1699
     40  C        -55.6680   17.9520   12.5230 C.2   127  GLU127      0.2592
     41  O        -55.9600   18.2110   13.6910 O.2   127  GLU127     -0.2718
     42  CB       -54.1960   16.0470   11.8170 C.3   127  GLU127      0.0402
     43  CG       -52.7630   15.5530   11.6480 C.3   127  GLU127      0.1161
     44  CD       -52.6450   14.1160   11.1450 C.2   127  GLU127      0.3649
     45  OE1      -51.4920   13.6460   10.9750 O.co2 127  GLU127     -0.2457
     46  OE2      -53.6850   13.4510   10.9270 O.co2 127  GLU127     -0.2457
     47  N        -56.5530   18.0430   11.5410 N.am  128  MET128     -0.1965
     48  CA       -57.9580   18.2960   11.8460 C.3   128  MET128      0.1736
     49  C        -58.7560   17.0170   11.7280 C.2   128  MET128      0.2616
     50  O        -58.3670   16.0990   11.0220 O.2   128  MET128     -0.2715
     51  CB       -58.5480   19.3530   10.9160 C.3   128  MET128      0.0427
     52  CG       -57.8090   20.6680   10.9850 C.3   128  MET128      0.0599
     53  SD       -58.6360   21.9990   10.1120 S.3   128  MET128     -0.1393
     54  CE       -59.9200   22.4590   11.2560 C.3   128  MET128      0.0692
     55  N        -59.8700   16.9490   12.4340 N.am  129  TRP129     -0.1960
     56  CA       -60.7490   15.8040   12.3180 C.3   129  TRP129      0.1771
     57  C        -62.0990   16.2990   11.8410 C.2   129  TRP129      0.2620
     58  O        -63.0890   16.2270   12.5700 O.2   129  TRP129     -0.2715
     59  CB       -60.9000   15.1020   13.6610 C.3   129  TRP129      0.0590
     60  CG       -61.5700   13.7810   13.5740 C.ar  129  TRP129      0.0006
     61  CD1      -62.8280   13.4790   13.9660 C.ar  129  TRP129      0.0946
     62  CD2      -61.0010   12.5670   13.0560 C.ar  129  TRP129      0.0152
     63  NE1      -63.0930   12.1550   13.7200 N.ar  129  TRP129     -0.2442
     64  CE2      -62.0010   11.5830   13.1700 C.ar  129  TRP129      0.0810
     65  CE3      -59.7630   12.2360   12.5140 C.ar  129  TRP129      0.0012
     66  CZ2      -61.7690   10.2710   12.7590 C.ar  129  TRP129      0.0191
     67  CZ3      -59.5490   10.9460   12.1040 C.ar  129  TRP129      0.0001
     68  CH2      -60.5440    9.9740   12.2320 C.ar  129  TRP129      0.0015
     69  N        -62.1390   16.8190   10.6230 N.am  130  LEU130     -0.1963
     70  CA       -63.4000   17.2850   10.0560 C.3   130  LEU130      0.1728
     71  C        -63.8320   16.3700    8.9430 C.2   130  LEU130      0.2617
     72  O        -63.0200   15.7340    8.2750 O.2   130  LEU130     -0.2715
     73  CB       -63.2810   18.7020    9.5070 C.3   130  LEU130      0.0311
     74  CG       -62.8010   19.7710   10.4830 C.3   130  LEU130      0.0022
     75  CD1      -62.4120   21.0380    9.7330 C.3   130  LEU130      0.0001
     76  CD2      -63.8590   20.0400   11.5110 C.3   130  LEU130      0.0001
     77  N        -65.1320   16.3120    8.7440 N.am  131  THR131     -0.1937
     78  CA       -65.7050   15.4810    7.7070 C.3   131  THR131      0.2028
     79  C        -65.3550   16.0870    6.3480 C.2   131  THR131      0.2642
     80  O        -64.9980   17.2600    6.2650 O.2   131  THR131     -0.2714
     81  CB       -67.2080   15.4350    7.9040 C.3   131  THR131      0.1808
     82  OG1      -67.6690   14.0960    7.7380 O.3   131  THR131     -0.2208
     83  CG2      -67.8900   16.3620    6.9510 C.3   131  THR131      0.0379
     84  N        -65.4310   15.3020    5.2810 N.am  132  ARG132     -0.1963
     85  CA       -65.1350   15.8470    3.9530 C.3   132  ARG132      0.1729
     86  C        -66.0650   17.0120    3.6150 C.2   132  ARG132      0.2616
     87  O        -65.6100   18.1250    3.3510 O.2   132  ARG132     -0.2715
     88  CB       -65.2340   14.7730    2.8760 C.3   132  ARG132      0.0348
     89  CG       -64.1970   13.6700    2.9960 C.3   132  ARG132      0.0492
     90  CD       -62.8280   14.1320    2.6120 C.3   132  ARG132      0.2205
     91  NE       -61.8880   13.0260    2.5720 N.pl3 132  ARG132     -0.0865
     92  CZ       -60.5840   13.1710    2.3580 C.cat 132  ARG132      0.5346
     93  NH1      -60.0770   14.3780    2.1560 N.pl3 132  ARG132      0.1354
     94  NH2      -59.7900   12.1120    2.3410 N.pl3 132  ARG132      0.1354
     95  N        -67.3690   16.7590    3.6310 N.am  133  LYS133     -0.1977
     96  CA       -68.3280   17.8200    3.3530 C.3   133  LYS133      0.1596
     97  C        -68.0410   19.0410    4.2110 C.2   133  LYS133      0.2287
     98  O        -67.9230   20.1540    3.7020 O.2   133  LYS133     -0.2864
     99  CB       -69.7540   17.3400    3.5840 C.3   133  LYS133      0.0298
    100  CG       -70.1550   16.1530    2.7180 C.3   133  LYS133      0.0038
    101  CD       -70.8670   16.5780    1.4310 C.3   133  LYS133      0.0206
    102  CE       -71.7130   15.4220    0.8680 C.3   133  LYS133      0.1093
    103  NZ       -72.9340   15.9090    0.1340 N.3   133  LYS133     -0.1314
@<TRIPOS>BOND
     1   103   102    1
     2   102   101    1
     3   101   100    1
     4    93    92    1
     5    94    92    1
     6    92    91    2
     7    91    90    1
     8    90    89    1
     9   100    99    1
    10    88    89    1
    11    88    85    1
    12    87    86    2
    13    96    99    1
    14    96    95    1
    15    96    97    1
    16    86    95   am
    17    86    85    1
    18    98    97    2
    19    85    84    1
    20    84    79   am
    21    80    79    2
    22    79    78    1
    23    83    81    1
    24    78    81    1
    25    78    77    1
    26    82    81    1
    27    72    71    2
    28    77    71   am
    29    71    70    1
    30    73    70    1
    31    73    74    1
    32    75    74    1
    33    70    69    1
    34    53    52    1
    35    53    54    1
    36    74    76    1
    37    69    57   am
    38    28    27    1
    39    51    52    1
    40    51    48    1
    41    46    44   ar
    42    45    44   ar
    43    50    49    2
    44    44    43    1
    45    12    11    1
    46    47    48    1
    47    47    40   am
    48    43    42    1
    49    49    48    1
    50    49    55   am
    51    36    35    1
    52    36    37    1
    53    42    39    1
    54    57    56    1
    55    57    58    2
    56    27    26    1
    57    67    68   ar
    58    67    65   ar
    59    35    34    1
    60    39    40    1
    61    39    38    1
    62    68    66   ar
    63    11    10   ar
    64    11     9   ar
    65    56    55    1
    66    56    59    1
    67    10     8   ar
    68    65    62   ar
    69    40    41    2
    70    66    64   ar
    71     9     7   ar
    72    62    64   ar
    73    62    60   ar
    74    64    63   ar
    75    26    25    1
    76     8     6   ar
    77    60    59    1
    78    60    61   ar
    79    34    33    1
    80    63    61   ar
    81    33    30    1
    82     7     6   ar
    83     6     5    1
    84    25    24    1
    85    18    17    1
    86    32    31    2
    87    30    31    1
    88    30    29    1
    89     5     2    1
    90    24    21    1
    91    19    17    1
    92    23    22    2
    93    17    14    1
    94    22    21    1
    95     2     1    1
    96     2     3    1
    97    21    20    1
    98    14    15    1
    99    14    13    1
   100    16    15    2
   101     3     4    2
