@<TRIPOS>MOLECULE
tmp/3km4B03.pdb
 187 181 0 0 0
SMALL
GASTEIGER

@<TRIPOS>ATOM
      1  N         46.1290  -25.6260  -18.6510 N.3    12  TYR12      -0.1227
      2  CA        45.7580  -24.5460  -17.7530 C.3    12  TYR12       0.1736
      3  C         44.4920  -24.9600  -17.0530 C.2    12  TYR12       0.2595
      4  O         43.4170  -24.9840  -17.7030 O.2    12  TYR12      -0.2718
      5  CB        45.5600  -23.2820  -18.5050 C.3    12  TYR12       0.0548
      6  CG        44.8050  -22.1590  -17.7740 C.ar   12  TYR12      -0.0200
      7  CD1       45.4580  -21.3110  -16.8500 C.ar   12  TYR12      -0.0009
      8  CD2       43.4700  -21.9240  -18.0220 C.ar   12  TYR12      -0.0009
      9  CE1       44.7530  -20.2770  -16.2070 C.ar   12  TYR12       0.0417
     10  CE2       42.7680  -20.8740  -17.3720 C.ar   12  TYR12       0.0417
     11  CZ        43.4320  -20.0810  -16.4650 C.ar   12  TYR12       0.1957
     12  OH        42.7600  -19.0350  -15.8110 O.3    12  TYR12      -0.2866
     13  N         44.6330  -25.2930  -15.7530 N.am   13  MET13      -0.1965
     14  CA        43.5210  -25.4830  -14.8530 C.3    13  MET13       0.1736
     15  C         42.4160  -26.4090  -15.3550 C.2    13  MET13       0.2616
     16  O         41.2470  -26.1870  -15.1170 O.2    13  MET13      -0.2715
     17  CB        42.9630  -24.1160  -14.4280 C.3    13  MET13       0.0427
     18  CG        44.1320  -23.2380  -13.8600 C.3    13  MET13       0.0599
     19  SD        43.4610  -21.7250  -13.1450 S.3    13  MET13      -0.1393
     20  CE        42.7560  -22.3570  -11.5860 C.3    13  MET13       0.0692
     21  N         42.8430  -27.4960  -15.9730 N.am   14  ASP14      -0.1957
     22  CA        41.9690  -28.5320  -16.5080 C.3    14  ASP14       0.1840
     23  C         40.9270  -28.1460  -17.5550 C.2    14  ASP14       0.2623
     24  O         40.0690  -28.9680  -17.8830 O.2    14  ASP14      -0.2715
     25  CB        41.3380  -29.3520  -15.3650 C.3    14  ASP14       0.1450
     26  CG        42.4060  -30.1490  -14.5960 C.2    14  ASP14       0.3671
     27  OD1       43.3620  -30.5580  -15.2380 O.co2  14  ASP14      -0.2456
     28  OD2       42.2940  -30.3470  -13.3860 O.co2  14  ASP14      -0.2456
     29  N         41.0330  -26.9380  -18.1320 N.am   15  THR15      -0.1937
     30  CA        40.0120  -26.4180  -19.0920 C.3    15  THR15       0.2028
     31  C         40.5620  -25.8450  -20.4080 C.2    15  THR15       0.2638
     32  O         39.8210  -25.7550  -21.4340 O.2    15  THR15      -0.2714
     33  CB        39.0340  -25.3870  -18.4440 C.3    15  THR15       0.1808
     34  OG1       39.7360  -24.1980  -18.0080 O.3    15  THR15      -0.2208
     35  CG2       38.2630  -26.0530  -17.2700 C.3    15  THR15       0.0379
     36  N         41.8730  -25.5510  -20.4120 N.am   16  GLN16      -0.2030
     37  CA        42.5350  -25.0880  -21.6180 C.3    16  GLN16       0.1287
     38  C         43.7830  -25.9590  -21.8210 C.3    16  GLN16       0.2036
     39  O         44.6570  -26.1700  -20.8920 O.3    16  GLN16      -0.2185
     40  CB        42.8410  -23.5760  -21.6480 C.3    16  GLN16       0.0340
     41  CG        41.6220  -22.6740  -21.5250 C.3    16  GLN16       0.0904
     42  CD        41.9410  -21.2280  -21.4360 C.2    16  GLN16       0.2608
     43  OE1       42.9240  -20.7860  -21.9670 O.2    16  GLN16      -0.2717
     44  NE2       41.0950  -20.4730  -20.7740 N.am   16  GLN16      -0.0878
     45  N         30.9700  -19.0700  -28.9760 N.3    82  THR82      -0.1218
     46  CA        31.1850  -17.9100  -28.1510 C.3    82  THR82       0.1862
     47  C         30.9660  -16.6460  -28.9160 C.2    82  THR82       0.2287
     48  O         30.8840  -15.5790  -28.3550 O.2    82  THR82      -0.2866
     49  CB        32.5750  -17.8720  -27.6320 C.3    82  THR82       0.1770
     50  OG1       33.4580  -18.1960  -28.6750 O.3    82  THR82      -0.2211
     51  CG2       32.7310  -18.8580  -26.5220 C.3    82  THR82       0.0375
     52  N         34.7310  -10.8990  -24.1910 N.3   114  LEU114     -0.1231
     53  CA        34.0260  -12.1400  -23.9390 C.3   114  LEU114      0.1678
     54  C         34.0040  -12.8010  -25.2840 C.2   114  LEU114      0.2434
     55  O         33.2440  -12.3670  -26.2040 O.2   114  LEU114     -0.2733
     56  CB        32.5960  -11.9500  -23.3720 C.3   114  LEU114      0.0284
     57  CG        31.7770  -13.2510  -23.1330 C.3   114  LEU114      0.0019
     58  CD1       32.3520  -14.1210  -22.0210 C.3   114  LEU114      0.0001
     59  CD2       30.2560  -12.9900  -22.8910 C.3   114  LEU114      0.0001
     60  N         34.7850  -13.8690  -25.4550 N.am  115  PRO115     -0.2729
     61  CA        35.4950  -14.7660  -24.5090 C.3   115  PRO115      0.1401
     62  C         37.0000  -14.6260  -24.3880 C.2   115  PRO115      0.2269
     63  O         37.6100  -15.2450  -23.4790 O.2   115  PRO115     -0.2865
     64  CB        35.2210  -16.1440  -25.1440 C.3   115  PRO115      0.0296
     65  CG        35.4120  -15.8670  -26.6800 C.3   115  PRO115      0.0237
     66  CD        34.6200  -14.4890  -26.7870 C.3   115  PRO115      0.0939
     67  N         39.3470  -14.3350  -21.5430 N.3   118  LEU118     -0.1245
     68  CA        39.4640  -15.5990  -20.7910 C.3   118  LEU118      0.1561
     69  C         40.4560  -16.6840  -21.2560 C.2   118  LEU118      0.2260
     70  O         40.6420  -17.6940  -20.5330 O.2   118  LEU118     -0.2867
     71  CB        38.0760  -16.2310  -20.5060 C.3   118  LEU118      0.0270
     72  CG        37.0890  -15.1850  -19.9750 C.3   118  LEU118      0.0019
     73  CD1       35.7160  -15.7790  -19.9060 C.3   118  LEU118      0.0001
     74  CD2       37.5490  -14.7390  -18.5770 C.3   118  LEU118      0.0001
     75  N         38.5400  -29.2440  -28.5630 N.3   221  GLY221     -0.1210
     76  CA        38.4570  -27.8580  -28.1510 C.3   221  GLY221      0.1956
     77  C         37.3800  -27.6190  -27.0920 C.2   221  GLY221      0.2612
     78  O         37.2450  -26.5060  -26.5990 O.2   221  GLY221     -0.2717
     79  N         36.5530  -28.6190  -26.8150 N.am  222  ALA222     -0.1965
     80  CA        35.5650  -28.4500  -25.7540 C.3   222  ALA222      0.1728
     81  C         36.2620  -28.7160  -24.4190 C.2   222  ALA222      0.2617
     82  O         36.8600  -29.8090  -24.2700 O.2   222  ALA222     -0.2715
     83  CB        34.3210  -29.3620  -25.9270 C.3   222  ALA222      0.0334
     84  N         36.1520  -27.7780  -23.4590 N.am  223  SER223     -0.1936
     85  CA        36.6720  -27.9280  -22.0360 C.3   223  SER223      0.2055
     86  C         35.8580  -28.9610  -21.2600 C.2   223  SER223      0.2643
     87  O         36.3950  -29.8460  -20.6400 O.2   223  SER223     -0.2714
     88  CB        36.6320  -26.5870  -21.2320 C.3   223  SER223      0.2130
     89  OG        37.3630  -25.6060  -21.9390 O.3   223  SER223     -0.2179
     90  N         34.5460  -28.8650  -21.2820 N.am  224  TYR224     -0.1973
     91  CA        33.7550  -29.8410  -20.5780 C.3   224  TYR224      0.1639
     92  C         33.1690  -30.8020  -21.6080 C.2   224  TYR224      0.2290
     93  O         33.1910  -30.5330  -22.7810 O.2   224  TYR224     -0.2864
     94  CB        32.5590  -29.2030  -19.9230 C.3   224  TYR224      0.0560
     95  CG        32.8290  -28.1990  -18.8000 C.ar  224  TYR224     -0.0198
     96  CD1       34.1340  -27.9920  -18.2730 C.ar  224  TYR224     -0.0009
     97  CD2       31.7210  -27.5330  -18.1910 C.ar  224  TYR224     -0.0009
     98  CE1       34.3230  -27.0170  -17.2290 C.ar  224  TYR224      0.0417
     99  CE2       31.9240  -26.6350  -17.1580 C.ar  224  TYR224      0.0417
    100  CZ        33.2100  -26.3540  -16.7300 C.ar  224  TYR224      0.1957
    101  OH        33.3530  -25.4330  -15.6810 O.3   224  TYR224     -0.2866
    102  N         29.8000  -31.4860  -23.1840 N.3   226  SER226     -0.1217
    103  CA        28.5450  -30.7770  -23.3320 C.3   226  SER226      0.1889
    104  C         27.4310  -31.6660  -23.9500 C.2   226  SER226      0.2288
    105  O         27.7370  -32.6220  -24.7340 O.2   226  SER226     -0.2866
    106  CB        28.7360  -29.5580  -24.2440 C.3   226  SER226      0.2089
    107  OG        28.9680  -29.9850  -25.5680 O.3   226  SER226     -0.2183
    108  N         23.8430  -22.6070  -11.8130 N.3   244  ARG244     -0.1245
    109  CA        24.2480  -21.2400  -11.4700 C.3   244  ARG244      0.1563
    110  C         24.5130  -20.5350  -12.7550 C.2   244  ARG244      0.2260
    111  O         24.2870  -21.1290  -13.8040 O.2   244  ARG244     -0.2867
    112  CB        25.5000  -21.2580  -10.6320 C.3   244  ARG244      0.0307
    113  CG        25.3410  -22.1010   -9.3370 C.3   244  ARG244      0.0489
    114  CD        26.4210  -21.8070   -8.2770 C.3   244  ARG244      0.2205
    115  NE        27.7950  -22.0140   -8.7880 N.pl3 244  ARG244     -0.0865
    116  CZ        28.9160  -21.8330   -8.0870 C.cat 244  ARG244      0.5346
    117  NH1       28.8530  -21.4760   -6.8070 N.pl3 244  ARG244      0.1354
    118  NH2       30.1090  -22.0560   -8.6500 N.pl3 244  ARG244      0.1354
    119  N         27.1630  -19.7820  -14.4030 N.3   246  PHE246     -0.1227
    120  CA        28.2110  -20.2530  -15.2920 C.3   246  PHE246      0.1736
    121  C         28.4210  -21.7550  -15.1600 C.2   246  PHE246      0.2595
    122  O         29.2330  -22.3230  -15.9080 O.2   246  PHE246     -0.2718
    123  CB        29.5690  -19.5780  -14.9890 C.3   246  PHE246      0.0547
    124  CG        29.5740  -18.1320  -15.1480 C.ar  246  PHE246     -0.0202
    125  CD1       28.9400  -17.5250  -16.2400 C.ar  246  PHE246     -0.0042
    126  CD2       30.2370  -17.3400  -14.2180 C.ar  246  PHE246     -0.0042
    127  CE1       28.9570  -16.1520  -16.3870 C.ar  246  PHE246     -0.0003
    128  CE2       30.2670  -15.9290  -14.3680 C.ar  246  PHE246     -0.0003
    129  CZ        29.5960  -15.3590  -15.4570 C.ar  246  PHE246     -0.0000
    130  N         27.7290  -22.4180  -14.2310 N.am  247  ASP247     -0.1974
    131  CA        28.0740  -23.8630  -14.0190 C.3   247  ASP247      0.1709
    132  C         26.9420  -24.6390  -13.3470 C.2   247  ASP247      0.2293
    133  O         25.9310  -24.0310  -12.9370 O.2   247  ASP247     -0.2864
    134  CB        29.4050  -24.0090  -13.2190 C.3   247  ASP247      0.1436
    135  CG        29.3750  -23.3650  -11.8080 C.2   247  ASP247      0.3671
    136  OD1       28.4650  -22.5780  -11.5000 O.co2 247  ASP247     -0.2456
    137  OD2       30.3210  -23.6320  -10.9780 O.co2 247  ASP247     -0.2456
    138  N         34.8340  -31.4680  -10.2990 N.3   279  PHE279     -0.1241
    139  CA        36.0510  -30.8350   -9.8350 C.3   279  PHE279      0.1605
    140  C         35.9900  -30.7940   -8.3000 C.2   279  PHE279      0.2264
    141  O         35.3610  -29.9200   -7.7430 O.2   279  PHE279     -0.2867
    142  CB        36.1880  -29.4210  -10.3440 C.3   279  PHE279      0.0534
    143  CG        36.4360  -29.2820  -11.8490 C.ar  279  PHE279     -0.0203
    144  CD1       37.6390  -29.6540  -12.4380 C.ar  279  PHE279     -0.0042
    145  CD2       35.4840  -28.6780  -12.6580 C.ar  279  PHE279     -0.0042
    146  CE1       37.8650  -29.4150  -13.8140 C.ar  279  PHE279     -0.0003
    147  CE2       35.6980  -28.4430  -14.0350 C.ar  279  PHE279     -0.0003
    148  CZ        36.8940  -28.8330  -14.6200 C.ar  279  PHE279     -0.0000
    149  N         37.4860  -29.5400   -5.6550 N.3   281  GLU281     -0.1245
    150  CA        38.4050  -28.5760   -5.0300 C.3   281  GLU281      0.1567
    151  C         38.3280  -28.6940   -3.5150 C.2   281  GLU281      0.2260
    152  O         39.1860  -28.2220   -2.8140 O.2   281  GLU281     -0.2867
    153  CB        38.0370  -27.1450   -5.4140 C.3   281  GLU281      0.0388
    154  CG        39.0390  -26.4430   -6.3560 C.3   281  GLU281      0.1160
    155  CD        38.6200  -26.4930   -7.8440 C.2   281  GLU281      0.3649
    156  OE1       37.4500  -26.1570   -8.1720 O.co2 281  GLU281     -0.2457
    157  OE2       39.4650  -26.8620   -8.7070 O.co2 281  GLU281     -0.2457
    158  N         31.9510  -27.5440   -8.8400 N.3   290  THR290     -0.1218
    159  CA        31.5710  -27.5050  -10.2040 C.3   290  THR290      0.1862
    160  C         31.7100  -28.8840  -10.9030 C.2   290  THR290      0.2287
    161  O         32.7620  -29.5750  -10.8070 O.2   290  THR290     -0.2866
    162  CB        32.3830  -26.4260  -10.9870 C.3   290  THR290      0.1770
    163  OG1       32.2790  -25.0990  -10.3630 O.3   290  THR290     -0.2211
    164  CG2       31.9850  -26.3950  -12.5020 C.3   290  THR290      0.0375
    165  N         28.3670  -29.2750  -19.1750 N.3   294  HIS294     -0.1226
    166  CA        27.3500  -28.2500  -19.2500 C.3   294  HIS294      0.1752
    167  C         26.5910  -28.4340  -20.5330 C.2   294  HIS294      0.2596
    168  O         26.8660  -29.3800  -21.2990 O.2   294  HIS294     -0.2718
    169  CB        27.9770  -26.8250  -19.1920 C.3   294  HIS294      0.0759
    170  CG        27.1080  -25.7890  -18.4850 C.ar  294  HIS294      0.0818
    171  ND1       25.7730  -25.5610  -18.7830 N.ar  294  HIS294     -0.2268
    172  CD2       27.4350  -24.8740  -17.5320 C.ar  294  HIS294      0.1154
    173  CE1       25.2960  -24.6110  -17.9930 C.ar  294  HIS294      0.1986
    174  NE2       26.2910  -24.1700  -17.2250 N.ar  294  HIS294     -0.2212
    175  N         25.6440  -27.5350  -20.7640 N.am  295  ALA295     -0.1966
    176  CA        24.8580  -27.5060  -21.9710 C.3   295  ALA295      0.1728
    177  C         25.5730  -26.6580  -23.0420 C.2   295  ALA295      0.2616
    178  O         26.1150  -25.5640  -22.7480 O.2   295  ALA295     -0.2715
    179  CB        23.4850  -26.8390  -21.6450 C.3   295  ALA295      0.0334
    180  N         25.4840  -27.1230  -24.2800 N.am  296  MET296     -0.1977
    181  CA        25.8580  -26.3050  -25.4640 C.3   296  MET296      0.1605
    182  C         25.0350  -26.7920  -26.6410 C.2   296  MET296      0.2287
    183  O         25.2020  -27.9130  -27.0810 O.2   296  MET296     -0.2864
    184  CB        27.3500  -26.4520  -25.7740 C.3   296  MET296      0.0413
    185  CG        27.7830  -25.4630  -26.9270 C.3   296  MET296      0.0598
    186  SD        29.5750  -25.1820  -26.9880 S.3   296  MET296     -0.1393
    187  CE        30.2470  -26.8420  -27.3360 C.3   296  MET296      0.0692
@<TRIPOS>BOND
     1    45    46    1
     2    47    48    2
     3    47    46    1
     4    50    49    1
     5    75    76    1
     6    46    49    1
     7    76    77    1
     8    49    51    1
     9   187   186    1
    10    77    79   am
    11    77    78    2
    12   183   182    2
    13   186   185    1
    14   185   184    1
    15    79    80    1
    16    66    65    1
    17    66    60    1
    18    65    64    1
    19   182   181    1
    20    55    54    2
    21    83    80    1
    22   184   181    1
    23    80    81    1
    24   107   106    1
    25   181   180    1
    26    60    54   am
    27    60    61    1
    28    54    53    1
    29    64    61    1
    30   105   104    2
    31    61    62    1
    32    81    82    2
    33    81    84   am
    34    62    63    2
    35   180   177   am
    36   106   103    1
    37    52    53    1
    38   104   103    1
    39    53    56    1
    40    84    85    1
    41    56    57    1
    42   103   102    1
    43    57    59    1
    44    57    58    1
    45   177   178    2
    46   177   176    1
    47    93    92    2
    48    85    86    1
    49    85    88    1
    50   176   179    1
    51   176   175    1
    52    43    42    2
    53    89    88    1
    54    38    37    1
    55    38    39    1
    56    40    37    1
    57    40    41    1
    58    37    36    1
    59    92    91    1
    60    67    68    1
    61    41    42    1
    62    42    44   am
    63    32    31    2
    64   168   167    2
    65    90    86   am
    66    90    91    1
    67    86    87    2
    68    69    68    1
    69    69    70    2
    70    68    71    1
    71   175   167   am
    72    91    94    1
    73   167   166    1
    74    71    72    1
    75    36    31   am
    76    31    30    1
    77    72    73    1
    78    72    74    1
    79    94    95    1
    80   166   169    1
    81   166   165    1
    82   169   170    1
    83    30    33    1
    84    30    29    1
    85    95    96   ar
    86    95    97   ar
    87   171   170   ar
    88   171   173   ar
    89     1     2    1
    90     5     6    1
    91     5     2    1
    92   170   172   ar
    93    33    34    1
    94    33    35    1
    95    96    98   ar
    96    97    99   ar
    97    29    23   am
    98     8     6   ar
    99     8    10   ar
   100   173   174   ar
   101    24    23    2
   102     6     7   ar
   103     2     3    1
   104     4     3    2
   105    23    22    1
   106   172   174   ar
   107    10    11   ar
   108    98   100   ar
   109    99   100   ar
   110     3    13   am
   111     7     9   ar
   112   100   101    1
   113    22    21    1
   114    22    25    1
   115    11     9   ar
   116    11    12    1
   117   127   125   ar
   118   127   129   ar
   119   125   124   ar
   120    21    15   am
   121   122   121    2
   122    13    14    1
   123   129   128   ar
   124    25    26    1
   125    15    16    2
   126    15    14    1
   127   120   121    1
   128   120   123    1
   129   120   119    1
   130    27    26   ar
   131   121   130   am
   132   124   123    1
   133   124   126   ar
   134    14    17    1
   135   148   147   ar
   136   148   146   ar
   137    26    28   ar
   138    17    18    1
   139   128   126   ar
   140   130   131    1
   141   147   145   ar
   142   131   132    1
   143   131   134    1
   144    18    19    1
   145   146   144   ar
   146   111   110    2
   147   132   133    2
   148   134   135    1
   149    19    20    1
   150   110   109    1
   151   145   143   ar
   152   164   162    1
   153   144   143   ar
   154   143   142    1
   155   108   109    1
   156   135   136   ar
   157   135   137   ar
   158   109   112    1
   159   162   163    1
   160   162   159    1
   161   160   161    2
   162   160   159    1
   163   112   113    1
   164   142   139    1
   165   138   139    1
   166   159   158    1
   167   139   140    1
   168   113   114    1
   169   115   114    1
   170   115   116    2
   171   157   155   ar
   172   118   116    1
   173   140   141    2
   174   156   155   ar
   175   116   117    1
   176   155   154    1
   177   154   153    1
   178   149   150    1
   179   153   150    1
   180   150   151    1
   181   151   152    2
