@<TRIPOS>MOLECULE
tmp/3km4B02.pdb
 202 195 0 0 0
SMALL
GASTEIGER

@<TRIPOS>ATOM
      1  N         41.0330  -26.9380  -18.1320 N.3    15  THR15      -0.1203
      2  CA        40.0120  -26.4180  -19.0920 C.3    15  THR15       0.1994
      3  C         40.5620  -25.8450  -20.4080 C.2    15  THR15       0.2618
      4  O         39.8210  -25.7550  -21.4340 O.2    15  THR15      -0.2717
      5  CB        39.0340  -25.3870  -18.4440 C.3    15  THR15       0.1784
      6  OG1       39.7360  -24.1980  -18.0080 O.3    15  THR15      -0.2211
      7  CG2       38.2630  -26.0530  -17.2700 C.3    15  THR15       0.0376
      8  N         41.8730  -25.5510  -20.4120 N.am   16  GLN16      -0.1965
      9  CA        42.5350  -25.0880  -21.6180 C.3    16  GLN16       0.1733
     10  C         43.7830  -25.9590  -21.8210 C.2    16  GLN16       0.2616
     11  O         44.6570  -26.1700  -20.8920 O.2    16  GLN16      -0.2715
     12  CB        42.8410  -23.5760  -21.6480 C.3    16  GLN16       0.0408
     13  CG        41.6220  -22.6740  -21.5250 C.3    16  GLN16       0.0908
     14  CD        41.9410  -21.2280  -21.4360 C.2    16  GLN16       0.2608
     15  OE1       42.9240  -20.7860  -21.9670 O.2    16  GLN16      -0.2717
     16  NE2       41.0950  -20.4730  -20.7740 N.am   16  GLN16      -0.0878
     17  N         43.8700  -26.5000  -23.0280 N.am   17  TYR17      -0.1974
     18  CA        45.0960  -27.2790  -23.3450 C.3    17  TYR17       0.1639
     19  C         45.6910  -26.7710  -24.6640 C.2    17  TYR17       0.2290
     20  O         45.0150  -26.7720  -25.6830 O.2    17  TYR17      -0.2864
     21  CB        44.7760  -28.7560  -23.4940 C.3    17  TYR17       0.0560
     22  CG        44.3330  -29.4940  -22.2100 C.ar   17  TYR17      -0.0198
     23  CD1       45.2320  -30.2990  -21.4860 C.ar   17  TYR17      -0.0009
     24  CD2       43.0190  -29.3710  -21.7250 C.ar   17  TYR17      -0.0009
     25  CE1       44.8310  -31.0360  -20.3450 C.ar   17  TYR17       0.0417
     26  CE2       42.6070  -30.1000  -20.5510 C.ar   17  TYR17       0.0417
     27  CZ        43.5680  -30.8990  -19.8760 C.ar   17  TYR17       0.1957
     28  OH        43.2010  -31.5910  -18.7870 O.3    17  TYR17      -0.2866
     29  N         45.1710  -23.6830  -29.2540 N.3    33  VAL33      -0.1245
     30  CA        44.3380  -24.8590  -28.9880 C.3    33  VAL33       0.1561
     31  C         44.2380  -25.6310  -30.2810 C.2    33  VAL33       0.2260
     32  O         43.9740  -25.0480  -31.3520 O.2    33  VAL33      -0.2867
     33  CB        42.8740  -24.4960  -28.5480 C.3    33  VAL33       0.0252
     34  CG1       42.0670  -25.8060  -28.3150 C.3    33  VAL33       0.0019
     35  CG2       42.9620  -23.7620  -27.2880 C.3    33  VAL33       0.0019
     36  N         41.7850  -27.8440  -32.0120 N.3    35  ASP35      -0.1239
     37  CA        40.3520  -28.0450  -31.9360 C.3    35  ASP35       0.1674
     38  C         39.7650  -28.9600  -33.0500 C.2    35  ASP35       0.2266
     39  O         39.6570  -28.5270  -34.2300 O.2    35  ASP35      -0.2867
     40  CB        39.7300  -26.6500  -32.0910 C.3    35  ASP35       0.1410
     41  CG        38.2320  -26.6540  -32.0280 C.2    35  ASP35       0.3668
     42  OD1       37.6070  -27.5760  -31.4220 O.co2  35  ASP35      -0.2456
     43  OD2       37.6320  -25.7140  -32.5520 O.co2  35  ASP35      -0.2456
     44  N         36.8170  -29.8140  -33.2910 N.3    37  GLY37      -0.1210
     45  CA        35.5310  -29.2410  -33.6570 C.3    37  GLY37       0.1956
     46  C         35.4730  -28.0940  -34.7050 C.2    37  GLY37       0.2612
     47  O         34.3850  -27.5970  -35.0360 O.2    37  GLY37      -0.2717
     48  N         36.6230  -27.7060  -35.2470 N.am   38  SER38      -0.1952
     49  CA        36.6830  -26.5980  -36.2550 C.3    38  SER38       0.1924
     50  C         37.8540  -26.7940  -37.2080 C.2    38  SER38       0.2314
     51  O         38.6510  -27.6940  -37.0100 O.2    38  SER38      -0.2863
     52  CB        36.7880  -25.2180  -35.6180 C.3    38  SER38       0.2116
     53  OG        38.0700  -25.0590  -34.9540 O.3    38  SER38      -0.2180
     54  N         32.0740  -19.2000  -33.8260 N.3    80  TYR80      -0.1227
     55  CA        32.1130  -20.2450  -32.8510 C.3    80  TYR80       0.1736
     56  C         30.9030  -20.1250  -31.9150 C.2    80  TYR80       0.2596
     57  O         30.1800  -19.2230  -31.9810 O.2    80  TYR80      -0.2718
     58  CB        33.4140  -20.1750  -32.0660 C.3    80  TYR80       0.0548
     59  CG        34.6990  -20.3290  -32.8710 C.ar   80  TYR80      -0.0200
     60  CD1       35.1590  -21.5480  -33.2680 C.ar   80  TYR80      -0.0009
     61  CD2       35.4610  -19.2470  -33.1780 C.ar   80  TYR80      -0.0009
     62  CE1       36.2740  -21.6710  -33.9620 C.ar   80  TYR80       0.0417
     63  CE2       36.5860  -19.3650  -33.8570 C.ar   80  TYR80       0.0417
     64  CZ        37.0080  -20.5840  -34.2600 C.ar   80  TYR80       0.1957
     65  OH        38.1500  -20.6860  -34.9420 O.3    80  TYR80      -0.2866
     66  N         30.7480  -21.0650  -31.0010 N.am   81  SER81      -0.1938
     67  CA        29.8410  -20.9450  -29.8620 C.3    81  SER81       0.2055
     68  C         29.7910  -19.5910  -29.2180 C.2    81  SER81       0.2643
     69  O         28.7550  -19.0860  -28.8940 O.2    81  SER81      -0.2714
     70  CB        30.3140  -21.8780  -28.7530 C.3    81  SER81       0.2130
     71  OG        29.6310  -23.0590  -28.8380 O.3    81  SER81      -0.2179
     72  N         30.9700  -19.0700  -28.9760 N.am   82  THR82      -0.1950
     73  CA        31.1850  -17.9100  -28.1510 C.3    82  THR82       0.1897
     74  C         30.9660  -16.6460  -28.9160 C.2    82  THR82       0.2313
     75  O         30.8840  -15.5790  -28.3550 O.2    82  THR82      -0.2863
     76  CB        32.5750  -17.8720  -27.6320 C.3    82  THR82       0.1794
     77  OG1       33.4580  -18.1960  -28.6750 O.3    82  THR82      -0.2208
     78  CG2       32.7310  -18.8580  -26.5220 C.3    82  THR82       0.0378
     79  N         34.7850  -13.8690  -25.4550 N.3   115  PRO115     -0.2102
     80  CA        35.4950  -14.7660  -24.5090 C.3   115  PRO115      0.1504
     81  C         37.0000  -14.6260  -24.3880 C.2   115  PRO115      0.2575
     82  O         37.6100  -15.2450  -23.4790 O.2   115  PRO115     -0.2718
     83  CB        35.2210  -16.1440  -25.1440 C.3   115  PRO115      0.0282
     84  CG        35.4120  -15.8670  -26.6800 C.3   115  PRO115      0.0208
     85  CD        34.6200  -14.4890  -26.7870 C.3   115  PRO115      0.0893
     86  N         37.6340  -13.8700  -25.2880 N.am  116  PHE116     -0.1977
     87  CA        39.0960  -13.9690  -25.4780 C.3   116  PHE116      0.1639
     88  C         39.9580  -13.3920  -24.3620 C.2   116  PHE116      0.2290
     89  O         41.1230  -13.7700  -24.1740 O.2   116  PHE116     -0.2864
     90  CB        39.4920  -13.4360  -26.8890 C.3   116  PHE116      0.0560
     91  CG        38.9830  -14.3610  -27.9640 C.ar  116  PHE116     -0.0200
     92  CD1       39.5480  -15.6450  -28.0800 C.ar  116  PHE116     -0.0042
     93  CD2       37.8460  -14.0490  -28.7000 C.ar  116  PHE116     -0.0042
     94  CE1       39.0010  -16.5910  -28.9990 C.ar  116  PHE116     -0.0003
     95  CE2       37.3010  -14.9990  -29.6160 C.ar  116  PHE116     -0.0003
     96  CZ        37.9210  -16.2770  -29.7500 C.ar  116  PHE116     -0.0000
     97  N         39.3470  -14.3350  -21.5430 N.3   118  LEU118     -0.1231
     98  CA        39.4640  -15.5990  -20.7910 C.3   118  LEU118      0.1693
     99  C         40.4560  -16.6840  -21.2560 C.2   118  LEU118      0.2591
    100  O         40.6420  -17.6940  -20.5330 O.2   118  LEU118     -0.2718
    101  CB        38.0760  -16.2310  -20.5060 C.3   118  LEU118      0.0284
    102  CG        37.0890  -15.1850  -19.9750 C.3   118  LEU118      0.0019
    103  CD1       35.7160  -15.7790  -19.9060 C.3   118  LEU118      0.0001
    104  CD2       37.5490  -14.7390  -18.5770 C.3   118  LEU118      0.0001
    105  N         41.0960  -16.4960  -22.4040 N.am  119  ALA119     -0.1980
    106  CA        41.9260  -17.5420  -23.0440 C.3   119  ALA119      0.1597
    107  C         43.4030  -17.3250  -22.7020 C.2   119  ALA119      0.2287
    108  O         43.8740  -16.2050  -22.8810 O.2   119  ALA119     -0.2864
    109  CB        41.7830  -17.4360  -24.5520 C.3   119  ALA119      0.0319
    110  N         45.5630  -19.0980  -24.3160 N.3   121  PHE121     -0.1241
    111  CA        46.0820  -19.3780  -25.6460 C.3   121  PHE121      0.1605
    112  C         45.8740  -18.1090  -26.5050 C.2   121  PHE121      0.2264
    113  O         44.9790  -17.2840  -26.2110 O.2   121  PHE121     -0.2867
    114  CB        45.3900  -20.6150  -26.2350 C.3   121  PHE121      0.0534
    115  CG        43.8860  -20.5090  -26.3010 C.ar  121  PHE121     -0.0203
    116  CD1       43.2590  -19.8440  -27.3660 C.ar  121  PHE121     -0.0042
    117  CD2       43.0840  -21.0220  -25.2720 C.ar  121  PHE121     -0.0042
    118  CE1       41.8470  -19.7490  -27.4210 C.ar  121  PHE121     -0.0003
    119  CE2       41.7040  -20.9460  -25.3380 C.ar  121  PHE121     -0.0003
    120  CZ        41.0850  -20.3150  -26.3920 C.ar  121  PHE121     -0.0000
    121  N         43.8790  -20.5190  -32.6280 N.3   124  VAL124     -0.1245
    122  CA        43.2800  -21.8630  -32.7900 C.3   124  VAL124      0.1561
    123  C         43.8270  -22.5090  -34.0770 C.2   124  VAL124      0.2260
    124  O         43.9180  -21.8060  -35.1260 O.2   124  VAL124     -0.2867
    125  CB        41.7340  -21.7500  -32.9460 C.3   124  VAL124      0.0252
    126  CG1       41.0550  -23.1180  -33.2640 C.3   124  VAL124      0.0019
    127  CG2       41.1160  -21.1160  -31.6920 C.3   124  VAL124      0.0019
    128  N         45.3460  -35.7420  -22.8900 N.3   159  TYR159     -0.1241
    129  CA        45.1350  -34.6150  -21.9460 C.3   159  TYR159      0.1605
    130  C         45.3880  -35.1070  -20.5160 C.2   159  TYR159      0.2264
    131  O         44.7200  -36.0300  -20.0670 O.2   159  TYR159     -0.2867
    132  CB        43.7080  -34.1000  -22.0690 C.3   159  TYR159      0.0534
    133  CG        43.4080  -33.1900  -23.2330 C.ar  159  TYR159     -0.0201
    134  CD1       44.4240  -32.6790  -24.0950 C.ar  159  TYR159     -0.0009
    135  CD2       42.0820  -32.8560  -23.5180 C.ar  159  TYR159     -0.0009
    136  CE1       44.1420  -31.8230  -25.1510 C.ar  159  TYR159      0.0417
    137  CE2       41.7920  -31.9560  -24.6080 C.ar  159  TYR159      0.0417
    138  CZ        42.7980  -31.4660  -25.3860 C.ar  159  TYR159      0.1957
    139  OH        42.4970  -30.5710  -26.3690 O.3   159  TYR159     -0.2866
    140  N         30.0440  -35.5020  -30.9630 N.3   217  LEU217     -0.1245
    141  CA        31.1880  -34.8510  -31.5430 C.3   217  LEU217      0.1561
    142  C         32.3690  -35.0830  -30.5960 C.2   217  LEU217      0.2260
    143  O         32.2580  -34.8890  -29.3530 O.2   217  LEU217     -0.2867
    144  CB        30.8800  -33.3450  -31.6750 C.3   217  LEU217      0.0270
    145  CG        31.8490  -32.3880  -32.3780 C.3   217  LEU217      0.0019
    146  CD1       32.1790  -32.7420  -33.8510 C.3   217  LEU217      0.0001
    147  CD2       31.2360  -31.0680  -32.2800 C.3   217  LEU217      0.0001
    148  N         35.4060  -33.7310  -29.4160 N.3   219  ASP219     -0.1225
    149  CA        35.7210  -32.3360  -29.6530 C.3   219  ASP219      0.1805
    150  C         36.8330  -31.8220  -28.6990 C.2   219  ASP219      0.2598
    151  O         36.5690  -31.4360  -27.5340 O.2   219  ASP219     -0.2718
    152  CB        34.4770  -31.4590  -29.5980 C.3   219  ASP219      0.1424
    153  CG        34.7910  -30.0140  -30.0300 C.2   219  ASP219      0.3668
    154  OD1       35.9590  -29.6340  -29.9220 O.co2 219  ASP219     -0.2456
    155  OD2       33.9200  -29.2470  -30.4620 O.co2 219  ASP219     -0.2456
    156  N         38.0760  -31.8810  -29.1760 N.am  220  THR220     -0.1939
    157  CA        39.2400  -31.5950  -28.2980 C.3   220  THR220      0.2028
    158  C         39.2850  -30.1100  -27.8770 C.2   220  THR220      0.2643
    159  O         39.9710  -29.7520  -26.9240 O.2   220  THR220     -0.2714
    160  CB        40.5370  -31.9720  -29.0160 C.3   220  THR220      0.1808
    161  OG1       40.6040  -31.2340  -30.2300 O.3   220  THR220     -0.2208
    162  CG2       40.6130  -33.5040  -29.3560 C.3   220  THR220      0.0379
    163  N         38.5400  -29.2440  -28.5630 N.am  221  GLY221     -0.1939
    164  CA        38.4570  -27.8580  -28.1510 C.3   221  GLY221      0.2014
    165  C         37.3800  -27.6190  -27.0920 C.2   221  GLY221      0.2639
    166  O         37.2450  -26.5060  -26.5990 O.2   221  GLY221     -0.2714
    167  N         36.5530  -28.6190  -26.8150 N.am  222  ALA222     -0.1963
    168  CA        35.5650  -28.4500  -25.7540 C.3   222  ALA222      0.1728
    169  C         36.2620  -28.7160  -24.4190 C.2   222  ALA222      0.2617
    170  O         36.8600  -29.8090  -24.2700 O.2   222  ALA222     -0.2715
    171  CB        34.3210  -29.3620  -25.9270 C.3   222  ALA222      0.0334
    172  N         36.1520  -27.7780  -23.4590 N.am  223  SER223     -0.1936
    173  CA        36.6720  -27.9280  -22.0360 C.3   223  SER223      0.2055
    174  C         35.8580  -28.9610  -21.2600 C.2   223  SER223      0.2643
    175  O         36.3950  -29.8460  -20.6400 O.2   223  SER223     -0.2714
    176  CB        36.6320  -26.5870  -21.2320 C.3   223  SER223      0.2130
    177  OG        37.3630  -25.6060  -21.9390 O.3   223  SER223     -0.2179
    178  N         34.5460  -28.8650  -21.2820 N.am  224  TYR224     -0.1973
    179  CA        33.7550  -29.8410  -20.5780 C.3   224  TYR224      0.1639
    180  C         33.1690  -30.8020  -21.6080 C.2   224  TYR224      0.2290
    181  O         33.1910  -30.5330  -22.7810 O.2   224  TYR224     -0.2864
    182  CB        32.5590  -29.2030  -19.9230 C.3   224  TYR224      0.0560
    183  CG        32.8290  -28.1990  -18.8000 C.ar  224  TYR224     -0.0198
    184  CD1       34.1340  -27.9920  -18.2730 C.ar  224  TYR224     -0.0009
    185  CD2       31.7210  -27.5330  -18.1910 C.ar  224  TYR224     -0.0009
    186  CE1       34.3230  -27.0170  -17.2290 C.ar  224  TYR224      0.0417
    187  CE2       31.9240  -26.6350  -17.1580 C.ar  224  TYR224      0.0417
    188  CZ        33.2100  -26.3540  -16.7300 C.ar  224  TYR224      0.1957
    189  OH        33.3530  -25.4330  -15.6810 O.3   224  TYR224     -0.2866
    190  N         25.4840  -27.1230  -24.2800 N.3   296  MET296     -0.1245
    191  CA        25.8580  -26.3050  -25.4640 C.3   296  MET296      0.1570
    192  C         25.0350  -26.7920  -26.6410 C.2   296  MET296      0.2261
    193  O         25.2020  -27.9130  -27.0810 O.2   296  MET296     -0.2867
    194  CB        27.3500  -26.4520  -25.7740 C.3   296  MET296      0.0387
    195  CG        27.7830  -25.4630  -26.9270 C.3   296  MET296      0.0595
    196  SD        29.5750  -25.1820  -26.9880 S.3   296  MET296     -0.1393
    197  CE        30.2470  -26.8420  -27.3360 C.3   296  MET296      0.0692
    198  N         37.3790  -32.1710  -23.0490 N.3   310  ALA310     -0.1245
    199  CA        38.4920  -32.5510  -22.2070 C.3   310  ALA310      0.1562
    200  C         38.1030  -33.4830  -21.0090 C.2   310  ALA310      0.2260
    201  O         38.8670  -34.3820  -20.6830 O.2   310  ALA310     -0.2867
    202  CB        39.3150  -31.3410  -21.7850 C.3   310  ALA310      0.0290
@<TRIPOS>BOND
     1    50    51    2
     2    50    49    1
     3    49    52    1
     4    49    48    1
     5    52    53    1
     6    48    46   am
     7   124   123    2
     8    47    46    2
     9    65    64    1
    10    46    45    1
    11    64    62   ar
    12    64    63   ar
    13    39    38    2
    14   123   122    1
    15    62    60   ar
    16    63    61   ar
    17   146   145    1
    18    54    55    1
    19    45    44    1
    20    60    59   ar
    21   126   125    1
    22    61    59   ar
    23    38    37    1
    24   125   122    1
    25   125   127    1
    26    59    58    1
    27    55    58    1
    28    55    56    1
    29   122   121    1
    30    43    41   ar
    31   145   147    1
    32   145   144    1
    33    40    41    1
    34    40    37    1
    35    41    42   ar
    36    36    37    1
    37    57    56    2
    38    56    66   am
    39   144   141    1
    40   141   140    1
    41   141   142    1
    42    32    31    2
    43    66    67    1
    44   142   143    2
    45   155   153   ar
    46    31    30    1
    47   161   160    1
    48   153   154   ar
    49   153   152    1
    50    67    68    1
    51    67    70    1
    52    96    95   ar
    53    96    94   ar
    54   149   152    1
    55   149   148    1
    56   149   150    1
    57    95    93   ar
    58   162   160    1
    59    29    30    1
    60    68    72   am
    61    68    69    2
    62   156   150   am
    63   156   157    1
    64   160   157    1
    65    94    92   ar
    66    30    33    1
    67    72    73    1
    68    74    75    2
    69    74    73    1
    70    71    70    1
    71    93    91   ar
    72   150   151    2
    73    77    76    1
    74   163   164    1
    75   163   158   am
    76    33    34    1
    77    33    35    1
    78   157   158    1
    79    73    76    1
    80   164   165    1
    81    92    91   ar
    82    91    90    1
    83   158   159    2
    84    76    78    1
    85   118   116   ar
    86   118   120   ar
    87   116   115   ar
    88   197   196    1
    89   165   167   am
    90   165   166    2
    91   193   192    2
    92   196   195    1
    93   195   194    1
    94    90    87    1
    95   167   168    1
    96    85    84    1
    97    85    79    1
    98    84    83    1
    99   192   191    1
   100   112   113    2
   101   112   111    1
   102   120   119   ar
   103   139   138    1
   104   115   114    1
   105   115   117   ar
   106   114   111    1
   107   171   168    1
   108   194   191    1
   109   168   169    1
   110    20    19    2
   111   111   110    1
   112    87    86    1
   113    87    88    1
   114   191   190    1
   115    79    80    1
   116   138   136   ar
   117   138   137   ar
   118   119   117   ar
   119    86    81   am
   120   136   134   ar
   121    83    80    1
   122    19    18    1
   123   137   135   ar
   124   109   106    1
   125    80    81    1
   126   169   170    2
   127   169   172   am
   128    81    82    2
   129    88    89    2
   130   134   133   ar
   131   135   133   ar
   132    21    18    1
   133    21    22    1
   134   172   173    1
   135    18    17    1
   136   133   132    1
   137   198   199    1
   138   106   107    1
   139   106   105    1
   140    17    10   am
   141   128   129    1
   142   108   107    2
   143   181   180    2
   144   105    99   am
   145    22    24   ar
   146    22    23   ar
   147   199   202    1
   148   199   200    1
   149   132   129    1
   150   173   174    1
   151   173   176    1
   152    15    14    2
   153   129   130    1
   154   177   176    1
   155    10     9    1
   156    10    11    2
   157    24    26   ar
   158    12     9    1
   159    12    13    1
   160     9     8    1
   161   180   179    1
   162    97    98    1
   163    13    14    1
   164    23    25   ar
   165    14    16   am
   166     4     3    2
   167   178   174   am
   168   178   179    1
   169   174   175    2
   170    99    98    1
   171    99   100    2
   172   200   201    2
   173    98   101    1
   174   179   182    1
   175    26    27   ar
   176   130   131    2
   177   101   102    1
   178     8     3   am
   179     3     2    1
   180    25    27   ar
   181   102   103    1
   182   102   104    1
   183   182   183    1
   184    27    28    1
   185     2     5    1
   186     2     1    1
   187   183   184   ar
   188   183   185   ar
   189     5     6    1
   190     5     7    1
   191   184   186   ar
   192   185   187   ar
   193   186   188   ar
   194   187   188   ar
   195   188   189    1
