@<TRIPOS>MOLECULE
tmp/3km8A00.pdb
 164 153 0 0 0
SMALL
GASTEIGER

@<TRIPOS>ATOM
      1  N        -22.7110   -9.8560    2.3530 N.3    14  HIS14      -0.1241
      2  CA       -21.6600  -10.8040    2.7740 C.3    14  HIS14       0.1621
      3  C        -20.9080  -11.3880    1.5670 C.2    14  HIS14       0.2264
      4  O        -21.5190  -11.9680    0.6740 O.2    14  HIS14      -0.2867
      5  CB       -22.2620  -11.9890    3.5530 C.3    14  HIS14       0.0745
      6  CG       -22.8960  -11.6040    4.8630 C.ar   14  HIS14       0.0817
      7  ND1      -22.2780  -11.8140    6.0800 N.ar   14  HIS14      -0.2268
      8  CD2      -24.0940  -11.0370    5.1450 C.ar   14  HIS14       0.1154
      9  CE1      -23.0810  -11.4270    7.0610 C.ar   14  HIS14       0.1986
     10  NE2      -24.1760  -10.9110    6.5220 N.ar   14  HIS14      -0.2212
     11  N        -19.0850  -13.9490    1.3720 N.3    16  ASP16      -0.1239
     12  CA       -19.2280  -15.3950    1.2960 C.3    16  ASP16       0.1674
     13  C        -20.6790  -15.7780    1.0860 C.2    16  ASP16       0.2266
     14  O        -20.9690  -16.9450    0.8870 O.2    16  ASP16      -0.2867
     15  CB       -18.5820  -16.1690    2.4890 C.3    16  ASP16       0.1410
     16  CG       -19.0190  -15.6450    3.8610 C.2    16  ASP16       0.3668
     17  OD1      -18.7270  -16.3160    4.8910 O.co2  16  ASP16      -0.2456
     18  OD2      -19.6850  -14.5880    3.9040 O.co2  16  ASP16      -0.2456
     19  N        -33.1680  -19.1130   11.4560 N.3    55  LEU55      -0.1245
     20  CA       -31.8540  -18.5150   11.2460 C.3    55  LEU55       0.1561
     21  C        -30.7310  -19.5480   11.2800 C.2    55  LEU55       0.2260
     22  O        -29.9090  -19.5670   10.3780 O.2    55  LEU55      -0.2867
     23  CB       -31.5710  -17.3420   12.1890 C.3    55  LEU55       0.0270
     24  CG       -30.2110  -16.6960   11.8940 C.3    55  LEU55       0.0019
     25  CD1      -30.1790  -16.0490   10.4690 C.3    55  LEU55       0.0001
     26  CD2      -29.8430  -15.6980   12.9630 C.3    55  LEU55       0.0001
     27  N        -31.0730  -21.4610    7.9530 N.3    58  PHE58      -0.1227
     28  CA       -30.4290  -20.6330    6.9140 C.3    58  PHE58       0.1736
     29  C        -28.8880  -20.6280    6.9660 C.2    58  PHE58       0.2595
     30  O        -28.2450  -20.8000    5.9290 O.2    58  PHE58      -0.2718
     31  CB       -31.0260  -19.2050    6.8600 C.3    58  PHE58       0.0547
     32  CG       -30.1170  -18.1800    6.2380 C.ar   58  PHE58      -0.0202
     33  CD1      -29.2730  -17.3910    7.0400 C.ar   58  PHE58      -0.0042
     34  CD2      -30.1210  -17.9740    4.8570 C.ar   58  PHE58      -0.0042
     35  CE1      -28.3990  -16.4810    6.4820 C.ar   58  PHE58      -0.0003
     36  CE2      -29.2530  -17.0690    4.2960 C.ar   58  PHE58      -0.0003
     37  CZ       -28.4020  -16.3050    5.0960 C.ar   58  PHE58      -0.0000
     38  N        -28.2900  -20.4620    8.1500 N.am   59  LEU59      -0.1980
     39  CA       -26.8420  -20.3450    8.2390 C.3    59  LEU59       0.1596
     40  C        -26.1400  -21.6400    7.8140 C.2    59  LEU59       0.2287
     41  O        -24.9820  -21.5920    7.3620 O.2    59  LEU59      -0.2864
     42  CB       -26.3570  -19.9300    9.6530 C.3    59  LEU59       0.0297
     43  CG       -26.6240  -18.5030   10.1380 C.3    59  LEU59       0.0022
     44  CD1      -26.2880  -18.3210   11.6240 C.3    59  LEU59       0.0001
     45  CD2      -25.8370  -17.5140    9.3170 C.3    59  LEU59       0.0001
     46  N        -24.3350  -22.2830    4.1790 N.3    62  PHE62      -0.1241
     47  CA       -22.8930  -22.0350    4.0000 C.3    62  PHE62       0.1605
     48  C        -22.0440  -23.2900    4.0450 C.2    62  PHE62       0.2264
     49  O        -21.0040  -23.3440    3.3880 O.2    62  PHE62      -0.2867
     50  CB       -22.3720  -21.0230    5.0520 C.3    62  PHE62       0.0534
     51  CG       -22.8650  -19.6150    4.8360 C.ar   62  PHE62      -0.0203
     52  CD1      -24.1760  -19.2600    5.1870 C.ar   62  PHE62      -0.0042
     53  CD2      -22.0440  -18.6680    4.2210 C.ar   62  PHE62      -0.0042
     54  CE1      -24.6610  -17.9640    4.9510 C.ar   62  PHE62      -0.0003
     55  CE2      -22.5140  -17.3650    3.9680 C.ar   62  PHE62      -0.0003
     56  CZ       -23.8440  -17.0150    4.3050 C.ar   62  PHE62      -0.0000
     57  N        -18.6980  -23.3960    1.5730 N.3    66  MET66      -0.1245
     58  CA       -17.5200  -22.7520    2.1520 C.3    66  MET66       0.1570
     59  C        -16.3020  -23.6530    2.0220 C.2    66  MET66       0.2261
     60  O        -15.2170  -23.1610    1.8930 O.2    66  MET66      -0.2867
     61  CB       -17.7130  -22.3590    3.6390 C.3    66  MET66       0.0387
     62  CG       -18.5790  -21.1540    3.8610 C.3    66  MET66       0.0595
     63  SD       -17.9450  -19.6660    3.0750 S.3    66  MET66      -0.1393
     64  CE       -16.7580  -19.0780    4.2720 C.3    66  MET66       0.0692
     65  N        -17.2340  -10.0300    5.6900 N.3    99  TYR99      -0.1227
     66  CA       -16.9570  -11.4610    5.7990 C.3    99  TYR99       0.1736
     67  C        -16.2100  -11.7640    7.1110 C.2    99  TYR99       0.2596
     68  O        -15.6440  -10.8490    7.7790 O.2    99  TYR99      -0.2718
     69  CB       -16.1450  -11.9600    4.5710 C.3    99  TYR99       0.0548
     70  CG       -14.7510  -11.3560    4.5020 C.ar   99  TYR99      -0.0200
     71  CD1      -14.5780  -10.0150    4.0940 C.ar   99  TYR99      -0.0009
     72  CD2      -13.6350  -12.0530    4.9850 C.ar   99  TYR99      -0.0009
     73  CE1      -13.3340   -9.3990    4.1500 C.ar   99  TYR99       0.0417
     74  CE2      -12.3670  -11.4460    5.0030 C.ar   99  TYR99       0.0417
     75  CZ       -12.2400  -10.1260    4.5670 C.ar   99  TYR99       0.1957
     76  OH       -11.0430   -9.4900    4.5630 O.3    99  TYR99      -0.2866
     77  N        -16.1500  -13.0520    7.4470 N.am  100  SER100     -0.1952
     78  CA       -15.2710  -13.5140    8.5240 C.3   100  SER100      0.1924
     79  C        -13.9490  -14.0150    7.9390 C.2   100  SER100      0.2314
     80  O        -13.9440  -14.9710    7.1860 O.2   100  SER100     -0.2863
     81  CB       -15.9470  -14.6300    9.3280 C.3   100  SER100      0.2116
     82  OG       -15.0030  -15.3070   10.1280 O.3   100  SER100     -0.2180
     83  N        -13.2790  -17.6570    8.9430 N.3   103  LEU103     -0.1245
     84  CA       -13.9830  -18.7270    8.2740 C.3   103  LEU103      0.1561
     85  C        -13.3810  -19.1600    6.9240 C.2   103  LEU103      0.2260
     86  O        -13.8120  -20.1660    6.3560 O.2   103  LEU103     -0.2867
     87  CB       -15.4920  -18.4600    8.1930 C.3   103  LEU103      0.0270
     88  CG       -16.2560  -18.5050    9.5140 C.3   103  LEU103      0.0019
     89  CD1      -17.6930  -18.2420    9.1790 C.3   103  LEU103      0.0001
     90  CD2      -16.0550  -19.8520   10.2860 C.3   103  LEU103      0.0001
     91  N        -16.0090   -9.5810   10.1810 N.3   150  CYS150     -0.1235
     92  CA       -17.0650  -10.0510   11.0920 C.3   150  CYS150      0.1677
     93  C        -16.4750  -10.8810   12.2160 C.2   150  CYS150      0.2270
     94  O        -15.8740  -11.9440   11.9520 O.2   150  CYS150     -0.2867
     95  CB       -18.0360  -10.9410   10.3530 C.3   150  CYS150      0.0956
     96  SG       -18.9170  -10.1410    8.9910 S.3   150  CYS150     -0.0801
     97  N        -17.8610  -13.5520   14.8740 N.3   152  MET152     -0.1245
     98  CA       -18.9550  -14.5260   14.7610 C.3   152  MET152      0.1570
     99  C        -19.5330  -14.8160   16.1580 C.2   152  MET152      0.2261
    100  O        -18.7940  -14.9680   17.1150 O.2   152  MET152     -0.2867
    101  CB       -18.4460  -15.8090   14.1000 C.3   152  MET152      0.0387
    102  CG       -17.8820  -15.5470   12.6680 C.3   152  MET152      0.0595
    103  SD       -19.2890  -15.1440   11.6060 S.3   152  MET152     -0.1393
    104  CE       -20.2960  -16.5920   11.7330 C.3   152  MET152      0.0692
    105  N        -21.6830  -11.0280   13.4590 N.3   180  ALA180     -0.1231
    106  CA       -22.6380  -11.7380   12.6200 C.3   180  ALA180      0.1694
    107  C        -22.8380  -13.1420   13.1470 C.2   180  ALA180      0.2592
    108  O        -22.2690  -13.5320   14.1690 O.2   180  ALA180     -0.2718
    109  CB       -22.1520  -11.7940   11.1260 C.3   180  ALA180      0.0304
    110  N        -23.6310  -13.9150   12.4290 N.am  181  GLY181     -0.1957
    111  CA       -23.8350  -15.3280   12.8010 C.3   181  GLY181      0.1869
    112  C        -25.1260  -15.5480   13.5950 C.2   181  GLY181      0.2309
    113  O        -26.1080  -14.8180   13.4240 O.2   181  GLY181     -0.2863
    114  N        -27.7940  -15.1720   15.7840 N.3   183  GLU183     -0.1245
    115  CA       -28.4410  -14.2730   16.6900 C.3   183  GLU183      0.1567
    116  C        -29.1770  -14.9800   17.8410 C.2   183  GLU183      0.2260
    117  O        -29.3650  -14.3950   18.8950 O.2   183  GLU183     -0.2867
    118  CB       -29.4170  -13.3590   15.9440 C.3   183  GLU183      0.0388
    119  CG       -29.7940  -12.1580   16.7930 C.3   183  GLU183      0.1160
    120  CD       -30.7900  -11.2000   16.1570 C.2   183  GLU183      0.3649
    121  OE1      -31.4570  -10.4660   16.9320 O.co2 183  GLU183     -0.2457
    122  OE2      -30.9010  -11.1600   14.9160 O.co2 183  GLU183     -0.2457
    123  N        -25.2400   -7.1470   13.7310 N.3   211  HIS211     -0.1241
    124  CA       -26.4650   -7.7400   13.2200 C.3   211  HIS211      0.1621
    125  C        -27.3330   -7.9010   14.4810 C.2   211  HIS211      0.2264
    126  O        -26.9200   -8.5960   15.4120 O.2   211  HIS211     -0.2867
    127  CB       -26.1900   -9.1740   12.7310 C.3   211  HIS211      0.0745
    128  CG       -25.7190   -9.2950   11.3110 C.ar  211  HIS211      0.0817
    129  ND1      -24.4100   -9.0710   10.9520 N.ar  211  HIS211     -0.2268
    130  CD2      -26.3100   -9.8530   10.2280 C.ar  211  HIS211      0.1154
    131  CE1      -24.2440   -9.3760    9.6730 C.ar  211  HIS211      0.1986
    132  NE2      -25.3590   -9.9240    9.2330 N.ar  211  HIS211     -0.2212
    133  N        -32.7640   -9.0840   13.7480 N.3   214  GLN214     -0.1245
    134  CA       -33.1420   -9.8320   12.5600 C.3   214  GLN214      0.1566
    135  C        -34.1970  -10.8850   12.9540 C.2   214  GLN214      0.2260
    136  O        -35.2930  -10.9120   12.3990 O.2   214  GLN214     -0.2867
    137  CB       -31.8900  -10.4960   11.9290 C.3   214  GLN214      0.0367
    138  CG       -32.1100  -11.0960   10.5420 C.3   214  GLN214      0.0905
    139  CD       -30.9160  -11.8900    9.9880 C.2   214  GLN214      0.2608
    140  OE1      -29.8750  -12.0580   10.6420 O.2   214  GLN214     -0.2717
    141  NE2      -31.0730  -12.3780    8.7530 N.am  214  GLN214     -0.0878
    142  N        -35.4040  -15.5410    5.8620 N.3   266  THR266     -0.1218
    143  CA       -34.9370  -16.0260    7.1660 C.3   266  THR266      0.1862
    144  C        -36.0730  -16.1270    8.2010 C.2   266  THR266      0.2287
    145  O        -35.8290  -16.4120    9.3840 O.2   266  THR266     -0.2866
    146  CB       -33.8050  -15.1920    7.7460 C.3   266  THR266      0.1770
    147  OG1      -34.3550  -13.9850    8.2780 O.3   266  THR266     -0.2211
    148  CG2      -32.7480  -14.8810    6.6720 C.3   266  THR266      0.0375
    149  N        -28.5360   -9.3800    0.9440 N.3   292  ASP292     -0.1225
    150  CA       -27.7040   -9.6200    2.1640 C.3   292  ASP292      0.1805
    151  C        -26.6780  -10.7460    1.8830 C.2   292  ASP292      0.2597
    152  O        -25.5040  -10.6490    1.9960 O.2   292  ASP292     -0.2718
    153  CB       -28.6990   -9.8470    3.2890 C.3   292  ASP292      0.1424
    154  CG       -28.1210  -10.4170    4.5430 C.2   292  ASP292      0.3668
    155  OD1      -26.9820  -10.2720    4.8320 O.co2 292  ASP292     -0.2456
    156  OD2      -28.8720  -11.0480    5.2420 O.co2 292  ASP292     -0.2456
    157  N        -27.2400  -11.7910    1.4060 N.am  293  ASP293     -0.1974
    158  CA       -26.6140  -12.9580    0.8100 C.3   293  ASP293      0.1709
    159  C        -27.2380  -13.2620   -0.5830 C.2   293  ASP293      0.2293
    160  O        -28.0320  -14.1900   -0.7210 O.2   293  ASP293     -0.2864
    161  CB       -26.8090  -14.1820    1.7120 C.3   293  ASP293      0.1436
    162  CG       -26.1750  -14.0070    3.1040 C.2   293  ASP293      0.3671
    163  OD1      -24.9400  -14.0730    3.2440 O.co2 293  ASP293     -0.2456
    164  OD2      -26.9230  -13.7700    4.0650 O.co2 293  ASP293     -0.2456
@<TRIPOS>BOND
     1   160   159    2
     2   159   158    1
     3     4     3    2
     4   158   157    1
     5   158   161    1
     6    14    13    2
     7   149   150    1
     8    13    12    1
     9    12    11    1
    10    12    15    1
    11   157   151   am
    12     3     2    1
    13    57    58    1
    14   161   162    1
    15   151   152    2
    16   151   150    1
    17    60    59    2
    18    59    58    1
    19    58    61    1
    20   150   153    1
    21     1     2    1
    22    15    16    1
    23     2     5    1
    24    63    62    1
    25    63    64    1
    26   162   163   ar
    27   162   164   ar
    28   153   154    1
    29    49    48    2
    30     5     6    1
    31    61    62    1
    32    16    18   ar
    33    16    17   ar
    34    55    53   ar
    35    55    56   ar
    36    47    48    1
    37    47    46    1
    38    47    50    1
    39    71    73   ar
    40    71    70   ar
    41    73    75   ar
    42    53    51   ar
    43    36    34   ar
    44    36    37   ar
    45    56    54   ar
    46    70    69    1
    47    70    72   ar
    48   154   155   ar
    49   154   156   ar
    50    76    75    1
    51    75    74   ar
    52    69    66    1
    53    51    50    1
    54    51    52   ar
    55    34    32   ar
    56     6     8   ar
    57     6     7   ar
    58    54    52   ar
    59    72    74   ar
    60    37    35   ar
    61     8    10   ar
    62    65    66    1
    63    66    67    1
    64   142   143    1
    65    30    29    2
    66     7     9   ar
    67    32    31    1
    68    32    33   ar
    69    86    85    2
    70    35    33   ar
    71    10     9   ar
    72   148   146    1
    73    31    28    1
    74    28    29    1
    75    28    27    1
    76    85    84    1
    77    29    38   am
    78    67    77   am
    79    67    68    2
    80   143   146    1
    81   143   144    1
    82    80    79    2
    83    41    40    2
    84    77    78    1
    85   146   147    1
    86    40    39    1
    87    79    78    1
    88    38    39    1
    89    87    84    1
    90    87    88    1
    91   144   145    2
    92    39    42    1
    93    84    83    1
    94    78    81    1
    95   141   139   am
    96    96    95    1
    97    89    88    1
    98   132   131   ar
    99   132   130   ar
   100    45    43    1
   101    81    82    1
   102    88    90    1
   103    42    43    1
   104   131   129   ar
   105   139   138    1
   106   139   140    2
   107    43    44    1
   108    91    92    1
   109   130   128   ar
   110    95    92    1
   111    22    21    2
   112    25    24    1
   113   138   137    1
   114   129   128   ar
   115    92    93    1
   116   109   106    1
   117    20    21    1
   118    20    19    1
   119    20    23    1
   120   128   127    1
   121   103   104    1
   122   103   102    1
   123    24    23    1
   124    24    26    1
   125   137   134    1
   126    94    93    2
   127   136   135    2
   128   110   111    1
   129   110   107   am
   130   134   135    1
   131   134   133    1
   132   106   107    1
   133   106   105    1
   134   102   101    1
   135   127   124    1
   136   111   112    1
   137   107   108    2
   138   124   123    1
   139   124   125    1
   140   113   112    2
   141   101    98    1
   142   125   126    2
   143    98    97    1
   144    98    99    1
   145   122   120   ar
   146   114   115    1
   147   118   115    1
   148   118   119    1
   149   120   119    1
   150   120   121   ar
   151    99   100    2
   152   115   116    1
   153   116   117    2
