@<TRIPOS>MOLECULE
tmp/3kmbA00.pdb
 105 100 0 0 0
SMALL
GASTEIGER

@<TRIPOS>ATOM
      1  N         38.7540   -5.5570   15.1450 N.3   110  LYS110     -0.1231
      2  CA        40.0230   -5.2330   14.5250 C.3   110  LYS110      0.1693
      3  C         40.6960   -6.6000   14.3340 C.2   110  LYS110      0.2592
      4  O         40.2840   -7.5930   14.9450 O.2   110  LYS110     -0.2718
      5  CB        40.8230   -4.3570   15.4930 C.3   110  LYS110      0.0285
      6  CG        42.1090   -3.7850   14.9670 C.3   110  LYS110      0.0035
      7  CD        42.6890   -2.8230   15.9820 C.3   110  LYS110      0.0206
      8  CE        44.1160   -2.4470   15.6240 C.3   110  LYS110      0.1093
      9  NZ        45.0350   -3.6230   15.7240 N.3   110  LYS110     -0.1314
     10  N         41.6880   -6.6650   13.4570 N.am  111  LYS111     -0.1966
     11  CA        42.3940   -7.9150   13.2070 C.3   111  LYS111      0.1728
     12  C         43.0200   -8.4170   14.5000 C.2   111  LYS111      0.2616
     13  O         43.6320   -7.6480   15.2330 O.2   111  LYS111     -0.2715
     14  CB        43.5000   -7.7080   12.1640 C.3   111  LYS111      0.0311
     15  CG        44.2220   -8.9970   11.7610 C.3   111  LYS111      0.0038
     16  CD        45.5420   -8.7250   11.0460 C.3   111  LYS111      0.0206
     17  CE        46.2900  -10.0340   10.7790 C.3   111  LYS111      0.1093
     18  NZ        47.6460   -9.8340   10.1820 N.3   111  LYS111     -0.1314
     19  N         42.8670   -9.7090   14.7640 N.am  112  ASP112     -0.1957
     20  CA        43.4280  -10.3460   15.9590 C.3   112  ASP112      0.1840
     21  C         42.7580   -9.9890   17.2900 C.2   112  ASP112      0.2621
     22  O         43.3340  -10.2150   18.3570 O.2   112  ASP112     -0.2715
     23  CB        44.9420  -10.1040   16.0480 C.3   112  ASP112      0.1450
     24  CG        45.7060  -10.7500   14.9060 C.2   112  ASP112      0.3671
     25  OD1       45.4210  -11.9160   14.5860 O.co2 112  ASP112     -0.2456
     26  OD2       46.5930  -10.0930   14.3310 O.co2 112  ASP112     -0.2456
     27  N         41.5430   -9.4500   17.2230 N.am  113  GLU113     -0.1977
     28  CA        40.7720   -9.0880   18.4080 C.3   113  GLU113      0.1602
     29  C         39.4320   -9.7820   18.2450 C.2   113  GLU113      0.2287
     30  O         39.0420  -10.0890   17.1240 O.2   113  GLU113     -0.2864
     31  CB        40.5500   -7.5690   18.4670 C.3   113  GLU113      0.0415
     32  CG        41.8240   -6.7280   18.5270 C.3   113  GLU113      0.1163
     33  CD        42.6690   -7.0000   19.7650 C.2   113  GLU113      0.3649
     34  OE1       42.1280   -7.5290   20.7640 O.co2 113  GLU113     -0.2457
     35  OE2       43.8760   -6.6700   19.7410 O.co2 113  GLU113     -0.2457
     36  N         41.0780  -10.4080   22.0350 N.3   115  ASN115     -0.1240
     37  CA        42.1170  -11.3110   22.5180 C.3   115  ASN115      0.1653
     38  C         42.1640  -11.5100   24.0340 C.2   115  ASN115      0.2266
     39  O         43.0270  -12.2300   24.5310 O.2   115  ASN115     -0.2867
     40  CB        43.4910  -10.8480   22.0030 C.3   115  ASN115      0.1155
     41  CG        43.8940   -9.4780   22.5290 C.2   115  ASN115      0.2627
     42  OD1       43.0870   -8.7530   23.1140 O.2   115  ASN115     -0.2716
     43  ND2       45.1490   -9.1200   22.3250 N.am  115  ASN115     -0.0877
     44  N         43.3740   -9.8740   26.3140 N.3   117  HIS117     -0.1241
     45  CA        44.7780   -9.7510   26.6450 C.3   117  HIS117      0.1621
     46  C         45.1800   -9.7900   28.1090 C.2   117  HIS117      0.2264
     47  O         44.6030   -9.0910   28.9500 O.2   117  HIS117     -0.2867
     48  CB        45.3950   -8.5200   25.9760 C.3   117  HIS117      0.0745
     49  CG        46.8910   -8.5150   26.0200 C.ar  117  HIS117      0.0817
     50  ND1       47.6580   -9.2000   25.1010 N.ar  117  HIS117     -0.2268
     51  CD2       47.7570   -7.9910   26.9180 C.ar  117  HIS117      0.1154
     52  CE1       48.9310   -9.1050   25.4380 C.ar  117  HIS117      0.1986
     53  NE2       49.0190   -8.3770   26.5360 N.ar  117  HIS117     -0.2212
     54  N         43.1170  -10.0160   31.3300 N.3   120  GLY120     -0.1210
     55  CA        41.7800   -9.9810   30.7800 C.3   120  GLY120      0.1956
     56  C         41.2570   -8.6370   30.3070 C.2   120  GLY120      0.2611
     57  O         41.6540   -7.5770   30.8030 O.2   120  GLY120     -0.2717
     58  N         40.3620   -8.7040   29.3230 N.am  121  GLU121     -0.1979
     59  CA        39.7000   -7.5390   28.7390 C.3   121  GLU121      0.1602
     60  C         38.2510   -7.9400   28.4650 C.2   121  GLU121      0.2287
     61  O         37.9990   -8.8370   27.6530 O.2   121  GLU121     -0.2864
     62  CB        40.3940   -7.1340   27.4430 C.3   121  GLU121      0.0415
     63  CG        41.8210   -6.7180   27.6660 C.3   121  GLU121      0.1163
     64  CD        42.5060   -6.2880   26.4040 C.2   121  GLU121      0.3649
     65  OE1       42.3880   -6.9990   25.3920 O.co2 121  GLU121     -0.2457
     66  OE2       43.1680   -5.2400   26.4290 O.co2 121  GLU121     -0.2457
     67  N         38.0070   -3.1740   19.5320 N.3   133  ASN133     -0.1225
     68  CA        39.0440   -3.8640   20.2920 C.3   133  ASN133      0.1785
     69  C         38.5460   -4.0770   21.7110 C.2   133  ASN133      0.2597
     70  O         37.9510   -3.1690   22.2860 O.2   133  ASN133     -0.2718
     71  CB        40.3140   -3.0180   20.3560 C.3   133  ASN133      0.1169
     72  CG        41.3240   -3.5710   21.3390 C.2   133  ASN133      0.2627
     73  OD1       41.5310   -4.7830   21.4150 O.2   133  ASN133     -0.2716
     74  ND2       41.9280   -2.6930   22.1240 N.am  133  ASN133     -0.0877
     75  N         38.7700   -5.2640   22.2740 N.am  134  ASP134     -0.1960
     76  CA        38.3590   -5.4920   23.6580 C.3   134  ASP134      0.1840
     77  C         39.4240   -4.9130   24.5660 C.2   134  ASP134      0.2622
     78  O         40.6040   -4.9420   24.2290 O.2   134  ASP134     -0.2715
     79  CB        38.0820   -6.9770   23.9840 C.3   134  ASP134      0.1450
     80  CG        39.2850   -7.8950   23.7670 C.2   134  ASP134      0.3671
     81  OD1       40.1910   -7.5930   22.9700 O.co2 134  ASP134     -0.2456
     82  OD2       39.2900   -8.9750   24.3750 O.co2 134  ASP134     -0.2456
     83  N         39.0030   -4.3110   25.6690 N.am  135  ILE135     -0.1963
     84  CA        39.9240   -3.7100   26.6180 C.3   135  ILE135      0.1727
     85  C         39.3930   -3.8280   28.0330 C.2   135  ILE135      0.2616
     86  O         38.2360   -4.1810   28.2590 O.2   135  ILE135     -0.2715
     87  CB        40.1350   -2.1870   26.3750 C.3   135  ILE135      0.0290
     88  CG1       38.7910   -1.4700   26.3520 C.3   135  ILE135      0.0022
     89  CG2       40.9460   -1.9260   25.1120 C.3   135  ILE135      0.0023
     90  CD1       38.9180   -0.0250   26.5800 C.3   135  ILE135      0.0001
     91  N         40.2620   -3.5310   28.9900 N.am  136  SER136     -0.1950
     92  CA        39.8910   -3.5530   30.3950 C.3   136  SER136      0.1924
     93  C         38.7970   -2.5150   30.6290 C.2   136  SER136      0.2314
     94  O         38.8890   -1.3800   30.1670 O.2   136  SER136     -0.2863
     95  CB        41.1010   -3.2150   31.2740 C.3   136  SER136      0.2116
     96  OG        40.6980   -3.0040   32.6130 O.3   136  SER136     -0.2180
     97  N         39.8110    0.9200   32.0610 N.3   139  LYS139     -0.1245
     98  CA        40.3980    1.9740   31.2360 C.3   139  LYS139      0.1561
     99  C         39.3980    3.1160   31.0750 C.2   139  LYS139      0.2260
    100  O         38.1890    2.9200   31.1960 O.2   139  LYS139     -0.2867
    101  CB        40.7940    1.4480   29.8430 C.3   139  LYS139      0.0271
    102  CG        41.9630    0.4680   29.8350 C.3   139  LYS139      0.0035
    103  CD        43.1600    1.0310   30.5960 C.3   139  LYS139      0.0206
    104  CE        44.4740    0.3770   30.1790 C.3   139  LYS139      0.1093
    105  NZ        44.4480   -1.1070   30.2940 N.3   139  LYS139     -0.1314
@<TRIPOS>BOND
     1    18    17    1
     2    17    16    1
     3    16    15    1
     4    15    14    1
     5    14    11    1
     6    11    10    1
     7    11    12    1
     8    10     3   am
     9    26    24   ar
    10     3     2    1
    11     3     4    2
    12    12    19   am
    13    12    13    2
    14     2     1    1
    15     2     5    1
    16    25    24   ar
    17    19    20    1
    18    24    23    1
    19     6     5    1
    20     6     7    1
    21     8     9    1
    22     8     7    1
    23    20    23    1
    24    20    21    1
    25    30    29    2
    26    27    21   am
    27    27    28    1
    28    21    22    2
    29    29    28    1
    30    28    31    1
    31    31    32    1
    32    32    33    1
    33    67    68    1
    34    35    33   ar
    35    33    34   ar
    36    68    71    1
    37    68    69    1
    38    71    72    1
    39    72    73    2
    40    72    74   am
    41    69    75   am
    42    69    70    2
    43    40    37    1
    44    40    41    1
    45    36    37    1
    46    75    76    1
    47    43    41   am
    48    37    38    1
    49    41    42    2
    50    81    80   ar
    51    76    79    1
    52    76    77    1
    53    80    79    1
    54    80    82   ar
    55    38    39    2
    56    78    77    2
    57    77    83   am
    58    50    52   ar
    59    50    49   ar
    60    89    87    1
    61    65    64   ar
    62    52    53   ar
    63    83    84    1
    64    48    49    1
    65    48    45    1
    66    49    51   ar
    67    44    45    1
    68    88    87    1
    69    88    90    1
    70    87    84    1
    71    64    66   ar
    72    64    63    1
    73    53    51   ar
    74    84    85    1
    75    45    46    1
    76    62    63    1
    77    62    59    1
    78    61    60    2
    79    85    86    2
    80    85    91   am
    81    46    47    2
    82    60    59    1
    83    59    58    1
    84    91    92    1
    85    58    56   am
    86   102   101    1
    87   102   103    1
    88   101    98    1
    89    94    93    2
    90   104   105    1
    91   104   103    1
    92    56    55    1
    93    56    57    2
    94    92    93    1
    95    92    95    1
    96    55    54    1
    97    99   100    2
    98    99    98    1
    99    98    97    1
   100    95    96    1
