@<TRIPOS>MOLECULE
tmp/3kmcB00.pdb
 155 151 0 0 0
SMALL
GASTEIGER

@<TRIPOS>ATOM
      1  N         42.1520   36.9210   33.3760 N.3    95  VAL95      -0.1245
      2  CA        42.7390   37.5870   34.5480 C.3    95  VAL95       0.1561
      3  C         43.5040   38.9010   34.2670 C.2    95  VAL95       0.2260
      4  O         43.3490   39.8810   35.0050 O.2    95  VAL95      -0.2867
      5  CB        43.4910   36.5890   35.4710 C.3    95  VAL95       0.0252
      6  CG1       44.8130   36.1150   34.8570 C.3    95  VAL95       0.0019
      7  CG2       43.7010   37.1690   36.8700 C.3    95  VAL95       0.0019
      8  N         43.2860   27.5710   34.1220 N.3   126  MET126     -0.1230
      9  CA        44.5960   27.0090   34.4990 C.3   126  MET126      0.1702
     10  C         44.9790   27.1460   35.9850 C.2   126  MET126      0.2593
     11  O         46.1660   27.1600   36.3200 O.2   126  MET126     -0.2718
     12  CB        45.7150   27.5340   33.5720 C.3   126  MET126      0.0401
     13  CG        45.4500   27.3120   32.0840 C.3   126  MET126      0.0596
     14  SD        46.8750   27.7310   31.0380 S.3   126  MET126     -0.1393
     15  CE        46.9130   29.5170   31.2010 C.3   126  MET126      0.0692
     16  N         43.9740   27.2210   36.8510 N.am  127  GLY127     -0.1942
     17  CA        44.1740   27.3350   38.2920 C.3   127  GLY127      0.2014
     18  C         44.8240   28.6180   38.7830 C.2   127  GLY127      0.2640
     19  O         45.4390   28.6240   39.8530 O.2   127  GLY127     -0.2714
     20  N         44.6830   29.7160   38.0200 N.am  128  THR128     -0.1936
     21  CA        45.1810   31.0430   38.4040 C.3   128  THR128      0.2028
     22  C         44.2760   31.5380   39.5380 C.2   128  THR128      0.2642
     23  O         43.0580   31.3820   39.4570 O.2   128  THR128     -0.2714
     24  CB        45.1390   31.9800   37.1840 C.3   128  THR128      0.1808
     25  OG1       46.0400   31.4760   36.1930 O.3   128  THR128     -0.2208
     26  CG2       45.4980   33.4280   37.5250 C.3   128  THR128      0.0379
     27  N         44.8740   32.1090   40.6030 N.am  129  LEU129     -0.1963
     28  CA        44.1220   32.5920   41.7550 C.3   129  LEU129      0.1728
     29  C         44.2070   34.1010   41.9460 C.2   129  LEU129      0.2617
     30  O         43.3820   34.6920   42.6560 O.2   129  LEU129     -0.2715
     31  CB        44.5470   31.8420   43.0340 C.3   129  LEU129      0.0311
     32  CG        44.1560   30.3640   43.1010 C.3   129  LEU129      0.0022
     33  CD1       45.0570   29.6160   44.0440 C.3   129  LEU129      0.0001
     34  CD2       42.6960   30.1950   43.5180 C.3   129  LEU129      0.0001
     35  N         45.1760   34.7240   41.2860 N.am  130  GLY130     -0.1940
     36  CA        45.3260   36.1610   41.3660 C.3   130  GLY130      0.2014
     37  C         46.3190   36.7150   40.3790 C.2   130  GLY130      0.2638
     38  O         46.9090   35.9700   39.5920 O.2   130  GLY130     -0.2714
     39  N         46.5210   38.0250   40.4350 N.am  131  LEU131     -0.1977
     40  CA        47.4490   38.7390   39.5420 C.3   131  LEU131      0.1596
     41  C         47.7750   40.0690   40.1740 C.2   131  LEU131      0.2287
     42  O         46.9320   40.6340   40.8820 O.2   131  LEU131     -0.2864
     43  CB        46.8300   38.9370   38.1380 C.3   131  LEU131      0.0297
     44  CG        47.8270   39.3820   37.0390 C.3   131  LEU131      0.0022
     45  CD1       48.7840   38.2810   36.6780 C.3   131  LEU131      0.0001
     46  CD2       47.0970   39.8080   35.7910 C.3   131  LEU131      0.0001
     47  N         44.3760   29.1640   52.1820 N.3   179  GLU179     -0.1245
     48  CA        44.8190   29.2690   50.7850 C.3   179  GLU179      0.1567
     49  C         44.6170   30.7220   50.3320 C.2   179  GLU179      0.2260
     50  O         45.5570   31.3210   49.7750 O.2   179  GLU179     -0.2867
     51  CB        44.0160   28.2910   49.8980 C.3   179  GLU179      0.0388
     52  CG        44.3940   26.8470   50.1740 C.3   179  GLU179      0.1160
     53  CD        43.5350   25.7270   49.6070 C.2   179  GLU179      0.3649
     54  OE1       42.3730   25.9810   49.2070 O.co2 179  GLU179     -0.2457
     55  OE2       44.0160   24.5700   49.6280 O.co2 179  GLU179     -0.2457
     56  N         47.1850   33.1160   51.4690 N.3   182  LEU182     -0.1231
     57  CA        48.4170   32.9980   50.7030 C.3   182  LEU182      0.1693
     58  C         48.3480   33.5760   49.3030 C.2   182  LEU182      0.2591
     59  O         49.3740   34.0470   48.8230 O.2   182  LEU182     -0.2718
     60  CB        48.9880   31.5910   50.7420 C.3   182  LEU182      0.0284
     61  CG        49.2790   31.0770   52.1670 C.3   182  LEU182      0.0019
     62  CD1       49.7740   29.6740   52.1230 C.3   182  LEU182      0.0001
     63  CD2       50.3350   31.9440   52.8790 C.3   182  LEU182      0.0001
     64  N         47.1530   33.5950   48.6730 N.am  183  VAL183     -0.1980
     65  CA        46.9490   34.2060   47.3490 C.3   183  VAL183      0.1595
     66  C         47.2590   35.6920   47.4880 C.2   183  VAL183      0.2287
     67  O         48.0870   36.2270   46.7410 O.2   183  VAL183     -0.2864
     68  CB        45.5220   33.9670   46.7830 C.3   183  VAL183      0.0276
     69  CG1       45.3000   34.7220   45.4590 C.3   183  VAL183      0.0022
     70  CG2       45.2570   32.4870   46.6000 C.3   183  VAL183      0.0022
     71  N         50.9950   36.4110   48.2990 N.3   186  HIS186     -0.1226
     72  CA        51.7390   36.2300   47.0510 C.3   186  HIS186      0.1752
     73  C         51.5410   37.4440   46.1250 C.2   186  HIS186      0.2595
     74  O         52.5090   37.9970   45.6230 O.2   186  HIS186     -0.2718
     75  CB        51.3000   34.9080   46.3690 C.3   186  HIS186      0.0759
     76  CG        51.9720   34.6060   45.0650 C.ar  186  HIS186      0.0818
     77  ND1       53.0200   33.7110   44.9870 N.ar  186  HIS186     -0.2268
     78  CD2       51.7110   35.0810   43.8230 C.ar  186  HIS186      0.1154
     79  CE1       53.3540   33.6560   43.7090 C.ar  186  HIS186      0.1986
     80  NE2       52.5950   34.4740   42.9730 N.ar  186  HIS186     -0.2212
     81  N         50.2980   37.8670   45.9080 N.am  187  GLU187     -0.1979
     82  CA        50.0100   39.0070   45.0170 C.3   187  GLU187      0.1602
     83  C         50.6290   40.3010   45.5600 C.2   187  GLU187      0.2287
     84  O         51.3000   41.0210   44.8210 O.2   187  GLU187     -0.2864
     85  CB        48.4870   39.1260   44.7270 C.3   187  GLU187      0.0415
     86  CG        47.8990   37.9540   43.9380 C.3   187  GLU187      0.1163
     87  CD        48.7190   37.3950   42.7860 C.2   187  GLU187      0.3649
     88  OE1       49.4180   38.1790   42.1080 O.co2 187  GLU187     -0.2457
     89  OE2       48.6330   36.1720   42.5350 O.co2 187  GLU187     -0.2457
     90  N         54.3070   40.3470   44.8100 N.3   190  HIS190     -0.1241
     91  CA        54.6380   40.9180   43.4870 C.3   190  HIS190      0.1621
     92  C         54.5820   42.4440   43.5700 C.2   190  HIS190      0.2264
     93  O         55.5060   43.1110   43.1000 O.2   190  HIS190     -0.2867
     94  CB        53.6530   40.4580   42.3930 C.3   190  HIS190      0.0745
     95  CG        53.8660   39.0500   41.9390 C.ar  190  HIS190      0.0817
     96  ND1       55.0810   38.6310   41.4090 N.ar  190  HIS190     -0.2268
     97  CD2       52.9970   38.0140   41.9140 C.ar  190  HIS190      0.1154
     98  CE1       54.9110   37.3570   41.0920 C.ar  190  HIS190      0.1986
     99  NE2       53.6660   36.9500   41.3520 N.ar  190  HIS190     -0.2212
    100  N         58.6750   35.3570   40.9910 N.3   196  HIS196     -0.1241
    101  CA        58.5220   33.9850   41.4740 C.3   196  HIS196      0.1621
    102  C         59.8740   33.3930   41.8780 C.2   196  HIS196      0.2264
    103  O         60.9310   33.7860   41.3520 O.2   196  HIS196     -0.2867
    104  CB        57.8480   33.0980   40.4200 C.3   196  HIS196      0.0745
    105  CG        56.4050   33.4140   40.1960 C.ar  196  HIS196      0.0817
    106  ND1       55.7930   33.1780   38.9740 N.ar  196  HIS196     -0.2268
    107  CD2       55.4930   33.9390   41.0450 C.ar  196  HIS196      0.1154
    108  CE1       54.5310   33.5440   39.1280 C.ar  196  HIS196      0.1986
    109  NE2       54.3030   34.0090   40.3530 N.ar  196  HIS196     -0.2212
    110  N         56.1740   31.3860   49.8900 N.3   215  VAL215     -0.1245
    111  CA        54.9580   31.9780   49.3200 C.3   215  VAL215      0.1561
    112  C         55.0640   32.4120   47.8220 C.2   215  VAL215      0.2260
    113  O         54.0710   32.3490   47.1040 O.2   215  VAL215     -0.2867
    114  CB        54.4010   33.0900   50.2700 C.3   215  VAL215      0.0252
    115  CG1       55.2870   34.3240   50.2760 C.3   215  VAL215      0.0019
    116  CG2       52.9530   33.4350   49.9530 C.3   215  VAL215      0.0019
    117  N         56.4280   30.8700   45.4500 N.3   217  TYR217     -0.1228
    118  CA        56.5800   29.7260   44.5650 C.3   217  TYR217      0.1721
    119  C         55.5780   29.8980   43.4030 C.2   217  TYR217      0.2437
    120  O         54.4590   30.3910   43.6500 O.2   217  TYR217     -0.2733
    121  CB        56.3700   28.4030   45.3260 C.3   217  TYR217      0.0547
    122  CG        56.9560   27.2230   44.5790 C.ar  217  TYR217     -0.0200
    123  CD1       58.3350   27.0480   44.4850 C.ar  217  TYR217     -0.0009
    124  CD2       56.1340   26.3090   43.9240 C.ar  217  TYR217     -0.0009
    125  CE1       58.8790   26.0120   43.7310 C.ar  217  TYR217      0.0417
    126  CE2       56.6680   25.2450   43.2000 C.ar  217  TYR217      0.0417
    127  CZ        58.0440   25.1070   43.1010 C.ar  217  TYR217      0.1957
    128  OH        58.5900   24.0630   42.3930 O.3   217  TYR217     -0.2866
    129  N         55.9490   29.5560   42.1360 N.am  218  PRO218     -0.2718
    130  CA        55.0210   29.7730   41.0190 C.3   218  PRO218      0.1535
    131  C         53.7800   28.8840   40.9880 C.2   218  PRO218      0.2598
    132  O         52.8350   29.2280   40.3020 O.2   218  PRO218     -0.2715
    133  CB        55.9010   29.6040   39.7730 C.3   218  PRO218      0.0310
    134  CG        57.0040   28.7680   40.1840 C.3   218  PRO218      0.0237
    135  CD        57.2510   29.0420   41.6490 C.3   218  PRO218      0.0939
    136  N         53.7810   27.7590   41.7100 N.am  219  ILE219     -0.1964
    137  CA        52.6200   26.8770   41.8180 C.3   219  ILE219      0.1727
    138  C         52.0270   27.1690   43.1990 C.2   219  ILE219      0.2616
    139  O         52.7590   27.1510   44.1950 O.2   219  ILE219     -0.2715
    140  CB        52.9810   25.3820   41.6240 C.3   219  ILE219      0.0290
    141  CG1       53.5530   25.1440   40.1860 C.3   219  ILE219      0.0022
    142  CG2       51.7430   24.4900   41.9070 C.3   219  ILE219      0.0023
    143  CD1       54.0520   23.7540   39.8790 C.3   219  ILE219      0.0001
    144  N         50.7240   27.4950   43.2460 N.am  220  ALA220     -0.1963
    145  CA        50.0160   27.8520   44.4860 C.3   220  ALA220      0.1728
    146  C         50.3020   26.9170   45.6440 C.2   220  ALA220      0.2616
    147  O         50.0860   25.7130   45.5360 O.2   220  ALA220     -0.2715
    148  CB        48.5100   27.9660   44.2480 C.3   220  ALA220      0.0334
    149  N         50.8640   27.4760   46.7210 N.am  221  VAL221     -0.1977
    150  CA        51.1610   26.7220   47.9350 C.3   221  VAL221      0.1596
    151  C         49.8850   26.5430   48.7410 C.2   221  VAL221      0.2287
    152  O         49.1450   27.5140   48.9680 O.2   221  VAL221     -0.2864
    153  CB        52.3470   27.2730   48.7800 C.3   221  VAL221      0.0276
    154  CG1       53.6720   27.1100   48.0370 C.3   221  VAL221      0.0022
    155  CG2       52.1330   28.7200   49.2140 C.3   221  VAL221      0.0022
@<TRIPOS>BOND
     1    14    15    1
     2    14    13    1
     3    13    12    1
     4     1     2    1
     5    12     9    1
     6     8     9    1
     7     3     2    1
     8     3     4    2
     9     9    10    1
    10     2     5    1
    11     6     5    1
    12     5     7    1
    13    46    44    1
    14    10    11    2
    15    10    16   am
    16    25    24    1
    17    45    44    1
    18    16    17    1
    19    44    43    1
    20    24    26    1
    21    24    21    1
    22    20    21    1
    23    20    18   am
    24    43    40    1
    25    17    18    1
    26    21    22    1
    27    18    19    2
    28   106   108   ar
    29   106   105   ar
    30   108   109   ar
    31    23    22    2
    32    22    27   am
    33    40    41    1
    34    40    39    1
    35    38    37    2
    36   133   134    1
    37   133   130    1
    38   143   141    1
    39    41    42    2
    40   134   135    1
    41   141   140    1
    42   105   104    1
    43   105   107   ar
    44   132   131    2
    45   109   107   ar
    46    37    39   am
    47    37    36    1
    48   104   101    1
    49    27    28    1
    50   131   130    1
    51   131   136   am
    52   100   101    1
    53   130   129    1
    54    98    99   ar
    55    98    96   ar
    56    35    36    1
    57    35    29   am
    58   103   102    2
    59    99    97   ar
    60    96    95   ar
    61   101   102    1
    62   140   137    1
    63   140   142    1
    64   135   129    1
    65   136   137    1
    66    28    29    1
    67    28    31    1
    68   137   138    1
    69    97    95   ar
    70    95    94    1
    71    29    30    2
    72    88    87   ar
    73   129   119   am
    74   128   127    1
    75    94    91    1
    76    89    87   ar
    77    87    86    1
    78    80    79   ar
    79    80    78   ar
    80    31    32    1
    81    93    92    2
    82   127   126   ar
    83   127   125   ar
    84    32    34    1
    85    32    33    1
    86   138   144   am
    87   138   139    2
    88   126   124   ar
    89   144   145    1
    90   119   120    2
    91   119   118    1
    92    91    92    1
    93    91    90    1
    94    79    77   ar
    95   125   123   ar
    96    78    76   ar
    97   124   122   ar
    98    86    85    1
    99   148   145    1
   100   123   122   ar
   101   145   146    1
   102   118   121    1
   103   118   117    1
   104   122   121    1
   105    85    82    1
   106    84    83    2
   107    77    76   ar
   108    82    83    1
   109    82    81    1
   110    76    75    1
   111    69    68    1
   112   147   146    2
   113    74    73    2
   114   146   149   am
   115    81    73   am
   116    73    72    1
   117    75    72    1
   118    70    68    1
   119   149   150    1
   120    67    66    2
   121    68    65    1
   122    72    71    1
   123   113   112    2
   124    65    66    1
   125    65    64    1
   126   112   111    1
   127   150   151    1
   128   150   153    1
   129   154   153    1
   130    64    58   am
   131   151   152    2
   132   153   155    1
   133    59    58    2
   134    54    53   ar
   135    58    57    1
   136   111   110    1
   137   111   114    1
   138    53    55   ar
   139    53    52    1
   140    50    49    2
   141    51    52    1
   142    51    48    1
   143   116   114    1
   144   114   115    1
   145    49    48    1
   146    57    60    1
   147    57    56    1
   148    60    61    1
   149    48    47    1
   150    62    61    1
   151    61    63    1
