@<TRIPOS>MOLECULE
tmp/3kmcA00.pdb
 164 162 0 0 0
SMALL
GASTEIGER

@<TRIPOS>ATOM
      1  N         -0.3520    2.1080   20.1480 N.3   128  MET128     -0.1230
      2  CA         1.0870    1.8380   20.1170 C.3   128  MET128      0.1702
      3  C          1.9180    2.2380   21.3300 C.2   128  MET128      0.2593
      4  O          3.0780    2.6130   21.1860 O.2   128  MET128     -0.2718
      5  CB         1.7080    2.3220   18.7900 C.3   128  MET128      0.0401
      6  CG         1.2360    1.5190   17.5800 C.3   128  MET128      0.0596
      7  SD         1.6180    2.3120   15.9940 S.3   128  MET128     -0.1393
      8  CE         3.4070    2.7010   16.2310 C.3   128  MET128      0.0692
      9  N          1.3330    2.1250   22.5220 N.am  129  GLY129     -0.1942
     10  CA         2.0680    2.3720   23.7600 C.3   129  GLY129      0.2014
     11  C          2.4060    3.7960   24.1420 C.2   129  GLY129      0.2640
     12  O          3.1610    4.0080   25.0980 O.2   129  GLY129     -0.2714
     13  N          1.8140    4.7790   23.4530 N.am  130  THR130     -0.1936
     14  CA         2.0120    6.2020   23.7720 C.3   130  THR130      0.2028
     15  C          1.4280    6.4910   25.1400 C.2   130  THR130      0.2642
     16  O          0.3050    6.0950   25.4150 O.2   130  THR130     -0.2714
     17  CB         1.4150    7.0910   22.6790 C.3   130  THR130      0.1808
     18  OG1        2.1440    6.8330   21.4850 O.3   130  THR130     -0.2208
     19  CG2        1.5070    8.5970   23.0040 C.3   130  THR130      0.0379
     20  N          2.1820    7.2070   25.9900 N.am  131  LEU131     -0.1963
     21  CA         1.7110    7.5300   27.3340 C.3   131  LEU131      0.1728
     22  C          1.4210    9.0170   27.5700 C.2   131  LEU131      0.2617
     23  O          0.6940    9.3610   28.4980 O.2   131  LEU131     -0.2715
     24  CB         2.7180    7.0290   28.3590 C.3   131  LEU131      0.0311
     25  CG         2.6890    5.5220   28.5920 C.3   131  LEU131      0.0022
     26  CD1        3.9810    5.0640   29.1720 C.3   131  LEU131      0.0001
     27  CD2        1.5240    5.1520   29.4650 C.3   131  LEU131      0.0001
     28  N          1.9870    9.8750   26.7400 N.am  132  GLY132     -0.1940
     29  CA         1.7730   11.3100   26.8660 C.3   132  GLY132      0.2014
     30  C          2.2590   12.1110   25.6820 C.2   132  GLY132      0.2639
     31  O          2.8370   11.5660   24.7330 O.2   132  GLY132     -0.2714
     32  N          2.0630   13.4300   25.7680 N.am  133  LEU133     -0.1963
     33  CA         2.4590   14.3860   24.7410 C.3   133  LEU133      0.1728
     34  C          2.5990   15.7560   25.3420 C.2   133  LEU133      0.2616
     35  O          1.8510   16.0880   26.2540 O.2   133  LEU133     -0.2715
     36  CB         1.3990   14.4240   23.6310 C.3   133  LEU133      0.0311
     37  CG         1.8200   15.0990   22.3140 C.3   133  LEU133      0.0022
     38  CD1        2.8980   14.2870   21.5740 C.3   133  LEU133      0.0001
     39  CD2        0.6380   15.3010   21.4220 C.3   133  LEU133      0.0001
     40  N          3.5180   16.5910   24.8050 N.am  134  ALA134     -0.1977
     41  CA         3.6610   17.9630   25.3100 C.3   134  ALA134      0.1597
     42  C          4.2220   18.8760   24.2340 C.2   134  ALA134      0.2287
     43  O          4.8670   18.3940   23.2970 O.2   134  ALA134     -0.2864
     44  CB         4.5880   17.9860   26.5250 C.3   134  ALA134      0.0319
     45  N         -2.3770    2.0260   29.8300 N.3   170  ASN170     -0.1225
     46  CA        -1.5850    1.5430   28.7080 C.3   170  ASN170      0.1785
     47  C         -1.7490    0.0330   28.5860 C.2   170  ASN170      0.2597
     48  O         -1.5620   -0.6950   29.5650 O.2   170  ASN170     -0.2718
     49  CB        -0.1140    1.8880   28.8480 C.3   170  ASN170      0.1169
     50  CG         0.5910    1.9760   27.5290 C.2   170  ASN170      0.2627
     51  OD1       -0.0270    2.1720   26.4860 O.2   170  ASN170     -0.2716
     52  ND2        1.8970    1.8770   27.5470 N.am  170  ASN170     -0.0877
     53  N         -2.0790   -0.4180   27.3810 N.am  171  TYR171     -0.1976
     54  CA        -2.2620   -1.8490   27.0770 C.3   171  TYR171      0.1639
     55  C         -3.2370   -2.4800   28.0420 C.2   171  TYR171      0.2290
     56  O         -2.9090   -3.4630   28.6940 O.2   171  TYR171     -0.2864
     57  CB        -0.9200   -2.5910   27.0750 C.3   171  TYR171      0.0560
     58  CG         0.0270   -2.1500   25.9850 C.ar  171  TYR171     -0.0198
     59  CD1       -0.1200   -2.6050   24.6780 C.ar  171  TYR171     -0.0009
     60  CD2        1.1420   -1.3760   26.2800 C.ar  171  TYR171     -0.0009
     61  CE1        0.7620   -2.2040   23.6690 C.ar  171  TYR171      0.0417
     62  CE2        2.0450   -1.0000   25.2910 C.ar  171  TYR171      0.0417
     63  CZ         1.8600   -1.4250   23.9900 C.ar  171  TYR171      0.1957
     64  OH         2.7730   -1.0390   23.0400 O.3   171  TYR171     -0.2866
     65  N          7.1000    9.0430   35.8920 N.3   182  LEU182     -0.1231
     66  CA         8.0400    9.2690   34.8120 C.3   182  LEU182      0.1693
     67  C          7.4190    9.7750   33.5420 C.2   182  LEU182      0.2591
     68  O          8.0810   10.5320   32.8390 O.2   182  LEU182     -0.2718
     69  CB         8.9780    8.0910   34.6110 C.3   182  LEU182      0.0284
     70  CG         9.8650    7.7480   35.8450 C.3   182  LEU182      0.0019
     71  CD1       10.9070    6.7590   35.4650 C.3   182  LEU182      0.0001
     72  CD2       10.5430    9.0040   36.4490 C.3   182  LEU182      0.0001
     73  N          6.1230    9.4620   33.2880 N.am  183  VAL183     -0.1980
     74  CA         5.4410   10.0200   32.1130 C.3   183  VAL183      0.1595
     75  C          5.3650   11.5280   32.2800 C.2   183  VAL183      0.2287
     76  O          5.8100   12.2910   31.3960 O.2   183  VAL183     -0.2864
     77  CB         4.0280    9.4220   31.8830 C.3   183  VAL183      0.0276
     78  CG1        3.3510   10.0920   30.6820 C.3   183  VAL183      0.0022
     79  CG2        4.1030    7.9240   31.6900 C.3   183  VAL183      0.0022
     80  N          8.7370   13.2670   32.0240 N.3   186  HIS186     -0.1226
     81  CA         9.0810   13.3490   30.6090 C.3   186  HIS186      0.1752
     82  C          8.3250   14.4590   29.8650 C.2   186  HIS186      0.2595
     83  O          8.9510   15.2020   29.1090 O.2   186  HIS186     -0.2718
     84  CB         8.8530   11.9700   29.9570 C.3   186  HIS186      0.0759
     85  CG         9.2030   11.8720   28.5050 C.ar  186  HIS186      0.0818
     86  ND1       10.3570   11.2410   28.0790 N.ar  186  HIS186     -0.2268
     87  CD2        8.4860   12.2420   27.4220 C.ar  186  HIS186      0.1154
     88  CE1       10.3420   11.3230   26.7590 C.ar  186  HIS186      0.1986
     89  NE2        9.2370   11.9220   26.3240 N.ar  186  HIS186     -0.2212
     90  N          6.9890   14.5150   30.0090 N.am  187  GLU187     -0.1979
     91  CA         6.1350   15.5140   29.3490 C.3   187  GLU187      0.1602
     92  C          6.4670   16.9320   29.8230 C.2   187  GLU187      0.2287
     93  O          6.6570   17.8250   28.9890 O.2   187  GLU187     -0.2864
     94  CB         4.6200   15.1810   29.4910 C.3   187  GLU187      0.0415
     95  CG         4.1860   13.8570   28.8470 C.3   187  GLU187      0.1163
     96  CD         4.8300   13.4670   27.5300 C.2   187  GLU187      0.3649
     97  OE1        5.1310   14.3630   26.7050 O.co2 187  GLU187     -0.2457
     98  OE2        5.0290   12.2530   27.3180 O.co2 187  GLU187     -0.2457
     99  N          9.7380   18.0040   28.2320 N.3   190  HIS190     -0.1241
    100  CA         9.5600   18.6450   26.9240 C.3   190  HIS190      0.1621
    101  C          9.0980   20.0860   27.1400 C.2   190  HIS190      0.2264
    102  O          9.5840   20.9810   26.4380 O.2   190  HIS190     -0.2867
    103  CB         8.4970   17.9130   26.1050 C.3   190  HIS190      0.0745
    104  CG         8.9630   16.6590   25.4660 C.ar  190  HIS190      0.0817
    105  ND1       10.0550   16.6450   24.6120 N.ar  190  HIS190     -0.2268
    106  CD2        8.4020   15.4270   25.4870 C.ar  190  HIS190      0.1154
    107  CE1       10.1460   15.4010   24.1700 C.ar  190  HIS190      0.1986
    108  NE2        9.1840   14.6250   24.6810 N.ar  190  HIS190     -0.2212
    109  N         14.2590   14.5500   23.0330 N.3   196  HIS196     -0.1241
    110  CA        14.5760   13.1950   23.4160 C.3   196  HIS196      0.1621
    111  C         16.0750   12.9440   23.4060 C.2   196  HIS196      0.2264
    112  O         16.8100   13.5020   22.5720 O.2   196  HIS196     -0.2867
    113  CB        13.8380   12.1480   22.5410 C.3   196  HIS196      0.0745
    114  CG        12.3570   12.0780   22.7460 C.ar  196  HIS196      0.0817
    115  ND1       11.5010   11.7550   21.6960 N.ar  196  HIS196     -0.2268
    116  CD2       11.6130   12.3140   23.8530 C.ar  196  HIS196      0.1154
    117  CE1       10.2710   11.8110   22.1970 C.ar  196  HIS196      0.1986
    118  NE2       10.2830   12.1190   23.4950 N.ar  196  HIS196     -0.2212
    119  N         15.3320   10.1260   31.9100 N.3   215  VAL215     -0.1245
    120  CA        13.8930   10.3640   31.7260 C.3   215  VAL215      0.1561
    121  C         13.4370   10.8230   30.3240 C.2   215  VAL215      0.2260
    122  O         12.3320   10.4650   29.9140 O.2   215  VAL215     -0.2867
    123  CB        13.2650   11.1450   32.8980 C.3   215  VAL215      0.0252
    124  CG1       13.5030   12.6400   32.7670 C.3   215  VAL215      0.0019
    125  CG2       11.7780   10.8230   33.0760 C.3   215  VAL215      0.0019
    126  N         14.5340    9.7040   27.4430 N.3   217  TYR217     -0.1228
    127  CA        14.7210    8.6770   26.4340 C.3   217  TYR217      0.1721
    128  C         13.3600    8.4490   25.7470 C.2   217  TYR217      0.2437
    129  O         12.3300    8.5860   26.4180 O.2   217  TYR217     -0.2733
    130  CB        15.2660    7.3790   27.0460 C.3   217  TYR217      0.0547
    131  CG        15.8420    6.4470   26.0090 C.ar  217  TYR217     -0.0200
    132  CD1       17.0320    6.7530   25.3470 C.ar  217  TYR217     -0.0009
    133  CD2       15.1800    5.2710   25.6550 C.ar  217  TYR217     -0.0009
    134  CE1       17.5300    5.9300   24.3390 C.ar  217  TYR217      0.0417
    135  CE2       15.6970    4.4150   24.6840 C.ar  217  TYR217      0.0417
    136  CZ        16.8630    4.7560   24.0180 C.ar  217  TYR217      0.1957
    137  OH        17.3690    3.9140   23.0630 O.3   217  TYR217     -0.2866
    138  N         13.3110    8.2200   24.4110 N.am  218  PRO218     -0.2718
    139  CA        11.9850    8.1120   23.7520 C.3   218  PRO218      0.1535
    140  C         11.1760    6.8630   24.0860 C.2   218  PRO218      0.2598
    141  O          9.9600    6.8780   23.8770 O.2   218  PRO218     -0.2715
    142  CB        12.2900    8.2240   22.2590 C.3   218  PRO218      0.0310
    143  CG        13.7580    7.9610   22.1130 C.3   218  PRO218      0.0237
    144  CD        14.4280    8.1570   23.4400 C.3   218  PRO218      0.0939
    145  N         11.8400    5.7910   24.5550 N.am  219  ILE219     -0.1964
    146  CA        11.1790    4.5420   24.9480 C.3   219  ILE219      0.1727
    147  C         10.9900    4.6080   26.4690 C.2   219  ILE219      0.2616
    148  O         11.9540    4.8650   27.2000 O.2   219  ILE219     -0.2715
    149  CB        11.9030    3.2250   24.4910 C.3   219  ILE219      0.0290
    150  CG1       12.5370    3.2920   23.0580 C.3   219  ILE219      0.0022
    151  CG2       10.9750    2.0070   24.6530 C.3   219  ILE219      0.0023
    152  CD1       11.5780    3.4620   21.8440 C.3   219  ILE219      0.0001
    153  N          9.7400    4.4160   26.9310 N.am  220  ALA220     -0.1963
    154  CA         9.3110    4.5110   28.3290 C.3   220  ALA220      0.1728
    155  C         10.1800    3.7650   29.3190 C.2   220  ALA220      0.2616
    156  O         10.5750    2.6230   29.0720 O.2   220  ALA220     -0.2715
    157  CB         7.8650    4.0810   28.4770 C.3   220  ALA220      0.0334
    158  N         10.5030    4.4590   30.4250 N.am  221  VAL221     -0.1977
    159  CA        11.3010    3.9670   31.5440 C.3   221  VAL221      0.1596
    160  C         10.4270    3.7180   32.7820 C.2   221  VAL221      0.2287
    161  O          9.6290    4.5790   33.1770 O.2   221  VAL221     -0.2864
    162  CB        12.5850    4.8150   31.8500 C.3   221  VAL221      0.0276
    163  CG1       13.6140    4.7000   30.7250 C.3   221  VAL221      0.0022
    164  CG2       12.2730    6.2900   32.1500 C.3   221  VAL221      0.0022
@<TRIPOS>BOND
     1     7     8    1
     2     7     6    1
     3     6     5    1
     4     5     2    1
     5     2     1    1
     6     2     3    1
     7     4     3    2
     8     3     9   am
     9    39    37    1
    10    18    17    1
    11    38    37    1
    12   115   117   ar
    13   115   114   ar
    14   152   150    1
    15   143   142    1
    16   143   144    1
    17   117   118   ar
    18   142   139    1
    19    37    36    1
    20     9    10    1
    21   113   114    1
    22   113   110    1
    23   112   111    2
    24    17    19    1
    25    17    14    1
    26   114   116   ar
    27   109   110    1
    28    64    63    1
    29   150   149    1
    30   137   136    1
    31    43    42    2
    32   111   110    1
    33   144   138    1
    34    13    14    1
    35    13    11   am
    36   118   116   ar
    37    36    33    1
    38    61    63   ar
    39    61    59   ar
    40   139   140    1
    41   139   138    1
    42    10    11    1
    43    14    15    1
    44   141   140    2
    45    63    62   ar
    46   136   134   ar
    47   136   135   ar
    48   140   145   am
    49    11    12    2
    50   107   105   ar
    51   107   108   ar
    52    42    41    1
    53   134   132   ar
    54   138   128   am
    55   149   151    1
    56   149   146    1
    57   145   146    1
    58   105   104   ar
    59    59    58   ar
    60   108   106   ar
    61   135   133   ar
    62    31    30    2
    63    33    34    1
    64    33    32    1
    65    40    41    1
    66    40    34   am
    67   146   147    1
    68    15    16    2
    69    15    20   am
    70    62    60   ar
    71    41    44    1
    72    34    35    2
    73   132   131   ar
    74   104   106   ar
    75   104   103    1
    76   133   131   ar
    77    30    32   am
    78    30    29    1
    79   128   129    2
    80   128   127    1
    81    58    60   ar
    82    58    57    1
    83    20    21    1
    84   131   130    1
    85   103   100    1
    86    89    88   ar
    87    89    87   ar
    88   127   130    1
    89   127   126    1
    90   102   101    2
    91   147   153   am
    92   147   148    2
    93    51    50    2
    94    97    96   ar
    95    28    29    1
    96    28    22   am
    97    88    86   ar
    98   100   101    1
    99   100    99    1
   100   153   154    1
   101    57    54    1
   102    54    53    1
   103    54    55    1
   104    98    96   ar
   105    21    22    1
   106    21    24    1
   107    53    47   am
   108    87    85   ar
   109    50    52   am
   110    50    49    1
   111    96    95    1
   112    22    23    2
   113    55    56    2
   114    86    85   ar
   115   154   157    1
   116   154   155    1
   117    24    25    1
   118    85    84    1
   119    47    46    1
   120    47    48    2
   121    25    26    1
   122    25    27    1
   123    46    49    1
   124    46    45    1
   125    95    94    1
   126    93    92    2
   127   156   155    2
   128    83    82    2
   129   155   158   am
   130    91    94    1
   131    91    92    1
   132    91    90    1
   133    82    90   am
   134    82    81    1
   135   122   121    2
   136    84    81    1
   137   121   120    1
   138   158   159    1
   139    81    80    1
   140    78    77    1
   141   163   162    1
   142    76    75    2
   143   159   162    1
   144   159   160    1
   145    79    77    1
   146   120   119    1
   147   120   123    1
   148   162   164    1
   149    77    74    1
   150    74    75    1
   151    74    73    1
   152   124   123    1
   153   160   161    2
   154    68    67    2
   155   123   125    1
   156    73    67   am
   157    67    66    1
   158    69    66    1
   159    69    70    1
   160    66    65    1
   161    71    70    1
   162    70    72    1
