@<TRIPOS>MOLECULE
tmp/3kmeB00.pdb
 164 160 0 0 0
SMALL
GASTEIGER

@<TRIPOS>ATOM
      1  N         40.2750   36.6990   34.2530 N.3    95  VAL95      -0.1231
      2  CA        40.8510   37.3680   35.4290 C.3    95  VAL95       0.1692
      3  C         41.6090   38.6780   35.1050 C.2    95  VAL95       0.2591
      4  O         41.4660   39.6590   35.8360 O.2    95  VAL95      -0.2718
      5  CB        41.6530   36.3800   36.3300 C.3    95  VAL95       0.0266
      6  CG1       42.9990   36.0000   35.7140 C.3    95  VAL95       0.0020
      7  CG2       41.8190   36.9190   37.7470 C.3    95  VAL95       0.0020
      8  N         42.3960   38.6860   34.0050 N.am   96  LYS96      -0.1980
      9  CA        43.1600   39.8710   33.5820 C.3    96  LYS96       0.1596
     10  C         42.2150   41.0420   33.2840 C.2    96  LYS96       0.2287
     11  O         42.4170   42.1460   33.7800 O.2    96  LYS96      -0.2864
     12  CB        44.0290   39.5420   32.3600 C.3    96  LYS96       0.0298
     13  CG        45.1590   38.5920   32.8420 C.3    96  LYS96       0.0038
     14  CD        46.1260   38.4430   31.6710 C.3    96  LYS96       0.0206
     15  CE        46.4470   36.9520   31.5360 C.3    96  LYS96       0.1093
     16  NZ        45.1140   36.2430   31.4980 N.3    96  LYS96      -0.1314
     17  N         42.2480   27.4440   35.0110 N.3   126  MET126     -0.1230
     18  CA        43.5920   26.9470   35.3640 C.3   126  MET126      0.1702
     19  C         43.9930   27.0850   36.8540 C.2   126  MET126      0.2593
     20  O         45.1790   27.2710   37.1590 O.2   126  MET126     -0.2718
     21  CB        44.6830   27.5600   34.4510 C.3   126  MET126      0.0401
     22  CG        44.4320   27.3990   32.9590 C.3   126  MET126      0.0596
     23  SD        45.6670   28.2950   31.9780 S.3   126  MET126     -0.1393
     24  CE        45.2820   30.0090   32.4120 C.3   126  MET126      0.0692
     25  N         43.0140   27.0050   37.7540 N.am  127  GLY127     -0.1942
     26  CA        43.2530   27.0970   39.1950 C.3   127  GLY127      0.2014
     27  C         43.6340   28.4630   39.7380 C.2   127  GLY127      0.2640
     28  O         44.0680   28.5540   40.8850 O.2   127  GLY127     -0.2714
     29  N         43.4950   29.5380   38.9200 N.am  128  THR128     -0.1936
     30  CA        43.7700   30.9260   39.3230 C.3   128  THR128      0.2028
     31  C         42.7760   31.3550   40.4160 C.2   128  THR128      0.2642
     32  O         41.5730   31.1340   40.2880 O.2   128  THR128     -0.2714
     33  CB        43.6880   31.8630   38.0950 C.3   128  THR128      0.1808
     34  OG1       44.7520   31.5210   37.2090 O.3   128  THR128     -0.2208
     35  CG2       43.7980   33.3420   38.4670 C.3   128  THR128      0.0379
     36  N         43.2870   32.0250   41.4520 N.am  129  LEU129     -0.1963
     37  CA        42.4900   32.5150   42.5800 C.3   129  LEU129      0.1728
     38  C         42.5260   34.0370   42.7630 C.2   129  LEU129      0.2617
     39  O         41.6480   34.6060   43.4260 O.2   129  LEU129     -0.2715
     40  CB        42.9280   31.7960   43.8620 C.3   129  LEU129      0.0311
     41  CG        42.3370   30.3860   44.0440 C.3   129  LEU129      0.0022
     42  CD1       43.0550   29.6570   45.1530 C.3   129  LEU129      0.0001
     43  CD2       40.8400   30.4640   44.3960 C.3   129  LEU129      0.0001
     44  N         43.5380   34.6790   42.1950 N.am  130  GLY130     -0.1940
     45  CA        43.6690   36.1280   42.2730 C.3   130  GLY130      0.2014
     46  C         44.5950   36.7050   41.2290 C.2   130  GLY130      0.2638
     47  O         45.2170   35.9720   40.4510 O.2   130  GLY130     -0.2714
     48  N         44.7170   38.0280   41.2420 N.am  131  LEU131     -0.1977
     49  CA        45.5890   38.7920   40.3460 C.3   131  LEU131      0.1596
     50  C         45.8680   40.1410   40.9920 C.2   131  LEU131      0.2287
     51  O         45.0530   40.6300   41.7950 O.2   131  LEU131     -0.2864
     52  CB        44.9220   38.9520   38.9810 C.3   131  LEU131      0.0297
     53  CG        45.7930   39.3770   37.7990 C.3   131  LEU131      0.0022
     54  CD1       46.6660   38.2250   37.2850 C.3   131  LEU131      0.0001
     55  CD2       44.9190   39.8400   36.6700 C.3   131  LEU131      0.0001
     56  N         43.0660   29.1250   53.0990 N.3   179  GLU179     -0.1245
     57  CA        43.5840   29.3150   51.7490 C.3   179  GLU179      0.1567
     58  C         43.2690   30.7200   51.2660 C.2   179  GLU179      0.2260
     59  O         44.1320   31.3490   50.6270 O.2   179  GLU179     -0.2867
     60  CB        43.0960   28.2390   50.7760 C.3   179  GLU179      0.0388
     61  CG        44.0220   28.1360   49.5630 C.3   179  GLU179      0.1160
     62  CD        43.6230   27.2210   48.4190 C.2   179  GLU179      0.3649
     63  OE1       42.8720   26.2450   48.6460 O.co2 179  GLU179     -0.2457
     64  OE2       44.1040   27.4610   47.2910 O.co2 179  GLU179     -0.2457
     65  N         45.7780   33.2110   52.3080 N.3   182  LEU182     -0.1231
     66  CA        46.9940   33.1140   51.4950 C.3   182  LEU182      0.1693
     67  C         46.8620   33.7240   50.1100 C.2   182  LEU182      0.2591
     68  O         47.8390   34.3010   49.6300 O.2   182  LEU182     -0.2718
     69  CB        47.5330   31.6820   51.4620 C.3   182  LEU182      0.0284
     70  CG        47.8880   31.1280   52.8740 C.3   182  LEU182      0.0019
     71  CD1       48.5000   29.7840   52.7800 C.3   182  LEU182      0.0001
     72  CD2       48.8510   32.0650   53.6210 C.3   182  LEU182      0.0001
     73  N         45.6570   33.6740   49.5160 N.am  183  VAL183     -0.1980
     74  CA        45.3690   34.3000   48.2150 C.3   183  VAL183      0.1595
     75  C         45.6300   35.7880   48.3770 C.2   183  VAL183      0.2287
     76  O         46.4110   36.3820   47.6030 O.2   183  VAL183     -0.2864
     77  CB        43.9230   34.0430   47.6770 C.3   183  VAL183      0.0276
     78  CG1       43.6930   34.7680   46.3320 C.3   183  VAL183      0.0022
     79  CG2       43.6310   32.5510   47.5270 C.3   183  VAL183      0.0022
     80  N         49.3270   36.6200   49.0810 N.3   186  HIS186     -0.1226
     81  CA        50.0600   36.4840   47.8120 C.3   186  HIS186      0.1752
     82  C         49.8010   37.6860   46.8970 C.2   186  HIS186      0.2595
     83  O         50.7600   38.2430   46.3630 O.2   186  HIS186     -0.2718
     84  CB        49.6550   35.1720   47.0930 C.3   186  HIS186      0.0759
     85  CG        50.3080   34.9530   45.7570 C.ar  186  HIS186      0.0818
     86  ND1       51.3160   34.0240   45.5980 N.ar  186  HIS186     -0.2268
     87  CD2       49.9940   35.4740   44.5390 C.ar  186  HIS186      0.1154
     88  CE1       51.6230   34.0390   44.3100 C.ar  186  HIS186      0.1986
     89  NE2       50.8610   34.9030   43.6350 N.ar  186  HIS186     -0.2212
     90  N         48.5220   38.0770   46.6970 N.am  187  GLU187     -0.1979
     91  CA        48.2010   39.2050   45.7930 C.3   187  GLU187      0.1602
     92  C         48.7530   40.5230   46.3100 C.2   187  GLU187      0.2287
     93  O         49.3740   41.2720   45.5450 O.2   187  GLU187     -0.2864
     94  CB        46.7050   39.2830   45.4510 C.3   187  GLU187      0.0415
     95  CG        46.1570   38.0800   44.6890 C.3   187  GLU187      0.1163
     96  CD        46.9860   37.5330   43.5450 C.2   187  GLU187      0.3649
     97  OE1       47.7310   38.3070   42.9000 O.co2 187  GLU187     -0.2457
     98  OE2       46.8740   36.3170   43.2790 O.co2 187  GLU187     -0.2457
     99  N         52.5110   40.7410   45.5950 N.3   190  HIS190     -0.1241
    100  CA        52.7380   41.3030   44.2580 C.3   190  HIS190      0.1621
    101  C         52.6150   42.8400   44.3340 C.2   190  HIS190      0.2264
    102  O         53.4490   43.5440   43.7580 O.2   190  HIS190     -0.2867
    103  CB        51.7100   40.7840   43.2380 C.3   190  HIS190      0.0745
    104  CG        51.9710   39.4020   42.7130 C.ar  190  HIS190      0.0817
    105  ND1       53.2380   39.0070   42.2980 N.ar  190  HIS190     -0.2268
    106  CD2       51.1030   38.3870   42.5000 C.ar  190  HIS190      0.1154
    107  CE1       53.0960   37.7730   41.8430 C.ar  190  HIS190      0.1986
    108  NE2       51.8380   37.3470   41.9680 N.ar  190  HIS190     -0.2212
    109  N         56.8500   35.8670   41.6980 N.3   196  HIS196     -0.1241
    110  CA        56.7480   34.5090   42.1870 C.3   196  HIS196      0.1621
    111  C         58.0670   33.9420   42.6060 C.2   196  HIS196      0.2264
    112  O         59.1250   34.2740   42.0410 O.2   196  HIS196     -0.2867
    113  CB        56.1420   33.6030   41.1120 C.3   196  HIS196      0.0745
    114  CG        54.7170   33.8960   40.8250 C.ar  196  HIS196      0.0817
    115  ND1       54.1540   33.5700   39.6200 N.ar  196  HIS196     -0.2268
    116  CD2       53.7700   34.4500   41.6240 C.ar  196  HIS196      0.1154
    117  CE1       52.8880   33.9300   39.7110 C.ar  196  HIS196      0.1986
    118  NE2       52.6220   34.4730   40.8980 N.ar  196  HIS196     -0.2212
    119  N         54.5810   31.7510   50.5500 N.3   215  VAL215     -0.1245
    120  CA        53.3580   32.3370   49.9900 C.3   215  VAL215      0.1561
    121  C         53.4390   32.7970   48.5230 C.2   215  VAL215      0.2260
    122  O         52.4160   32.7700   47.8470 O.2   215  VAL215     -0.2867
    123  CB        52.7420   33.4050   50.9390 C.3   215  VAL215      0.0252
    124  CG1       53.5110   34.7280   50.8620 C.3   215  VAL215      0.0019
    125  CG2       51.2400   33.5920   50.6770 C.3   215  VAL215      0.0019
    126  N         54.7430   31.3260   46.0740 N.3   217  TYR217     -0.1228
    127  CA        54.7670   30.1970   45.1580 C.3   217  TYR217      0.1721
    128  C         53.7420   30.4470   44.0320 C.2   217  TYR217      0.2437
    129  O         52.6700   30.9990   44.3040 O.2   217  TYR217     -0.2733
    130  CB        54.5060   28.8790   45.8830 C.3   217  TYR217      0.0547
    131  CG        55.0040   27.6960   45.0830 C.ar  217  TYR217     -0.0200
    132  CD1       56.3680   27.4400   44.9550 C.ar  217  TYR217     -0.0009
    133  CD2       54.1180   26.8820   44.3820 C.ar  217  TYR217     -0.0009
    134  CE1       56.8380   26.4250   44.1260 C.ar  217  TYR217      0.0417
    135  CE2       54.5770   25.8430   43.5740 C.ar  217  TYR217      0.0417
    136  CZ        55.9380   25.6110   43.4590 C.ar  217  TYR217      0.1957
    137  OH        56.3980   24.5690   42.6980 O.3   217  TYR217     -0.2866
    138  N         54.0830   30.1570   42.7470 N.am  218  PRO218     -0.2718
    139  CA        53.1570   30.5060   41.6390 C.3   218  PRO218      0.1535
    140  C         51.8110   29.7930   41.6400 C.2   218  PRO218      0.2598
    141  O         50.8320   30.3520   41.1420 O.2   218  PRO218     -0.2715
    142  CB        53.9730   30.1900   40.3770 C.3   218  PRO218      0.0310
    143  CG        55.0030   29.1780   40.8210 C.3   218  PRO218      0.0237
    144  CD        55.3570   29.6040   42.2290 C.3   218  PRO218      0.0939
    145  N         51.7710   28.5740   42.1870 N.am  219  ILE219     -0.1964
    146  CA        50.5740   27.7300   42.2750 C.3   219  ILE219      0.1727
    147  C         50.0690   27.7700   43.7150 C.2   219  ILE219      0.2616
    148  O         50.8700   27.6420   44.6470 O.2   219  ILE219     -0.2715
    149  CB        50.8720   26.2860   41.7570 C.3   219  ILE219      0.0290
    150  CG1       50.9940   26.2850   40.2070 C.3   219  ILE219      0.0022
    151  CG2       49.8100   25.2570   42.2320 C.3   219  ILE219      0.0023
    152  CD1       52.0260   25.3070   39.6530 C.3   219  ILE219      0.0001
    153  N         48.7460   27.9870   43.8850 N.am  220  ALA220     -0.1963
    154  CA        48.0940   28.0940   45.1990 C.3   220  ALA220      0.1728
    155  C         48.5180   27.0070   46.1650 C.2   220  ALA220      0.2616
    156  O         48.3660   25.8270   45.8820 O.2   220  ALA220     -0.2715
    157  CB        46.5800   28.1160   45.0540 C.3   220  ALA220      0.0334
    158  N         49.1150   27.4170   47.2690 N.am  221  VAL221     -0.1977
    159  CA        49.5220   26.5150   48.3400 C.3   221  VAL221      0.1596
    160  C         48.2650   26.2610   49.2090 C.2   221  VAL221      0.2287
    161  O         47.4180   27.1510   49.3360 O.2   221  VAL221     -0.2864
    162  CB        50.7330   27.0490   49.1720 C.3   221  VAL221      0.0276
    163  CG1       52.0110   27.0680   48.3310 C.3   221  VAL221      0.0022
    164  CG2       50.4570   28.4190   49.7850 C.3   221  VAL221      0.0022
@<TRIPOS>BOND
     1    16    15    1
     2    15    14    1
     3    14    13    1
     4    23    24    1
     5    23    22    1
     6    12    13    1
     7    12     9    1
     8    22    21    1
     9    10     9    1
    10    10    11    2
    11     9     8    1
    12     8     3   am
    13     1     2    1
    14    21    18    1
    15    17    18    1
    16     3     2    1
    17     3     4    2
    18    18    19    1
    19     2     5    1
    20     6     5    1
    21     5     7    1
    22    55    53    1
    23    19    20    2
    24    19    25   am
    25    34    33    1
    26    54    53    1
    27    25    26    1
    28    53    52    1
    29    33    35    1
    30    33    30    1
    31    29    30    1
    32    29    27   am
    33    52    49    1
    34    26    27    1
    35    30    31    1
    36   115   117   ar
    37   115   114   ar
    38   152   150    1
    39   117   118   ar
    40    27    28    2
    41   150   149    1
    42    32    31    2
    43    49    50    1
    44    49    48    1
    45   142   143    1
    46   142   139    1
    47    31    36   am
    48    47    46    2
    49   143   144    1
    50   114   113    1
    51   114   116   ar
    52   118   116   ar
    53    50    51    2
    54   113   110    1
    55   141   140    2
    56    46    48   am
    57    46    45    1
    58    36    37    1
    59   139   140    1
    60   139   138    1
    61   140   145   am
    62   109   110    1
    63   149   151    1
    64   149   146    1
    65   107   108   ar
    66   107   105   ar
    67   108   106   ar
    68   112   111    2
    69   110   111    1
    70   145   146    1
    71    44    45    1
    72    44    38   am
    73   144   138    1
    74   146   147    1
    75   105   104   ar
    76   106   104   ar
    77    37    38    1
    78    37    40    1
    79   137   136    1
    80   104   103    1
    81   138   128   am
    82    38    39    2
    83    97    96   ar
    84   103   100    1
    85    98    96   ar
    86   136   135   ar
    87   136   134   ar
    88    96    95    1
    89   135   133   ar
    90    89    88   ar
    91    89    87   ar
    92   147   153   am
    93   147   148    2
    94   102   101    2
    95    40    41    1
    96   153   154    1
    97   128   129    2
    98   128   127    1
    99    41    43    1
   100    41    42    1
   101   134   132   ar
   102   100   101    1
   103   100    99    1
   104    88    86   ar
   105   133   131   ar
   106    87    85   ar
   107    95    94    1
   108   132   131   ar
   109   157   154    1
   110   131   130    1
   111   127   130    1
   112   127   126    1
   113   154   155    1
   114    94    91    1
   115    93    92    2
   116    86    85   ar
   117    85    84    1
   118    91    92    1
   119    91    90    1
   120   156   155    2
   121   155   158   am
   122    78    77    1
   123    83    82    2
   124    90    82   am
   125    82    81    1
   126    84    81    1
   127   158   159    1
   128    64    62   ar
   129    79    77    1
   130    76    75    2
   131    77    74    1
   132    81    80    1
   133   122   121    2
   134    74    75    1
   135    74    73    1
   136   163   162    1
   137   159   162    1
   138   159   160    1
   139    62    63   ar
   140    62    61    1
   141   121   120    1
   142   162   164    1
   143   160   161    2
   144    73    67   am
   145    61    60    1
   146    68    67    2
   147   120   119    1
   148   120   123    1
   149    67    66    1
   150    59    58    2
   151   125   123    1
   152    60    57    1
   153   124   123    1
   154    58    57    1
   155    69    66    1
   156    69    70    1
   157    66    65    1
   158    57    56    1
   159    71    70    1
   160    70    72    1
