@<TRIPOS>MOLECULE
tmp/3kmgA00.pdb
 165 157 0 0 0
SMALL
GASTEIGER

@<TRIPOS>ATOM
      1  N         22.5750   22.3610    2.9940 N.3    77  VAL77      -0.1231
      2  CA        23.1160   23.0120    1.8050 C.3    77  VAL77       0.1692
      3  C         23.4170   21.9880    0.7030 C.2    77  VAL77       0.2591
      4  O         23.1350   22.2410   -0.4740 O.2    77  VAL77      -0.2718
      5  CB        24.3720   23.8690    2.1220 C.3    77  VAL77       0.0266
      6  CG1       25.0810   24.2950    0.8420 C.3    77  VAL77       0.0020
      7  CG2       23.9880   25.0840    2.9560 C.3    77  VAL77       0.0020
      8  N         23.9480   20.8270    1.0970 N.am   78  GLN78      -0.1979
      9  CA        24.2160   19.7470    0.1500 C.3    78  GLN78       0.1601
     10  C         22.9490   19.1560   -0.4480 C.2    78  GLN78       0.2287
     11  O         22.8830   18.9550   -1.6570 O.2    78  GLN78      -0.2864
     12  CB        25.0290   18.6440    0.8080 C.3    78  GLN78       0.0394
     13  CG        26.3830   19.1210    1.2570 C.3    78  GLN78       0.0908
     14  CD        27.1390   18.0440    1.9720 C.2    78  GLN78       0.2608
     15  OE1       27.4070   16.9930    1.4060 O.2    78  GLN78      -0.2717
     16  NE2       27.4770   18.2900    3.2290 N.am   78  GLN78      -0.0878
     17  N         21.4320   21.6880   -2.8330 N.3    81  THR81      -0.1218
     18  CA        22.2260   21.7320   -4.0620 C.3    81  THR81       0.1862
     19  C         21.8860   20.5620   -4.9880 C.2    81  THR81       0.2287
     20  O         21.7150   20.7630   -6.1900 O.2    81  THR81      -0.2866
     21  CB        23.7450   21.7290   -3.7620 C.3    81  THR81       0.1770
     22  OG1       24.0650   22.8810   -2.9820 O.3    81  THR81      -0.2211
     23  CG2       24.5790   21.7420   -5.0550 C.3    81  THR81       0.0375
     24  N         19.9030   20.9620   -8.7630 N.3    85  LYS85      -0.1245
     25  CA        20.3760   20.3560  -10.0120 C.3    85  LYS85       0.1561
     26  C         19.2810   19.6260  -10.7830 C.2    85  LYS85       0.2260
     27  O         19.3810   19.4650  -12.0020 O.2    85  LYS85      -0.2867
     28  CB        21.5070   19.3670   -9.7550 C.3    85  LYS85       0.0271
     29  CG        22.8080   19.9820   -9.2990 C.3    85  LYS85       0.0035
     30  CD        23.6690   18.9030   -8.6150 C.3    85  LYS85       0.0206
     31  CE        25.1420   19.2060   -8.6460 C.3    85  LYS85       0.1093
     32  NZ        25.9360   18.1190   -7.9630 N.3    85  LYS85      -0.1314
     33  N         18.2350   24.3240  -14.7090 N.3    90  PHE90      -0.1227
     34  CA        19.1420   24.9010  -13.7200 C.3    90  PHE90       0.1736
     35  C         20.6110   24.6590  -14.0580 C.2    90  PHE90       0.2595
     36  O         21.4190   25.5960  -14.0240 O.2    90  PHE90      -0.2718
     37  CB        18.8390   24.3710  -12.3070 C.3    90  PHE90       0.0547
     38  CG        19.6750   25.0170  -11.2320 C.ar   90  PHE90      -0.0202
     39  CD1       19.2620   26.1960  -10.6300 C.ar   90  PHE90      -0.0042
     40  CD2       20.8870   24.4690  -10.8540 C.ar   90  PHE90      -0.0042
     41  CE1       20.0360   26.8090   -9.6510 C.ar   90  PHE90      -0.0003
     42  CE2       21.6690   25.0760   -9.8750 C.ar   90  PHE90      -0.0003
     43  CZ        21.2300   26.2490   -9.2650 C.ar   90  PHE90      -0.0000
     44  N         20.9660   23.4140  -14.3810 N.am   91  VAL91      -0.1980
     45  CA        22.3730   23.0830  -14.6480 C.3    91  VAL91       0.1595
     46  C         22.8740   23.6550  -15.9760 C.2    91  VAL91       0.2287
     47  O         24.0830   23.6600  -16.2300 O.2    91  VAL91      -0.2864
     48  CB        22.6670   21.5530  -14.5800 C.3    91  VAL91       0.0276
     49  CG1       22.2420   20.9900  -13.2230 C.3    91  VAL91       0.0022
     50  CG2       22.0180   20.7920  -15.7520 C.3    91  VAL91       0.0022
     51  N         27.4540   29.0200  -14.5670 N.3    95  LEU95      -0.1231
     52  CA        27.8520   28.4130  -13.3030 C.3    95  LEU95       0.1693
     53  C         27.9790   29.4320  -12.1670 C.2    95  LEU95       0.2592
     54  O         27.6640   29.1250  -11.0250 O.2    95  LEU95      -0.2718
     55  CB        29.1580   27.6510  -13.4790 C.3    95  LEU95       0.0284
     56  CG        29.6920   26.9260  -12.2460 C.3    95  LEU95       0.0019
     57  CD1       28.6250   26.0200  -11.6320 C.3    95  LEU95       0.0001
     58  CD2       30.9570   26.1450  -12.6570 C.3    95  LEU95       0.0001
     59  N         28.4450   30.6380  -12.4940 N.am   96  ASN96      -0.1974
     60  CA        28.5000   31.7400  -11.5250 C.3    96  ASN96       0.1688
     61  C         27.1160   32.1080  -10.9920 C.2    96  ASN96       0.2292
     62  O         26.9660   32.4870   -9.8270 O.2    96  ASN96      -0.2864
     63  CB        29.1310   32.9890  -12.1480 C.3    96  ASN96       0.1181
     64  CG        30.5420   32.7480  -12.6400 C.2    96  ASN96       0.2629
     65  OD1       31.4010   32.2800  -11.8950 O.2    96  ASN96      -0.2716
     66  ND2       30.7880   33.0750  -13.9020 N.am   96  ASN96      -0.0877
     67  N         24.4830   29.9040  -10.9730 N.3    98  GLN98      -0.1231
     68  CA        24.0910   28.7590  -10.1480 C.3    98  GLN98       0.1698
     69  C         24.5750   28.9150   -8.6980 C.2    98  GLN98       0.2592
     70  O         23.8150   28.6960   -7.7560 O.2    98  GLN98      -0.2718
     71  CB        24.6270   27.4530  -10.7350 C.3    98  GLN98       0.0381
     72  CG        24.0010   27.0420  -12.0520 C.3    98  GLN98       0.0905
     73  CD        24.5400   25.7150  -12.5580 C.2    98  GLN98       0.2608
     74  OE1       24.5520   24.7230  -11.8230 O.2    98  GLN98      -0.2717
     75  NE2       24.9850   25.6890  -13.8150 N.am   98  GLN98      -0.0878
     76  N         25.8360   29.3070   -8.5420 N.am   99  VAL99      -0.1980
     77  CA        26.4410   29.5620   -7.2330 C.3    99  VAL99       0.1595
     78  C         25.7370   30.7270   -6.5180 C.2    99  VAL99       0.2287
     79  O         25.4630   30.6530   -5.3110 O.2    99  VAL99      -0.2864
     80  CB        27.9490   29.8680   -7.3790 C.3    99  VAL99       0.0276
     81  CG1       28.5350   30.4310   -6.0850 C.3    99  VAL99       0.0022
     82  CG2       28.6910   28.6110   -7.8070 C.3    99  VAL99       0.0022
     83  N         22.3250   29.6770   -5.2000 N.3   102  LEU102     -0.1231
     84  CA        22.4060   28.8580   -3.9830 C.3   102  LEU102      0.1693
     85  C         22.8080   29.7200   -2.7950 C.2   102  LEU102      0.2591
     86  O         22.1950   29.6350   -1.7330 O.2   102  LEU102     -0.2718
     87  CB        23.3820   27.6900   -4.1230 C.3   102  LEU102      0.0284
     88  CG        22.8870   26.4560   -4.8750 C.3   102  LEU102      0.0019
     89  CD1       24.0770   25.5430   -5.1690 C.3   102  LEU102      0.0001
     90  CD2       21.8350   25.7090   -4.0680 C.3   102  LEU102      0.0001
     91  N         23.8280   30.5460   -2.9860 N.am  103  LYS103     -0.1980
     92  CA        24.3370   31.4150   -1.9290 C.3   103  LYS103      0.1596
     93  C         23.1980   32.2060   -1.2740 C.2   103  LYS103      0.2287
     94  O         23.0950   32.2540   -0.0410 O.2   103  LYS103     -0.2864
     95  CB        25.3850   32.3700   -2.5080 C.3   103  LYS103      0.0298
     96  CG        26.0580   33.3050   -1.5140 C.3   103  LYS103      0.0038
     97  CD        26.9400   34.3050   -2.2430 C.3   103  LYS103      0.0206
     98  CE        27.5500   35.3120   -1.2990 C.3   103  LYS103      0.1093
     99  NZ        28.5650   34.7020   -0.4150 N.3   103  LYS103     -0.1314
    100  N         19.7580   29.6330    0.0500 N.3   106  VAL106     -0.1245
    101  CA        19.7570   28.5640    1.0700 C.3   106  VAL106      0.1561
    102  C         19.1070   28.9510    2.3980 C.2   106  VAL106      0.2260
    103  O         18.4590   28.1300    3.0060 O.2   106  VAL106     -0.2867
    104  CB        21.1610   27.9760    1.3540 C.3   106  VAL106      0.0252
    105  CG1       21.6540   27.1470    0.1570 C.3   106  VAL106      0.0019
    106  CG2       22.1570   29.0780    1.7380 C.3   106  VAL106      0.0019
    107  N         31.8190   26.9120   10.3430 N.3   249  HIS249     -0.1227
    108  CA        32.1480   25.9310    9.3130 C.3   249  HIS249      0.1737
    109  C         32.4800   26.6180    7.9700 C.2   249  HIS249      0.2438
    110  O         31.7690   27.5350    7.5590 O.2   249  HIS249     -0.2733
    111  CB        30.9740   24.9710    9.1230 C.3   249  HIS249      0.0758
    112  CG        31.2750   23.8240    8.2170 C.ar  249  HIS249      0.0818
    113  ND1       31.3930   23.9690    6.8530 N.ar  249  HIS249     -0.2268
    114  CD2       31.4910   22.5120    8.4780 C.ar  249  HIS249      0.1154
    115  CE1       31.6680   22.7970    6.3100 C.ar  249  HIS249      0.1986
    116  NE2       31.7340   21.8960    7.2750 N.ar  249  HIS249     -0.2212
    117  N         33.5510   26.1720    7.2830 N.am  250  PRO250     -0.2718
    118  CA        33.9850   26.8150    6.0410 C.3   250  PRO250      0.1535
    119  C         32.8960   27.0590    4.9910 C.2   250  PRO250      0.2598
    120  O         32.8910   28.1140    4.3720 O.2   250  PRO250     -0.2715
    121  CB        35.0490   25.8490    5.4970 C.3   250  PRO250      0.0310
    122  CG        35.5940   25.1900    6.6770 C.3   250  PRO250      0.0237
    123  CD        34.4950   25.1200    7.7040 C.3   250  PRO250      0.0939
    124  N         32.0040   26.0940    4.7720 N.am  251  LEU251     -0.1978
    125  CA        30.9090   26.2620    3.8080 C.3   251  LEU251      0.1596
    126  C         29.9560   27.4000    4.1940 C.2   251  LEU251      0.2287
    127  O         29.4570   28.1160    3.3200 O.2   251  LEU251     -0.2864
    128  CB        30.1230   24.9580    3.6470 C.3   251  LEU251      0.0297
    129  CG        28.9070   24.9810    2.7150 C.3   251  LEU251      0.0022
    130  CD1       29.2970   25.4580    1.3220 C.3   251  LEU251      0.0001
    131  CD2       28.2750   23.5970    2.6460 C.3   251  LEU251      0.0001
    132  N         31.6720   30.7370    3.5880 N.3   254  GLU254     -0.1231
    133  CA        31.6280   30.9360    2.1420 C.3   254  GLU254      0.1699
    134  C         30.3060   31.5710    1.7240 C.2   254  GLU254      0.2592
    135  O         30.2730   32.4980    0.9220 O.2   254  GLU254     -0.2718
    136  CB        31.7970   29.5730    1.4570 C.3   254  GLU254      0.0402
    137  CG        32.3400   29.6190    0.0750 C.3   254  GLU254      0.1161
    138  CD        32.5330   28.2410   -0.5050 C.2   254  GLU254      0.3649
    139  OE1       33.5790   27.6240   -0.2300 O.co2 254  GLU254     -0.2457
    140  OE2       31.6550   27.7830   -1.2660 O.co2 254  GLU254     -0.2457
    141  N         29.2120   31.0720    2.2860 N.am  255  ILE255     -0.1980
    142  CA        27.8920   31.6280    2.0360 C.3   255  ILE255      0.1595
    143  C         27.7660   33.0650    2.5560 C.2   255  ILE255      0.2287
    144  O         27.2380   33.9280    1.8600 O.2   255  ILE255     -0.2864
    145  CB        26.8040   30.7460    2.6600 C.3   255  ILE255      0.0276
    146  CG1       26.6850   29.4400    1.8620 C.3   255  ILE255      0.0022
    147  CG2       25.4590   31.4860    2.7140 C.3   255  ILE255      0.0022
    148  CD1       26.0330   28.3300    2.6260 C.3   255  ILE255      0.0001
    149  N         30.2140   35.2720    3.2190 N.3   257  LYS257     -0.1231
    150  CA        31.1740   36.2150    2.6500 C.3   257  LYS257      0.1693
    151  C         30.4950   37.0970    1.6010 C.2   257  LYS257      0.2592
    152  O         29.9480   36.5990    0.6180 O.2   257  LYS257     -0.2718
    153  CB        32.3720   35.4820    2.0390 C.3   257  LYS257      0.0285
    154  CG        33.5140   36.4110    1.6300 C.3   257  LYS257      0.0035
    155  CD        34.6530   35.6340    0.9690 C.3   257  LYS257      0.0206
    156  CE        35.6570   36.5630    0.2220 C.3   257  LYS257      0.1093
    157  NZ        36.4380   37.5230    1.0880 N.3   257  LYS257     -0.1314
    158  N         30.5090   38.4060    1.8540 N.am  258  ASP258     -0.1974
    159  CA        29.9000   39.4170    0.9740 C.3   258  ASP258      0.1709
    160  C         28.3980   39.2110    0.7450 C.2   258  ASP258      0.2293
    161  O         27.8640   39.6210   -0.2910 O.2   258  ASP258     -0.2864
    162  CB        30.6440   39.4790   -0.3670 C.3   258  ASP258      0.1436
    163  CG        32.1220   39.7670   -0.1970 C.2   258  ASP258      0.3671
    164  OD1       32.4590   40.7520    0.4990 O.co2 258  ASP258     -0.2456
    165  OD2       32.9470   39.0150   -0.7610 O.co2 258  ASP258     -0.2456
@<TRIPOS>BOND
     1    47    46    2
     2    46    45    1
     3    50    48    1
     4    33    34    1
     5    45    48    1
     6    45    44    1
     7    48    49    1
     8    51    52    1
     9    44    35   am
    10    35    36    2
    11    35    34    1
    12    66    64   am
    13    75    73   am
    14    34    37    1
    15    55    52    1
    16    55    56    1
    17    52    53    1
    18    58    56    1
    19    64    63    1
    20    64    65    2
    21    73    72    1
    22    73    74    2
    23    59    53   am
    24    59    60    1
    25    37    38    1
    26    56    57    1
    27    53    54    2
    28    63    60    1
    29    72    71    1
    30    27    26    2
    31    60    61    1
    32    38    40   ar
    33    38    39   ar
    34    61    62    2
    35    67    68    1
    36    40    42   ar
    37    26    25    1
    38    71    68    1
    39    39    41   ar
    40    68    69    1
    41    25    28    1
    42    25    24    1
    43    42    43   ar
    44    28    29    1
    45    41    43   ar
    46    29    30    1
    47    69    76   am
    48    69    70    2
    49    31    30    1
    50    31    32    1
    51    76    77    1
    52    82    80    1
    53    80    77    1
    54    80    81    1
    55    77    78    1
    56    78    79    2
    57    20    19    2
    58    83    84    1
    59    89    88    1
    60    23    21    1
    61    19    18    1
    62    88    87    1
    63    88    90    1
    64    87    84    1
    65    18    21    1
    66    18    17    1
    67    84    85    1
    68    21    22    1
    69    91    85   am
    70    91    92    1
    71    85    86    2
    72    95    92    1
    73    95    96    1
    74    97    96    1
    75    97    98    1
    76    92    93    1
    77    11    10    2
    78    98    99    1
    79    93    94    2
    80   140   138   ar
    81   165   163   ar
    82   138   139   ar
    83   138   137    1
    84     4     3    2
    85    10     9    1
    86   162   163    1
    87   162   159    1
    88   161   160    2
    89   163   164   ar
    90   100   101    1
    91   137   136    1
    92     9    12    1
    93     9     8    1
    94   105   104    1
    95   156   155    1
    96   156   157    1
    97   152   151    2
    98     3     8   am
    99     3     2    1
   100   160   159    1
   101    12    13    1
   102     6     5    1
   103   135   134    2
   104   155   154    1
   105   159   158    1
   106   101   104    1
   107   101   102    1
   108    13    14    1
   109   130   129    1
   110   104   106    1
   111    15    14    2
   112   136   133    1
   113   151   158   am
   114   151   150    1
   115   154   153    1
   116   134   133    1
   117   134   141   am
   118     2     5    1
   119     2     1    1
   120   144   143    2
   121   146   148    1
   122   146   145    1
   123    14    16   am
   124   142   141    1
   125   142   143    1
   126   142   145    1
   127   153   150    1
   128     5     7    1
   129   133   132    1
   130   102   103    2
   131   131   129    1
   132   150   149    1
   133   145   147    1
   134   129   128    1
   135   127   126    2
   136   128   125    1
   137   125   126    1
   138   125   124    1
   139   120   119    2
   140   124   119   am
   141   119   118    1
   142   121   118    1
   143   121   122    1
   144   118   117    1
   145   115   113   ar
   146   115   116   ar
   147   122   123    1
   148   113   112   ar
   149   116   114   ar
   150   117   123    1
   151   117   109   am
   152   110   109    2
   153   109   108    1
   154   112   114   ar
   155   112   111    1
   156   111   108    1
   157   108   107    1
