@<TRIPOS>MOLECULE
tmp/3kmhB00.pdb
 138 128 0 0 0
SMALL
GASTEIGER

@<TRIPOS>ATOM
      1  N         38.4670   19.4560   74.2870 N.3    57  PHE57      -0.1241
      2  CA        37.8000   20.7520   74.4460 C.3    57  PHE57       0.1605
      3  C         37.9820   21.3680   75.8390 C.2    57  PHE57       0.2264
      4  O         37.0380   21.8960   76.4300 O.2    57  PHE57      -0.2867
      5  CB        36.3250   20.6630   74.0280 C.3    57  PHE57       0.0534
      6  CG        36.1330   20.2410   72.5930 C.ar   57  PHE57      -0.0203
      7  CD1       36.2340   21.1690   71.5590 C.ar   57  PHE57      -0.0042
      8  CD2       35.8810   18.9080   72.2710 C.ar   57  PHE57      -0.0042
      9  CE1       36.0740   20.7810   70.2290 C.ar   57  PHE57      -0.0003
     10  CE2       35.7190   18.5110   70.9400 C.ar   57  PHE57      -0.0003
     11  CZ        35.8150   19.4470   69.9200 C.ar   57  PHE57      -0.0000
     12  N         37.4900   15.1490   69.9010 N.3    67  LEU67      -0.1245
     13  CA        37.5490   15.0270   68.4560 C.3    67  LEU67       0.1561
     14  C         38.9850   14.7670   68.0570 C.2    67  LEU67       0.2260
     15  O         39.9130   15.2350   68.7240 O.2    67  LEU67      -0.2867
     16  CB        37.0450   16.3210   67.7930 C.3    67  LEU67       0.0270
     17  CG        36.8020   16.3180   66.2810 C.3    67  LEU67       0.0019
     18  CD1       35.8740   15.1840   65.8670 C.3    67  LEU67       0.0001
     19  CD2       36.2400   17.6700   65.8410 C.3    67  LEU67       0.0001
     20  N         41.3710   14.9000   64.4700 N.3    69  LEU69      -0.1245
     21  CA        41.3260   15.4830   63.1270 C.3    69  LEU69       0.1561
     22  C         42.6980   15.4350   62.4820 C.2    69  LEU69       0.2260
     23  O         43.7170   15.4480   63.1730 O.2    69  LEU69      -0.2867
     24  CB        40.8810   16.9620   63.1800 C.3    69  LEU69       0.0270
     25  CG        39.7050   17.4300   64.0580 C.3    69  LEU69       0.0019
     26  CD1       40.1470   17.7580   65.4780 C.3    69  LEU69       0.0001
     27  CD2       39.0270   18.6390   63.4310 C.3    69  LEU69       0.0001
     28  N         39.7360   18.8200   56.0250 N.3    88  LYS88      -0.1245
     29  CA        40.1050   17.9640   57.1420 C.3    88  LYS88       0.1561
     30  C         39.4690   16.5960   56.9720 C.2    88  LYS88       0.2260
     31  O         38.4190   16.4530   56.3380 O.2    88  LYS88      -0.2867
     32  CB        39.6320   18.5390   58.4780 C.3    88  LYS88       0.0271
     33  CG        40.1770   19.9120   58.8060 C.3    88  LYS88       0.0035
     34  CD        39.7880   20.2980   60.2140 C.3    88  LYS88       0.0206
     35  CE        40.1620   21.7420   60.4910 C.3    88  LYS88       0.1093
     36  NZ        39.8570   22.0890   61.8980 N.3    88  LYS88      -0.1314
     37  N         31.1810   16.8050   69.8240 N.3    97  THR97      -0.1218
     38  CA        31.8670   18.0610   69.5550 C.3    97  THR97       0.1862
     39  C         30.9050   19.1580   69.9950 C.2    97  THR97       0.2287
     40  O         29.8120   19.2740   69.4370 O.2    97  THR97      -0.2866
     41  CB        32.2280   18.1880   68.0620 C.3    97  THR97       0.1770
     42  OG1       33.2730   17.2560   67.7530 O.3    97  THR97      -0.2211
     43  CG2       32.7120   19.6090   67.7180 C.3    97  THR97       0.0375
     44  N         29.2330   25.2060   68.6700 N.3    99  HIS99      -0.1241
     45  CA        30.0530   26.3460   68.2760 C.3    99  HIS99       0.1621
     46  C         29.6350   26.8860   66.9180 C.2    99  HIS99       0.2264
     47  O         28.9870   26.1890   66.1370 O.2    99  HIS99      -0.2867
     48  CB        31.5350   25.9460   68.2430 C.3    99  HIS99       0.0745
     49  CG        31.8770   24.9940   67.1400 C.ar   99  HIS99       0.0817
     50  ND1       31.6320   23.6380   67.2210 N.ar   99  HIS99      -0.2268
     51  CD2       32.4390   25.2040   65.9260 C.ar   99  HIS99       0.1154
     52  CE1       32.0290   23.0570   66.1010 C.ar   99  HIS99       0.1986
     53  NE2       32.5340   23.9820   65.3070 N.ar   99  HIS99      -0.2212
     54  N         31.4780   29.4370   63.5740 N.3   101  HIS101     -0.1241
     55  CA        32.6740   30.0640   63.0410 C.3   101  HIS101      0.1621
     56  C         32.3280   31.4710   62.5920 C.2   101  HIS101      0.2264
     57  O         31.2500   31.7120   62.0290 O.2   101  HIS101     -0.2867
     58  CB        33.2430   29.2250   61.8990 C.3   101  HIS101      0.0745
     59  CG        33.4460   27.7910   62.2760 C.ar  101  HIS101      0.0817
     60  ND1       34.4260   27.3910   63.1590 N.ar  101  HIS101     -0.2268
     61  CD2       32.7640   26.6740   61.9360 C.ar  101  HIS101      0.1154
     62  CE1       34.3490   26.0850   63.3340 C.ar  101  HIS101      0.1986
     63  NE2       33.3520   25.6260   62.6000 N.ar  101  HIS101     -0.2212
     64  N         34.6550   31.0110   58.6980 N.3   104  LYS104     -0.1245
     65  CA        34.6580   29.7660   57.9320 C.3   104  LYS104      0.1561
     66  C         33.2480   29.3010   57.5490 C.2   104  LYS104      0.2260
     67  O         32.3380   29.2770   58.3790 O.2   104  LYS104     -0.2867
     68  CB        35.3850   28.6530   58.6870 C.3   104  LYS104      0.0271
     69  CG        35.4830   27.3360   57.9060 C.3   104  LYS104      0.0035
     70  CD        36.3870   26.3330   58.6180 C.3   104  LYS104      0.0206
     71  CE        35.8020   25.8830   59.9560 C.3   104  LYS104      0.1093
     72  NZ        36.5850   24.7370   60.5200 N.3   104  LYS104     -0.1314
     73  N         27.9770   18.1870   66.8970 N.3   169  PHE169     -0.1241
     74  CA        27.7690   16.8840   66.2760 C.3   169  PHE169      0.1605
     75  C         28.3500   15.7440   67.0840 C.2   169  PHE169      0.2264
     76  O         29.2250   15.9370   67.9250 O.2   169  PHE169     -0.2867
     77  CB        28.2760   16.8480   64.8220 C.3   169  PHE169      0.0534
     78  CG        29.7120   17.2540   64.6570 C.ar  169  PHE169     -0.0203
     79  CD1       30.7400   16.3390   64.8720 C.ar  169  PHE169     -0.0042
     80  CD2       30.0340   18.5460   64.2530 C.ar  169  PHE169     -0.0042
     81  CE1       32.0790   16.7160   64.7110 C.ar  169  PHE169     -0.0003
     82  CE2       31.3650   18.9280   64.0840 C.ar  169  PHE169     -0.0003
     83  CZ        32.3840   18.0130   64.3180 C.ar  169  PHE169     -0.0000
     84  N         35.7030   17.2850   56.2020 N.3   182  GLU182     -0.1245
     85  CA        35.3730   18.7010   56.1780 C.3   182  GLU182      0.1567
     86  C         36.0160   19.3430   54.9590 C.2   182  GLU182      0.2260
     87  O         37.2250   19.2300   54.7640 O.2   182  GLU182     -0.2867
     88  CB        35.8520   19.3800   57.4530 C.3   182  GLU182      0.0388
     89  CG        35.4290   20.8320   57.5780 C.3   182  GLU182      0.1160
     90  CD        36.0140   21.4850   58.8110 C.2   182  GLU182      0.3649
     91  OE1       36.1550   20.7930   59.8410 O.co2 182  GLU182     -0.2457
     92  OE2       36.3270   22.6930   58.7520 O.co2 182  GLU182     -0.2457
     93  N         40.6860   27.5340   57.3420 N.3   187  ASN187     -0.1240
     94  CA        40.5160   27.1420   58.7200 C.3   187  ASN187      0.1653
     95  C         41.4810   27.9020   59.6130 C.2   187  ASN187      0.2266
     96  O         42.6900   27.9240   59.3500 O.2   187  ASN187     -0.2867
     97  CB        40.7840   25.6400   58.8500 C.3   187  ASN187      0.1155
     98  CG        40.7500   25.1730   60.2760 C.2   187  ASN187      0.2627
     99  OD1       41.7970   24.9260   60.8970 O.2   187  ASN187     -0.2716
    100  ND2       39.5460   25.0610   60.8220 N.am  187  ASN187     -0.0877
    101  N         41.8310   27.8050   63.6580 N.3   189  ASP189     -0.1239
    102  CA        41.3770   27.3640   64.9720 C.3   189  ASP189      0.1674
    103  C         41.8750   28.2220   66.1330 C.2   189  ASP189      0.2266
    104  O         41.4310   28.0520   67.2670 O.2   189  ASP189     -0.2867
    105  CB        41.7460   25.8950   65.2020 C.3   189  ASP189      0.1410
    106  CG        40.8850   24.9530   64.3970 C.2   189  ASP189      0.3668
    107  OD1       39.6400   25.0820   64.4480 O.co2 189  ASP189     -0.2456
    108  OD2       41.4470   24.0790   63.7120 O.co2 189  ASP189     -0.2456
    109  N         36.7760   30.1350   66.0900 N.3   193  ASN193     -0.1240
    110  CA        35.7810   29.3120   66.7750 C.3   193  ASN193      0.1653
    111  C         35.1380   30.0560   67.9200 C.2   193  ASN193      0.2266
    112  O         35.8250   30.5540   68.8110 O.2   193  ASN193     -0.2867
    113  CB        36.3980   28.0170   67.2970 C.3   193  ASN193      0.1155
    114  CG        37.0830   27.2270   66.2130 C.2   193  ASN193      0.2627
    115  OD1       36.5920   27.1450   65.0900 O.2   193  ASN193     -0.2716
    116  ND2       38.2330   26.6510   66.5400 N.am  193  ASN193     -0.0877
    117  N         32.6660   29.0550   70.7990 N.3   195  PHE195     -0.1241
    118  CA        31.9200   28.0350   71.5120 C.3   195  PHE195      0.1605
    119  C         30.8330   28.6810   72.3520 C.2   195  PHE195      0.2264
    120  O         31.0270   29.7580   72.9150 O.2   195  PHE195     -0.2867
    121  CB        32.8620   27.1940   72.3650 C.3   195  PHE195      0.0534
    122  CG        33.7460   26.2920   71.5600 C.ar  195  PHE195     -0.0203
    123  CD1       33.3060   25.0250   71.1940 C.ar  195  PHE195     -0.0042
    124  CD2       35.0080   26.7130   71.1540 C.ar  195  PHE195     -0.0042
    125  CE1       34.1160   24.1800   70.4340 C.ar  195  PHE195     -0.0003
    126  CE2       35.8300   25.8720   70.3980 C.ar  195  PHE195     -0.0003
    127  CZ        35.3750   24.6010   70.0410 C.ar  195  PHE195     -0.0000
    128  N         39.9800   25.3760   72.7260 N.3   201  ARG201     -0.1245
    129  CA        40.0520   24.5510   71.5210 C.3   201  ARG201      0.1563
    130  C         41.1150   23.4500   71.6270 C.2   201  ARG201      0.2260
    131  O         40.9300   22.3530   71.0950 O.2   201  ARG201     -0.2867
    132  CB        40.2880   25.4350   70.2880 C.3   201  ARG201      0.0307
    133  CG        40.4560   24.7010   68.9560 C.3   201  ARG201      0.0489
    134  CD        39.2840   23.7690   68.6430 C.3   201  ARG201      0.2205
    135  NE        39.4780   23.0680   67.3740 N.pl3 201  ARG201     -0.0865
    136  CZ        40.2560   22.0020   67.1990 C.cat 201  ARG201      0.5346
    137  NH1       40.9410   21.4860   68.2120 N.pl3 201  ARG201      0.1354
    138  NH2       40.3520   21.4500   65.9980 N.pl3 201  ARG201      0.1354
@<TRIPOS>BOND
     1    87    86    2
     2    86    85    1
     3    28    29    1
     4    85    84    1
     5    85    88    1
     6    31    30    2
     7    30    29    1
     8    29    32    1
     9    93    94    1
    10    88    89    1
    11    66    65    1
    12    66    67    2
    13    89    90    1
    14    69    70    1
    15    69    68    1
    16    65    68    1
    17    65    64    1
    18    32    33    1
    19    70    71    1
    20    94    97    1
    21    94    95    1
    22    92    90   ar
    23    33    34    1
    24    90    91   ar
    25    97    98    1
    26    96    95    2
    27    71    72    1
    28    34    35    1
    29    98   100   am
    30    98    99    2
    31    35    36    1
    32    58    59    1
    33    58    55    1
    34    61    59   ar
    35    61    63   ar
    36    57    56    2
    37    59    60   ar
    38    22    21    1
    39    22    23    2
    40    56    55    1
    41    63    62   ar
    42    55    54    1
    43    21    24    1
    44    21    20    1
    45    60    62   ar
    46    24    25    1
    47    27    25    1
    48   101   102    1
    49   108   106   ar
    50    25    26    1
    51    82    80   ar
    52    82    83   ar
    53    80    78   ar
    54    83    81   ar
    55   106   107   ar
    56   106   105    1
    57    78    77    1
    58    78    79   ar
    59    81    79   ar
    60    77    74    1
    61   102   105    1
    62   102   103    1
    63   115   114    2
    64    53    51   ar
    65    53    52   ar
    66    19    17    1
    67    18    17    1
    68    51    49   ar
    69   138   136    1
    70   109   110    1
    71    52    50   ar
    72   103   104    2
    73    47    46    2
    74   114   116   am
    75   114   113    1
    76    74    73    1
    77    74    75    1
    78    17    16    1
    79   110   113    1
    80   110   111    1
    81    46    45    1
    82    75    76    2
    83    49    50   ar
    84    49    48    1
    85   136   135    2
    86   136   137    1
    87   135   134    1
    88    43    41    1
    89    42    41    1
    90    16    13    1
    91   111   112    2
    92    14    13    1
    93    14    15    2
    94    41    38    1
    95    48    45    1
    96    45    44    1
    97    13    12    1
    98   134   133    1
    99   133   132    1
   100    40    39    2
   101    38    37    1
   102    38    39    1
   103    11     9   ar
   104    11    10   ar
   105   127   126   ar
   106   127   125   ar
   107     9     7   ar
   108   132   129    1
   109   126   124   ar
   110   125   123   ar
   111   117   118    1
   112    10     8   ar
   113   131   130    2
   114   124   122   ar
   115   123   122   ar
   116   118   119    1
   117   118   121    1
   118   129   130    1
   119   129   128    1
   120     7     6   ar
   121   122   121    1
   122     8     6   ar
   123   119   120    2
   124     6     5    1
   125     5     2    1
   126     1     2    1
   127     2     3    1
   128     3     4    2
