@<TRIPOS>MOLECULE
tmp/3kmmA00.pdb
 180 170 0 0 0
SMALL
GASTEIGER

@<TRIPOS>ATOM
      1  N         31.6460   29.7070   90.6640 N.3    19  GLU19      -0.1231
      2  CA        32.4280   30.9260   90.5320 C.3    19  GLU19       0.1699
      3  C         31.5670   32.1560   90.7550 C.2    19  GLU19       0.2592
      4  O         30.5040   32.2950   90.1510 O.2    19  GLU19      -0.2718
      5  CB        33.0600   30.9710   89.1420 C.3    19  GLU19       0.0402
      6  CG        33.9710   32.1500   88.9000 C.3    19  GLU19       0.1161
      7  CD        34.5020   32.1760   87.4790 C.2    19  GLU19       0.3649
      8  OE1       34.2900   33.1850   86.7760 O.co2  19  GLU19      -0.2457
      9  OE2       35.1330   31.1840   87.0620 O.co2  19  GLU19      -0.2457
     10  N         32.0220   33.0500   91.6280 N.am   20  ARG20      -0.1966
     11  CA        31.2970   34.2880   91.8540 C.3    20  ARG20       0.1729
     12  C         31.5560   35.2950   90.7470 C.2    20  ARG20       0.2616
     13  O         32.7030   35.5910   90.4150 O.2    20  ARG20      -0.2715
     14  CB        31.6720   34.9290   93.1860 C.3    20  ARG20       0.0348
     15  CG        30.9560   36.2580   93.3790 C.3    20  ARG20       0.0492
     16  CD        31.4970   37.0360   94.5450 C.3    20  ARG20       0.2205
     17  NE        31.3220   36.3040   95.7890 N.pl3  20  ARG20      -0.0865
     18  CZ        32.0710   36.4970   96.8660 C.cat  20  ARG20       0.5346
     19  NH1       33.0420   37.4040   96.8390 N.pl3  20  ARG20       0.1354
     20  NH2       31.8550   35.7810   97.9620 N.pl3  20  ARG20       0.1354
     21  N         30.4760   35.8250   90.1900 N.am   21  LEU21      -0.1977
     22  CA        30.5670   36.7860   89.1100 C.3    21  LEU21       0.1596
     23  C         30.4210   38.1920   89.6720 C.2    21  LEU21       0.2287
     24  O         30.7890   39.1750   89.0290 O.2    21  LEU21      -0.2864
     25  CB        29.4700   36.5120   88.0870 C.3    21  LEU21       0.0297
     26  CG        29.4270   35.0620   87.6080 C.3    21  LEU21       0.0022
     27  CD1       28.1120   34.8000   86.8900 C.3    21  LEU21       0.0001
     28  CD2       30.6300   34.7810   86.7160 C.3    21  LEU21       0.0001
     29  N         25.9010   36.8910   92.5620 N.3    29  VAL29      -0.1245
     30  CA        25.6230   36.1390   91.3470 C.3    29  VAL29       0.1561
     31  C         26.7640   35.1660   91.0790 C.2    29  VAL29       0.2260
     32  O         27.9360   35.5520   91.0520 O.2    29  VAL29      -0.2867
     33  CB        25.4550   37.0680   90.1240 C.3    29  VAL29       0.0252
     34  CG1       25.1350   36.2400   88.8850 C.3    29  VAL29       0.0019
     35  CG2       24.3430   38.0720   90.3810 C.3    29  VAL29       0.0019
     36  N         23.4950   30.7220   85.5500 N.3    41  ALA41      -0.1231
     37  CA        23.7950   31.8010   86.4780 C.3    41  ALA41       0.1694
     38  C         22.8470   31.6690   87.6690 C.2    41  ALA41       0.2592
     39  O         21.6780   31.3090   87.5150 O.2    41  ALA41      -0.2718
     40  CB        23.6080   33.1480   85.7950 C.3    41  ALA41       0.0304
     41  N         23.3590   31.9430   88.8600 N.am   42  VAL42      -0.1966
     42  CA        22.5490   31.8490   90.0630 C.3    42  VAL42       0.1727
     43  C         22.6310   33.1630   90.8240 C.2    42  VAL42       0.2616
     44  O         23.7140   33.7030   91.0370 O.2    42  VAL42      -0.2715
     45  CB        23.0380   30.7060   90.9720 C.3    42  VAL42       0.0290
     46  CG1       22.1170   30.5560   92.1570 C.3    42  VAL42       0.0023
     47  CG2       23.1040   29.4140   90.1820 C.3    42  VAL42       0.0023
     48  N         21.4730   33.6780   91.2160 N.am   43  LYS43      -0.1977
     49  CA        21.3920   34.9270   91.9660 C.3    43  LYS43       0.1596
     50  C         20.7250   34.6370   93.3120 C.2    43  LYS43       0.2287
     51  O         19.5590   34.2430   93.3630 O.2    43  LYS43      -0.2864
     52  CB        20.5690   35.9350   91.1700 C.3    43  LYS43       0.0298
     53  CG        20.4990   37.3230   91.7590 C.3    43  LYS43       0.0038
     54  CD        19.3710   38.1000   91.0910 C.3    43  LYS43       0.0206
     55  CE        19.5880   39.6010   91.1530 C.3    43  LYS43       0.1093
     56  NZ        18.6500   40.3230   90.2420 N.3    43  LYS43      -0.1314
     57  N         10.8330   39.5640   90.3870 N.3    58  GLU58      -0.1245
     58  CA        11.5590   39.5840   89.1250 C.3    58  GLU58       0.1567
     59  C         11.4420   38.2440   88.4000 C.2    58  GLU58       0.2260
     60  O         11.1520   38.1980   87.2090 O.2    58  GLU58      -0.2867
     61  CB        13.0370   39.9010   89.3800 C.3    58  GLU58       0.0388
     62  CG        13.8060   40.3060   88.1320 C.3    58  GLU58       0.1160
     63  CD        15.3000   40.0710   88.2550 C.2    58  GLU58       0.3649
     64  OE1       15.7720   39.7750   89.3730 O.co2  58  GLU58      -0.2457
     65  OE2       16.0030   40.1840   87.2290 O.co2  58  GLU58      -0.2457
     66  N          9.6800   37.0060   84.8310 N.3    62  MET62      -0.1245
     67  CA        10.3690   36.2940   83.7630 C.3    62  MET62       0.1570
     68  C          9.6570   34.9960   83.3810 C.2    62  MET62       0.2261
     69  O         10.0040   34.3600   82.3800 O.2    62  MET62      -0.2867
     70  CB        11.8110   35.9880   84.1840 C.3    62  MET62       0.0387
     71  CG        12.6790   37.2220   84.4460 C.3    62  MET62       0.0595
     72  SD        14.4250   36.8060   84.7670 S.3    62  MET62      -0.1393
     73  CE        14.4800   36.8510   86.5190 C.3    62  MET62       0.0692
     74  N         16.8680   37.1350   78.4850 N.3    71  VAL71      -0.1245
     75  CA        17.5120   36.0880   79.2800 C.3    71  VAL71       0.1561
     76  C         16.4350   35.1630   79.8420 C.2    71  VAL71       0.2260
     77  O         15.3900   35.6220   80.3030 O.2    71  VAL71      -0.2867
     78  CB        18.3430   36.6800   80.4550 C.3    71  VAL71       0.0252
     79  CG1       19.0350   35.5620   81.2150 C.3    71  VAL71       0.0019
     80  CG2       19.3790   37.6590   79.9300 C.3    71  VAL71       0.0019
     81  N         17.4680   32.4450   92.2250 N.3    84  ILE84      -0.1245
     82  CA        16.9280   32.5290   90.8710 C.3    84  ILE84       0.1561
     83  C         17.9960   32.0410   89.8880 C.2    84  ILE84       0.2260
     84  O         19.1110   32.5700   89.8530 O.2    84  ILE84      -0.2867
     85  CB        16.5440   33.9740   90.4960 C.3    84  ILE84       0.0252
     86  CG1       15.5570   34.5420   91.5150 C.3    84  ILE84       0.0019
     87  CG2       15.9130   33.9950   89.1130 C.3    84  ILE84       0.0019
     88  CD1       15.3830   36.0480   91.4100 C.3    84  ILE84       0.0001
     89  N         19.1560   31.3320   86.0070 N.3    86  THR86      -0.1203
     90  CA        18.9030   31.6960   84.6210 C.3    86  THR86       0.1994
     91  C         19.9170   31.0150   83.7230 C.2    86  THR86       0.2618
     92  O         20.8980   30.4570   84.1990 O.2    86  THR86      -0.2717
     93  CB        19.0230   33.2250   84.3920 C.3    86  THR86       0.1784
     94  OG1       20.3510   33.6420   84.7120 O.3    86  THR86      -0.2211
     95  CG2       18.0450   33.9890   85.2530 C.3    86  THR86       0.0376
     96  N         19.6790   31.0780   82.4190 N.am   87  GLU87      -0.1965
     97  CA        20.6840   30.6760   81.4500 C.3    87  GLU87       0.1733
     98  C         21.9430   31.5250   81.6080 C.2    87  GLU87       0.2616
     99  O         21.8910   32.6800   82.0610 O.2    87  GLU87      -0.2715
    100  CB        20.1380   30.7940   80.0160 C.3    87  GLU87       0.0429
    101  CG        20.0550   32.1930   79.4290 C.3    87  GLU87       0.1163
    102  CD        19.5440   32.1870   77.9870 C.2    87  GLU87       0.3649
    103  OE1       18.5830   32.9260   77.6910 O.co2  87  GLU87      -0.2457
    104  OE2       20.0980   31.4420   77.1460 O.co2  87  GLU87      -0.2457
    105  N         23.0770   30.9360   81.2420 N.am   88  TYR88      -0.1960
    106  CA        24.3630   31.5700   81.4420 C.3    88  TYR88       0.1771
    107  C         24.8480   32.2390   80.1630 C.2    88  TYR88       0.2619
    108  O         24.8970   31.6140   79.1070 O.2    88  TYR88      -0.2715
    109  CB        25.3760   30.5290   81.9060 C.3    88  TYR88       0.0574
    110  CG        26.7550   31.0870   82.1620 C.ar   88  TYR88      -0.0198
    111  CD1       26.9730   32.0240   83.1670 C.ar   88  TYR88      -0.0009
    112  CD2       27.8430   30.6560   81.4200 C.ar   88  TYR88      -0.0009
    113  CE1       28.2360   32.5080   83.4250 C.ar   88  TYR88       0.0417
    114  CE2       29.1080   31.1310   81.6710 C.ar   88  TYR88       0.0417
    115  CZ        29.3020   32.0540   82.6760 C.ar   88  TYR88       0.1957
    116  OH        30.5800   32.5010   82.9490 O.3    88  TYR88      -0.2866
    117  N         25.2030   33.5170   80.2670 N.am   89  MET89      -0.1963
    118  CA        25.7580   34.2590   79.1420 C.3    89  MET89       0.1736
    119  C         27.2730   34.3770   79.2880 C.2    89  MET89       0.2616
    120  O         27.7680   34.9940   80.2290 O.2    89  MET89      -0.2715
    121  CB        25.1250   35.6520   79.0710 C.3    89  MET89       0.0427
    122  CG        23.6110   35.6220   78.9710 C.3    89  MET89       0.0599
    123  SD        23.0800   34.6870   77.5370 S.3    89  MET89      -0.1393
    124  CE        23.7900   35.6740   76.2760 C.3    89  MET89       0.0692
    125  N         28.0050   33.7930   78.3450 N.am   90  GLU90      -0.1963
    126  CA        29.4320   33.5770   78.5320 C.3    90  GLU90       0.1733
    127  C         30.2710   34.8480   78.4960 C.2    90  GLU90       0.2616
    128  O         31.2640   34.9590   79.2100 O.2    90  GLU90      -0.2715
    129  CB        29.9530   32.5970   77.4860 C.3    90  GLU90       0.0429
    130  CG        31.2740   31.9490   77.8690 C.3    90  GLU90       0.1163
    131  CD        31.2450   30.4360   77.7170 C.2    90  GLU90       0.3649
    132  OE1       31.7670   29.9510   76.6890 O.co2  90  GLU90      -0.2457
    133  OE2       30.7030   29.7390   78.6140 O.co2  90  GLU90      -0.2457
    134  N         29.8850   35.8090   77.6680 N.am   91  ASN91      -0.1958
    135  CA        30.6640   37.0350   77.5570 C.3    91  ASN91       0.1819
    136  C         30.1980   38.1170   78.5070 C.2    91  ASN91       0.2622
    137  O         30.7530   39.2110   78.5300 O.2    91  ASN91      -0.2715
    138  CB        30.6320   37.5580   76.1300 C.3    91  ASN91       0.1195
    139  CG        31.6110   36.8390   75.2380 C.2    91  ASN91       0.2630
    140  OD1       32.7480   36.5950   75.6280 O.2    91  ASN91      -0.2716
    141  ND2       31.1740   36.4930   74.0330 N.am   91  ASN91      -0.0877
    142  N         29.1770   37.8090   79.2920 N.am   92  GLY92      -0.1940
    143  CA        28.7810   38.7180   80.3440 C.3    92  GLY92       0.2014
    144  C         28.2240   40.0290   79.8300 C.2    92  GLY92       0.2639
    145  O         27.5310   40.0760   78.8160 O.2    92  GLY92      -0.2714
    146  N         28.5380   41.1010   80.5410 N.am   93  SER93      -0.1949
    147  CA        27.9590   42.4060   80.2710 C.3    93  SER93       0.1924
    148  C         28.4810   43.0080   78.9700 C.2    93  SER93       0.2314
    149  O         29.6620   42.8660   78.6420 O.2    93  SER93      -0.2863
    150  CB        28.2660   43.3500   81.4280 C.3    93  SER93       0.2116
    151  OG        27.3140   44.3890   81.4690 O.3    93  SER93      -0.2180
    152  N         31.1620   45.7750   79.7340 N.3    96  ASP96      -0.1239
    153  CA        32.4620   45.1880   80.0430 C.3    96  ASP96       0.1674
    154  C         33.0600   44.6120   78.7720 C.2    96  ASP96       0.2266
    155  O         34.2050   44.8980   78.4230 O.2    96  ASP96      -0.2867
    156  CB        32.3270   44.0640   81.0670 C.3    96  ASP96       0.1410
    157  CG        32.0670   44.5700   82.4620 C.2    96  ASP96       0.3668
    158  OD1       32.4360   45.7240   82.7710 O.co2  96  ASP96      -0.2456
    159  OD2       31.4910   43.8050   83.2610 O.co2  96  ASP96      -0.2456
    160  N         23.3830   41.2720   78.0240 N.3   141  LEU141     -0.1245
    161  CA        24.3470   40.1880   78.1550 C.3   141  LEU141      0.1561
    162  C         24.7600   39.6130   76.7980 C.2   141  LEU141      0.2260
    163  O         23.9960   39.6370   75.8340 O.2   141  LEU141     -0.2867
    164  CB        23.7750   39.0950   79.0780 C.3   141  LEU141      0.0270
    165  CG        23.5700   39.5640   80.5320 C.3   141  LEU141      0.0019
    166  CD1       22.7930   38.5430   81.3330 C.3   141  LEU141      0.0001
    167  CD2       24.9150   39.8090   81.1860 C.3   141  LEU141      0.0001
    168  N         18.6690   41.6450   79.8300 N.3   151  ALA151     -0.1231
    169  CA        18.6610   41.0470   81.1580 C.3   151  ALA151      0.1694
    170  C         18.0550   42.0040   82.1620 C.2   151  ALA151      0.2592
    171  O         17.6350   43.1060   81.8080 O.2   151  ALA151     -0.2718
    172  CB        20.0780   40.6850   81.5850 C.3   151  ALA151      0.0304
    173  N         17.9990   41.5560   83.4120 N.am  152  ASP152     -0.1974
    174  CA        17.6900   42.4040   84.5620 C.3   152  ASP152      0.1709
    175  C         16.3120   43.0600   84.5010 C.2   152  ASP152      0.2293
    176  O         16.1690   44.1680   83.9920 O.2   152  ASP152     -0.2864
    177  CB        18.7700   43.4810   84.7130 C.3   152  ASP152      0.1436
    178  CG        18.8980   43.9710   86.1360 C.2   152  ASP152      0.3671
    179  OD1       17.8630   44.0120   86.8410 O.co2 152  ASP152     -0.2456
    180  OD2       20.0320   44.3070   86.5540 O.co2 152  ASP152     -0.2456
@<TRIPOS>BOND
     1   141   139   am
     2   139   140    2
     3   139   138    1
     4   163   162    2
     5   138   135    1
     6   124   123    1
     7   132   131   ar
     8   162   161    1
     9   104   102   ar
    10   129   130    1
    11   129   126    1
    12   123   122    1
    13   135   134    1
    14   135   136    1
    15   134   127   am
    16   103   102   ar
    17   131   130    1
    18   131   133   ar
    19   102   101    1
    20   160   161    1
    21   161   164    1
    22   125   126    1
    23   125   119   am
    24   155   154    2
    25    74    75    1
    26   127   126    1
    27   127   128    2
    28   136   137    2
    29   136   142   am
    30   149   148    2
    31   154   153    1
    32   145   144    2
    33   148   147    1
    34   122   121    1
    35   121   118    1
    36   164   165    1
    37   108   107    2
    38   118   119    1
    39   118   117    1
    40    75    76    1
    41    75    78    1
    42   119   120    2
    43   142   143    1
    44   101   100    1
    45   152   153    1
    46   144   143    1
    47   144   146   am
    48   168   169    1
    49    76    77    2
    50    80    78    1
    51   100    97    1
    52   153   156    1
    53   107   117   am
    54   107   106    1
    55   147   146    1
    56   147   150    1
    57    78    79    1
    58   165   167    1
    59   165   166    1
    60   156   157    1
    61   169   172    1
    62   169   170    1
    63   105   106    1
    64   105    98   am
    65   112   114   ar
    66   112   110   ar
    67   150   151    1
    68   106   109    1
    69    97    98    1
    70    97    96    1
    71    98    99    2
    72   114   115   ar
    73   171   170    2
    74   109   110    1
    75   170   173   am
    76   110   111   ar
    77    69    68    2
    78    96    91   am
    79   157   158   ar
    80   157   159   ar
    81   115   116    1
    82   115   113   ar
    83   111   113   ar
    84    68    67    1
    85   173   174    1
    86    91    92    2
    87    91    90    1
    88    67    70    1
    89    67    66    1
    90   176   175    2
    91    70    71    1
    92    93    90    1
    93    93    94    1
    94    93    95    1
    95    71    72    1
    96   175   174    1
    97   174   177    1
    98    90    89    1
    99   177   178    1
   100    72    73    1
   101    36    37    1
   102    40    37    1
   103   178   180   ar
   104   178   179   ar
   105    37    38    1
   106    28    26    1
   107     8     7   ar
   108    27    26    1
   109     9     7   ar
   110    60    59    2
   111    65    63   ar
   112     7     6    1
   113    39    38    2
   114    26    25    1
   115    38    41   am
   116    25    22    1
   117    62    63    1
   118    62    61    1
   119    63    64   ar
   120    59    58    1
   121    41    42    1
   122    34    33    1
   123     6     5    1
   124    24    23    2
   125    22    23    1
   126    22    21    1
   127    87    85    1
   128    58    61    1
   129    58    57    1
   130     5     2    1
   131    84    83    2
   132    83    82    1
   133    42    43    1
   134    42    45    1
   135    33    35    1
   136    33    30    1
   137     4     3    2
   138    47    45    1
   139    21    12   am
   140    56    55    1
   141    13    12    2
   142    85    82    1
   143    85    86    1
   144     2     1    1
   145     2     3    1
   146    12    11    1
   147     3    10   am
   148    43    44    2
   149    43    48   am
   150    82    81    1
   151    45    46    1
   152    32    31    2
   153    31    30    1
   154    54    55    1
   155    54    53    1
   156    52    53    1
   157    52    49    1
   158    48    49    1
   159    30    29    1
   160    88    86    1
   161    10    11    1
   162    11    14    1
   163    49    50    1
   164    14    15    1
   165    50    51    2
   166    15    16    1
   167    16    17    1
   168    17    18    2
   169    19    18    1
   170    18    20    1
