@<TRIPOS>MOLECULE
tmp/3kmrA01.pdb
 218 206 0 0 0
SMALL
GASTEIGER

@<TRIPOS>ATOM
      1  N         -5.6350    2.4070   -3.2620 N.3    18  PHE18      -0.1241
      2  CA        -4.6290    1.8950   -4.2210 C.3    18  PHE18       0.1605
      3  C         -3.1980    2.0440   -3.6830 C.2    18  PHE18       0.2264
      4  O         -2.6320    3.1430   -3.7400 O.2    18  PHE18      -0.2867
      5  CB        -4.7680    2.6120   -5.5920 C.3    18  PHE18       0.0534
      6  CG        -3.7890    2.1250   -6.6620 C.ar   18  PHE18      -0.0203
      7  CD1       -2.5830    2.7960   -6.8990 C.ar   18  PHE18      -0.0042
      8  CD2       -4.0840    1.0010   -7.4350 C.ar   18  PHE18      -0.0042
      9  CE1       -1.6800    2.3460   -7.8840 C.ar   18  PHE18      -0.0003
     10  CE2       -3.1810    0.5410   -8.4250 C.ar   18  PHE18      -0.0003
     11  CZ        -1.9910    1.2130   -8.6490 C.ar   18  PHE18      -0.0000
     12  N         -4.3200  -18.8320  -11.6400 N.3    44  TRP44      -0.1241
     13  CA        -5.7380  -18.4390  -11.6790 C.3    44  TRP44       0.1605
     14  C         -6.3260  -18.2260  -10.2640 C.2    44  TRP44       0.2264
     15  O         -6.9780  -17.2110  -10.0160 O.2    44  TRP44      -0.2867
     16  CB        -6.6050  -19.4280  -12.4770 C.3    44  TRP44       0.0550
     17  CG        -8.0720  -19.2010  -12.2360 C.ar   44  TRP44       0.0003
     18  CD1       -8.9180  -19.9950  -11.5100 C.ar   44  TRP44       0.0946
     19  CD2       -8.8490  -18.0730  -12.6610 C.ar   44  TRP44       0.0152
     20  NE1      -10.1710  -19.4410  -11.4730 N.ar   44  TRP44      -0.2442
     21  CE2      -10.1610  -18.2630  -12.1750 C.ar   44  TRP44       0.0810
     22  CE3       -8.5640  -16.9190  -13.4110 C.ar   44  TRP44       0.0012
     23  CZ2      -11.1970  -17.3460  -12.4190 C.ar   44  TRP44       0.0191
     24  CZ3       -9.5920  -16.0130  -13.6600 C.ar   44  TRP44       0.0001
     25  CH2      -10.8940  -16.2320  -13.1600 C.ar   44  TRP44       0.0015
     26  N         -4.8300  -14.9590   -8.8410 N.3    47  PHE47      -0.1227
     27  CA        -5.3150  -13.8460   -9.6690 C.3    47  PHE47       0.1736
     28  C         -6.8000  -13.5270   -9.4160 C.2    47  PHE47       0.2596
     29  O         -7.1790  -12.3550   -9.2770 O.2    47  PHE47      -0.2718
     30  CB        -5.0330  -14.1980  -11.1450 C.3    47  PHE47       0.0547
     31  CG        -5.5840  -13.2210  -12.1650 C.ar   47  PHE47      -0.0202
     32  CD1       -5.3700  -11.8440  -12.0570 C.ar   47  PHE47      -0.0042
     33  CD2       -6.2680  -13.7060  -13.2820 C.ar   47  PHE47      -0.0042
     34  CE1       -5.8750  -10.9670  -13.0300 C.ar   47  PHE47      -0.0003
     35  CE2       -6.7510  -12.8480  -14.2600 C.ar   47  PHE47      -0.0003
     36  CZ        -6.5550  -11.4820  -14.1390 C.ar   47  PHE47      -0.0000
     37  N         -7.6310  -14.5620   -9.3250 N.am   48  SER48      -0.1952
     38  CA        -9.0660  -14.3510   -9.1090 C.3    48  SER48       0.1924
     39  C         -9.3280  -13.7800   -7.7100 C.2    48  SER48       0.2314
     40  O        -10.1700  -12.8950   -7.5430 O.2    48  SER48      -0.2863
     41  CB        -9.8800  -15.6320   -9.3620 C.3    48  SER48       0.2116
     42  OG        -9.5240  -16.6850   -8.4800 O.3    48  SER48      -0.2180
     43  N         -7.1460  -11.9660   -5.8730 N.3    50  LEU50      -0.1231
     44  CA        -6.6870  -10.5690   -5.9360 C.3    50  LEU50       0.1693
     45  C         -7.7020   -9.6860   -6.6650 C.2    50  LEU50       0.2592
     46  O         -7.9410   -8.5380   -6.2570 O.2    50  LEU50      -0.2718
     47  CB        -5.3190  -10.4800   -6.6150 C.3    50  LEU50       0.0284
     48  CG        -4.1730  -10.9070   -5.6900 C.3    50  LEU50       0.0019
     49  CD1       -2.9390  -11.2900   -6.5080 C.3    50  LEU50       0.0001
     50  CD2       -3.8440   -9.7860   -4.6810 C.3    50  LEU50       0.0001
     51  N         -8.3110  -10.2370   -7.7220 N.am   51  SER51      -0.1952
     52  CA        -9.3580   -9.5030   -8.4750 C.3    51  SER51       0.1924
     53  C        -10.5700   -9.1620   -7.6150 C.2    51  SER51       0.2314
     54  O        -11.0910   -8.0410   -7.6980 O.2    51  SER51      -0.2863
     55  CB        -9.7820  -10.2510   -9.7540 C.3    51  SER51       0.2116
     56  OG        -8.6810  -10.3100  -10.6470 O.3    51  SER51      -0.2180
     57  N         -9.6650   -6.3700   -5.3630 N.3    54  CYS54      -0.1221
     58  CA        -9.5810   -5.1150   -6.1120 C.3    54  CYS54       0.1808
     59  C        -10.9630   -4.5570   -6.4470 C.2    54  CYS54       0.2601
     60  O        -11.1490   -3.3480   -6.4310 O.2    54  CYS54      -0.2717
     61  CB        -8.7740   -5.2720   -7.4000 C.3    54  CYS54       0.0970
     62  SG        -8.4250   -3.6840   -8.2300 S.3    54  CYS54      -0.0800
     63  N        -11.9220   -5.4320   -6.7440 N.am   55  ILE55      -0.1979
     64  CA       -13.2980   -4.9720   -6.9970 C.3    55  ILE55       0.1595
     65  C        -13.8380   -4.2800   -5.7260 C.2    55  ILE55       0.2287
     66  O        -14.4800   -3.2230   -5.7930 O.2    55  ILE55      -0.2864
     67  CB       -14.2240   -6.1280   -7.4360 C.3    55  ILE55       0.0276
     68  CG1      -13.7960   -6.6590   -8.8170 C.3    55  ILE55       0.0022
     69  CG2      -15.7160   -5.6740   -7.4160 C.3    55  ILE55       0.0022
     70  CD1      -14.4950   -7.9830   -9.2190 C.3    55  ILE55       0.0001
     71  N        -13.8190   -3.8590  -15.4350 N.3    85  LEU85      -0.1245
     72  CA       -12.5640   -4.2740  -16.0860 C.3    85  LEU85       0.1561
     73  C        -11.6720   -3.1050  -16.4820 C.2    85  LEU85       0.2260
     74  O        -10.4420   -3.2020  -16.4170 O.2    85  LEU85      -0.2867
     75  CB       -12.8420   -5.1530  -17.3050 C.3    85  LEU85       0.0270
     76  CG       -13.3000   -6.5840  -17.0250 C.3    85  LEU85       0.0019
     77  CD1      -13.4480   -7.3450  -18.3390 C.3    85  LEU85       0.0001
     78  CD2      -12.3320   -7.2970  -16.1010 C.3    85  LEU85       0.0001
     79  N         -9.9220   -2.1220  -13.1670 N.3    88  LEU88      -0.1231
     80  CA        -8.9630   -3.1740  -12.7860 C.3    88  LEU88       0.1693
     81  C         -7.7360   -3.1400  -13.6940 C.2    88  LEU88       0.2591
     82  O         -6.5910   -3.1800  -13.2230 O.2    88  LEU88      -0.2718
     83  CB        -9.6020   -4.5650  -12.8650 C.3    88  LEU88       0.0284
     84  CG       -10.7250   -4.9840  -11.9080 C.3    88  LEU88       0.0019
     85  CD1      -11.1140   -6.4480  -12.1140 C.3    88  LEU88       0.0001
     86  CD2      -10.3820   -4.7480  -10.5110 C.3    88  LEU88       0.0001
     87  N         -7.9820   -3.0710  -15.0020 N.am   89  ILE89      -0.1980
     88  CA        -6.8770   -3.1240  -15.9780 C.3    89  ILE89       0.1595
     89  C         -5.9820   -1.8860  -15.8490 C.2    89  ILE89       0.2287
     90  O         -4.7510   -2.0060  -15.8620 O.2    89  ILE89      -0.2864
     91  CB        -7.4050   -3.3560  -17.4260 C.3    89  ILE89       0.0276
     92  CG1       -8.0070   -4.7690  -17.5270 C.3    89  ILE89       0.0022
     93  CG2       -6.2930   -3.1280  -18.4780 C.3    89  ILE89       0.0022
     94  CD1       -8.7210   -5.0670  -18.8890 C.3    89  ILE89       0.0001
     95  N         -5.5370   -0.2030  -13.0900 N.3    91  ARG91      -0.1231
     96  CA        -4.8070   -0.4020  -11.8360 C.3    91  ARG91       0.1694
     97  C         -3.5820   -1.3120  -11.9600 C.2    91  ARG91       0.2591
     98  O         -2.4860   -0.9360  -11.5320 O.2    91  ARG91      -0.2718
     99  CB        -5.7510   -0.8370  -10.6950 C.3    91  ARG91       0.0321
    100  CG        -6.5670    0.3470  -10.1430 C.3    91  ARG91       0.0489
    101  CD        -7.6270   -0.0750   -9.1410 C.3    91  ARG91       0.2205
    102  NE        -8.2420    1.0870   -8.4890 N.pl3  91  ARG91      -0.0865
    103  CZ        -8.3570    1.2440   -7.1680 C.cat  91  ARG91       0.5346
    104  NH1       -7.9270    0.2970   -6.3310 N.pl3  91  ARG91       0.1354
    105  NH2       -8.9120    2.3500   -6.6830 N.pl3  91  ARG91       0.1354
    106  N         -3.7450   -2.4820  -12.5680 N.am   92  ILE92      -0.1980
    107  CA        -2.6210   -3.4260  -12.6910 C.3    92  ILE92       0.1595
    108  C         -1.5140   -2.8620  -13.6270 C.2    92  ILE92       0.2287
    109  O         -0.3280   -3.0240  -13.3530 O.2    92  ILE92      -0.2864
    110  CB        -3.0850   -4.8820  -13.0570 C.3    92  ILE92       0.0276
    111  CG1       -1.9700   -5.9390  -12.8550 C.3    92  ILE92       0.0022
    112  CG2       -3.6150   -4.9760  -14.5020 C.3    92  ILE92       0.0022
    113  CD1       -1.3040   -5.9300  -11.4730 C.3    92  ILE92       0.0001
    114  N          1.1050   -0.6400  -12.2550 N.3    95  ARG95      -0.1245
    115  CA         2.2350   -1.2590  -11.5560 C.3    95  ARG95       0.1563
    116  C          3.1340   -2.0930  -12.4760 C.2    95  ARG95       0.2260
    117  O          3.6140   -3.1670  -12.1070 O.2    95  ARG95      -0.2867
    118  CB         1.7470   -2.0580  -10.3320 C.3    95  ARG95       0.0307
    119  CG         0.9270   -1.2370   -9.3360 C.3    95  ARG95       0.0489
    120  CD         1.0410   -1.8400   -7.9370 C.3    95  ARG95       0.2205
    121  NE        -0.0650   -1.4210   -7.0740 N.pl3  95  ARG95      -0.0865
    122  CZ        -1.2140   -2.0760   -6.9540 C.cat  95  ARG95       0.5346
    123  NH1       -1.4260   -3.2010   -7.6390 N.pl3  95  ARG95       0.1354
    124  NH2       -2.1520   -1.6130   -6.1330 N.pl3  95  ARG95       0.1354
    125  N          0.6360   -6.8990   -8.2890 N.3   105  PHE105     -0.1227
    126  CA        -0.6860   -6.8090   -7.6870 C.3   105  PHE105      0.1736
    127  C         -0.6320   -6.1620   -6.2930 C.2   105  PHE105      0.2596
    128  O          0.4640   -5.9220   -5.7650 O.2   105  PHE105     -0.2718
    129  CB        -1.3150   -8.1980   -7.6310 C.3   105  PHE105      0.0547
    130  CG        -1.6010   -8.7740   -8.9930 C.ar  105  PHE105     -0.0202
    131  CD1       -0.6140   -9.4670   -9.6950 C.ar  105  PHE105     -0.0042
    132  CD2       -2.8520   -8.6140   -9.5740 C.ar  105  PHE105     -0.0042
    133  CE1       -0.8710   -9.9970  -10.9810 C.ar  105  PHE105     -0.0003
    134  CE2       -3.1310   -9.1300  -10.8460 C.ar  105  PHE105     -0.0003
    135  CZ        -2.1340   -9.8230  -11.5580 C.ar  105  PHE105     -0.0000
    136  N         -1.8030   -5.8730   -5.7270 N.am  106  SER106     -0.1952
    137  CA        -1.9020   -5.0790   -4.4780 C.3   106  SER106      0.1924
    138  C         -1.2940   -5.7230   -3.2360 C.2   106  SER106      0.2314
    139  O         -1.0450   -5.0220   -2.2420 O.2   106  SER106     -0.2863
    140  CB        -3.3520   -4.6800   -4.1780 C.3   106  SER106      0.2116
    141  OG        -3.8720   -3.8360   -5.1980 O.3   106  SER106     -0.2180
    142  N         -4.7300  -16.0710  -16.6970 N.3   120  GLY120     -0.1210
    143  CA        -6.0620  -15.8390  -17.2710 C.3   120  GLY120      0.1956
    144  C         -6.1410  -14.8330  -18.4110 C.2   120  GLY120      0.2611
    145  O         -7.0810  -14.8720  -19.2060 O.2   120  GLY120     -0.2717
    146  N         -5.1690  -13.9300  -18.5140 N.am  121  PHE121     -0.1976
    147  CA        -5.2100  -12.9350  -19.5910 C.3   121  PHE121      0.1639
    148  C         -5.2910  -13.5450  -21.0050 C.2   121  PHE121      0.2290
    149  O         -6.0430  -13.0610  -21.8420 O.2   121  PHE121     -0.2864
    150  CB        -4.0720  -11.9220  -19.4630 C.3   121  PHE121      0.0560
    151  CG        -4.2740  -10.9310  -18.3480 C.ar  121  PHE121     -0.0200
    152  CD1       -3.8110  -11.2020  -17.0680 C.ar  121  PHE121     -0.0042
    153  CD2       -4.9480   -9.7360  -18.5780 C.ar  121  PHE121     -0.0042
    154  CE1       -4.0010  -10.2870  -16.0270 C.ar  121  PHE121     -0.0003
    155  CE2       -5.1480   -8.8210  -17.5560 C.ar  121  PHE121     -0.0003
    156  CZ        -4.6700   -9.0890  -16.2800 C.ar  121  PHE121     -0.0000
    157  N         -5.5510  -11.5910  -24.2470 N.3   124  LEU124     -0.1245
    158  CA        -5.5460  -10.1960  -23.8060 C.3   124  LEU124      0.1561
    159  C         -4.1520   -9.6900  -23.4570 C.2   124  LEU124      0.2260
    160  O         -3.9450   -8.4790  -23.3590 O.2   124  LEU124     -0.2867
    161  CB        -6.4560   -9.9940  -22.5830 C.3   124  LEU124      0.0270
    162  CG        -7.9630  -10.2240  -22.6390 C.3   124  LEU124      0.0019
    163  CD1       -8.5300   -9.9860  -21.2550 C.3   124  LEU124      0.0001
    164  CD2       -8.6210   -9.3000  -23.6480 C.3   124  LEU124      0.0001
    165  N        -11.9090   -8.1020  -23.0720 N.3   210  GLY210     -0.1225
    166  CA       -11.9490   -8.6740  -21.7310 C.3   210  GLY210      0.1811
    167  C        -13.2460   -9.4150  -21.4410 C.2   210  GLY210      0.2280
    168  O        -13.2200  -10.5060  -20.8830 O.2   210  GLY210     -0.2866
    169  N        -13.1240  -12.5200  -23.0110 N.3   213  ARG213     -0.1231
    170  CA       -12.2020  -13.4540  -22.3380 C.3   213  ARG213      0.1694
    171  C        -12.8720  -14.0770  -21.1160 C.2   213  ARG213      0.2591
    172  O        -12.6210  -15.2280  -20.7820 O.2   213  ARG213     -0.2718
    173  CB       -10.8560  -12.7880  -21.9920 C.3   213  ARG213      0.0321
    174  CG        -9.8050  -13.6880  -21.3140 C.3   213  ARG213      0.0489
    175  CD        -9.5240  -14.9740  -22.0950 C.3   213  ARG213      0.2205
    176  NE        -8.5310  -15.8070  -21.4210 N.pl3 213  ARG213     -0.0865
    177  CZ        -8.3350  -17.1030  -21.6530 C.cat 213  ARG213      0.5346
    178  NH1       -9.0670  -17.7560  -22.5430 N.pl3 213  ARG213      0.1354
    179  NH2       -7.3990  -17.7540  -20.9790 N.pl3 213  ARG213      0.1354
    180  N        -13.7450  -13.3150  -20.4680 N.am  214  VAL214     -0.1980
    181  CA       -14.5410  -13.8340  -19.3600 C.3   214  VAL214      0.1595
    182  C        -15.3000  -15.0810  -19.8260 C.2   214  VAL214      0.2287
    183  O        -15.3080  -16.1000  -19.1350 O.2   214  VAL214     -0.2864
    184  CB       -15.5010  -12.7490  -18.8030 C.3   214  VAL214      0.0276
    185  CG1      -16.5470  -13.3590  -17.8710 C.3   214  VAL214      0.0022
    186  CG2      -14.6920  -11.6650  -18.0700 C.3   214  VAL214      0.0022
    187  N        -12.7760  -18.0770  -20.5400 N.3   217  LEU217     -0.1245
    188  CA       -12.1960  -18.5510  -19.2660 C.3   217  LEU217      0.1561
    189  C        -13.1570  -19.4170  -18.4560 C.2   217  LEU217      0.2260
    190  O        -12.7380  -20.3860  -17.8240 O.2   217  LEU217     -0.2867
    191  CB       -11.7530  -17.3840  -18.3870 C.3   217  LEU217      0.0270
    192  CG       -10.3030  -16.9220  -18.3800 C.3   217  LEU217      0.0019
    193  CD1      -10.1930  -15.6950  -17.4760 C.3   217  LEU217      0.0001
    194  CD2       -9.3700  -18.0260  -17.8880 C.3   217  LEU217      0.0001
    195  N        -16.8240  -18.9370  -11.4180 N.3   225  MET225     -0.1245
    196  CA       -16.2130  -17.6710  -11.0360 C.3   225  MET225      0.1570
    197  C        -16.6200  -17.3370   -9.6080 C.2   225  MET225      0.2261
    198  O        -17.7310  -17.6840   -9.1910 O.2   225  MET225     -0.2867
    199  CB       -16.6720  -16.5550  -11.9780 C.3   225  MET225      0.0387
    200  CG       -16.1670  -16.7080  -13.4050 C.3   225  MET225      0.0595
    201  SD       -14.5950  -15.8720  -13.6550 S.3   225  MET225     -0.1393
    202  CE       -14.1220  -16.4900  -15.2720 C.3   225  MET225      0.0692
    203  N        -17.1330  -11.5190   -8.5990 N.3   229  ILE229     -0.1245
    204  CA       -16.7890  -11.4540  -10.0280 C.3   229  ILE229      0.1561
    205  C        -18.0210  -11.7510  -10.9050 C.2   229  ILE229      0.2260
    206  O        -18.2940  -11.0320  -11.8830 O.2   229  ILE229     -0.2867
    207  CB       -15.5700  -12.3710  -10.3780 C.3   229  ILE229      0.0252
    208  CG1      -14.2960  -11.8100   -9.7260 C.3   229  ILE229      0.0019
    209  CG2      -15.3940  -12.5060  -11.8990 C.3   229  ILE229      0.0019
    210  CD1      -13.0620  -12.7220   -9.8670 C.3   229  ILE229      0.0001
    211  N        -19.4850   -9.1400  -13.6260 N.3   233  LEU233     -0.1245
    212  CA       -19.1790   -9.4500  -15.0300 C.3   233  LEU233      0.1561
    213  C        -20.1890  -10.3390  -15.7640 C.2   233  LEU233      0.2260
    214  O        -20.1110  -10.4830  -16.9910 O.2   233  LEU233     -0.2867
    215  CB       -17.7560  -10.0190  -15.1570 C.3   233  LEU233      0.0270
    216  CG       -16.6410   -9.1620  -14.5440 C.3   233  LEU233      0.0019
    217  CD1      -15.2810   -9.8120  -14.7230 C.3   233  LEU233      0.0001
    218  CD2      -16.6290   -7.7530  -15.1300 C.3   233  LEU233      0.0001
@<TRIPOS>BOND
     1   157   158    1
     2   158   159    1
     3   158   161    1
     4   164   162    1
     5   159   160    2
     6   165   166    1
     7   169   170    1
     8   162   161    1
     9   162   163    1
    10   178   177    1
    11   170   173    1
    12   170   171    1
    13   175   176    1
    14   175   174    1
    15   173   174    1
    16   149   148    2
    17   166   167    1
    18   177   176    2
    19   177   179    1
    20   167   168    2
    21   171   172    2
    22   171   180   am
    23   148   147    1
    24   187   188    1
    25   180   181    1
    26   182   181    1
    27   182   183    2
    28   147   150    1
    29   147   146    1
    30   150   151    1
    31   181   184    1
    32   188   189    1
    33   188   191    1
    34   145   144    2
    35    94    92    1
    36   184   186    1
    37   184   185    1
    38   153   151   ar
    39   153   155   ar
    40   146   144   am
    41    93    91    1
    42   189   190    2
    43   144   143    1
    44   191   192    1
    45   192   194    1
    46   192   193    1
    47   151   152   ar
    48    77    76    1
    49   155   156   ar
    50    92    91    1
    51    91    88    1
    52    75    76    1
    53    75    72    1
    54   143   142    1
    55   152   154   ar
    56    76    78    1
    57   214   213    2
    58    73    74    2
    59    73    72    1
    60   156   154   ar
    61    72    71    1
    62    88    89    1
    63    88    87    1
    64    90    89    2
    65   213   212    1
    66   202   201    1
    67   215   212    1
    68   215   216    1
    69   218   216    1
    70   212   211    1
    71    87    81   am
    72   217   216    1
    73   112   110    1
    74    35    36   ar
    75    35    33   ar
    76    36    34   ar
    77    81    82    2
    78    81    80    1
    79    24    22   ar
    80    24    25   ar
    81   201   200    1
    82   108   109    2
    83   108   107    1
    84    22    19   ar
    85   200   199    1
    86    33    31   ar
    87    79    80    1
    88    25    23   ar
    89    95    96    1
    90   110   111    1
    91   110   107    1
    92    34    32   ar
    93    83    80    1
    94    83    84    1
    95   111   113    1
    96   107   106    1
    97    19    17   ar
    98    19    21   ar
    99   106    97   am
   100    16    17    1
   101    16    13    1
   102   116   117    2
   103   116   115    1
   104    23    21   ar
   105   114   115    1
   106    17    18   ar
   107    21    20   ar
   108    31    32   ar
   109    31    30    1
   110    85    84    1
   111   199   196    1
   112    97    96    1
   113    97    98    2
   114    84    86    1
   115   209   207    1
   116   206   205    2
   117    96    99    1
   118    13    12    1
   119    13    14    1
   120   135   133   ar
   121   135   134   ar
   122   115   118    1
   123    18    20   ar
   124   195   196    1
   125    30    27    1
   126   196   197    1
   127   133   131   ar
   128   205   204    1
   129   134   132   ar
   130    99   100    1
   131    56    55    1
   132   207   204    1
   133   207   208    1
   134   118   119    1
   135    14    15    2
   136   100   101    1
   137   204   203    1
   138   210   208    1
   139    55    52    1
   140   131   130   ar
   141    27    28    1
   142    27    26    1
   143   197   198    2
   144   132   130   ar
   145    28    37   am
   146    28    29    2
   147    41    38    1
   148    41    42    1
   149   119   120    1
   150    37    38    1
   151    70    68    1
   152   101   102    1
   153    38    39    1
   154   130   129    1
   155    68    67    1
   156    11    10   ar
   157    11     9   ar
   158   102   103    2
   159    52    51    1
   160    52    53    1
   161    10     8   ar
   162   125   126    1
   163    62    61    1
   164   120   121    1
   165     9     7   ar
   166    51    45   am
   167    39    40    2
   168    54    53    2
   169   126   129    1
   170   126   127    1
   171   123   122    1
   172    67    69    1
   173    67    64    1
   174     8     6   ar
   175    61    58    1
   176   103   105    1
   177   103   104    1
   178   121   122    2
   179    64    63    1
   180    64    65    1
   181   122   124    1
   182     7     6   ar
   183    63    59   am
   184    45    46    2
   185    45    44    1
   186     6     5    1
   187    47    44    1
   188    47    48    1
   189    49    48    1
   190    59    60    2
   191    59    58    1
   192   127   128    2
   193   127   136   am
   194    58    57    1
   195    44    43    1
   196    66    65    2
   197   136   137    1
   198    48    50    1
   199     5     2    1
   200   141   140    1
   201   137   140    1
   202   137   138    1
   203     2     3    1
   204     2     1    1
   205     4     3    2
   206   138   139    2
