@<TRIPOS>MOLECULE
tmp/3kmtA00.pdb
 242 238 0 0 0
SMALL
GASTEIGER

@<TRIPOS>ATOM
      1  N         36.5950    9.4980    0.5600 N.3    40  ASN40      -0.1240
      2  CA        35.9530    8.1860    0.4250 C.3    40  ASN40       0.1653
      3  C         36.9040    7.0080    0.2570 C.2    40  ASN40       0.2266
      4  O         36.6860    5.9400    0.8350 O.2    40  ASN40      -0.2867
      5  CB        34.9980    8.1490   -0.7810 C.3    40  ASN40       0.1155
      6  CG        33.7820    9.0320   -0.6130 C.2    40  ASN40       0.2627
      7  OD1       33.3340    9.2920    0.4970 O.2    40  ASN40      -0.2716
      8  ND2       33.2230    9.4800   -1.7360 N.am   40  ASN40      -0.0877
      9  N         39.2370    4.7690    3.4040 N.3    43  TRP43      -0.1227
     10  CA        38.6760    3.9410    4.4680 C.3    43  TRP43       0.1737
     11  C         38.7980    2.4170    4.4340 C.2    43  TRP43       0.2596
     12  O         38.3110    1.7440    5.3440 O.2    43  TRP43      -0.2718
     13  CB        37.2010    4.3050    4.6510 C.3    43  TRP43       0.0564
     14  CG        36.9790    5.7320    5.0760 C.ar   43  TRP43       0.0003
     15  CD1       36.8730    6.8310    4.2650 C.ar   43  TRP43       0.0946
     16  CD2       36.8480    6.2100    6.4180 C.ar   43  TRP43       0.0152
     17  NE1       36.6810    7.9640    5.0240 N.ar   43  TRP43      -0.2442
     18  CE2       36.6620    7.6100    6.3490 C.ar   43  TRP43       0.0810
     19  CE3       36.8690    5.5900    7.6760 C.ar   43  TRP43       0.0012
     20  CZ2       36.4970    8.4010    7.4920 C.ar   43  TRP43       0.0191
     21  CZ3       36.7040    6.3780    8.8150 C.ar   43  TRP43       0.0001
     22  CH2       36.5200    7.7680    8.7110 C.ar   43  TRP43       0.0015
     23  N         39.4430    1.8560    3.4210 N.am   44  GLY44      -0.1957
     24  CA        39.5450    0.4080    3.3760 C.3    44  GLY44       0.1869
     25  C         38.1650   -0.2050    3.2020 C.2    44  GLY44       0.2309
     26  O         37.2990    0.4030    2.5730 O.2    44  GLY44      -0.2863
     27  N         32.6370   -0.1240    5.5860 N.3    48  GLU48      -0.1231
     28  CA        31.7800    0.1100    4.4300 C.3    48  GLU48       0.1699
     29  C         30.2910    0.2290    4.7640 C.2    48  GLU48       0.2592
     30  O         29.5810    1.0260    4.1530 O.2    48  GLU48      -0.2718
     31  CB        31.9690   -1.0030    3.3960 C.3    48  GLU48       0.0402
     32  CG        31.2760   -0.7010    2.0830 C.3    48  GLU48       0.1161
     33  CD        31.8920    0.5000    1.3870 C.2    48  GLU48       0.3649
     34  OE1       31.1710    1.2180    0.6700 O.co2  48  GLU48      -0.2457
     35  OE2       33.1080    0.7170    1.5510 O.co2  48  GLU48      -0.2457
     36  N         29.8180   -0.5550    5.7290 N.am   49  ASP49      -0.1960
     37  CA        28.4030   -0.5350    6.0990 C.3    49  ASP49       0.1840
     38  C         28.0160    0.4940    7.1610 C.2    49  ASP49       0.2622
     39  O         26.8300    0.6750    7.4500 O.2    49  ASP49      -0.2715
     40  CB        27.9680   -1.9180    6.5950 C.3    49  ASP49       0.1450
     41  CG        28.1050   -2.9920    5.5400 C.2    49  ASP49       0.3671
     42  OD1       28.1280   -2.6590    4.3350 O.co2  49  ASP49      -0.2456
     43  OD2       28.1740   -4.1800    5.9260 O.co2  49  ASP49      -0.2456
     44  N         29.0120    1.1730    7.7240 N.am   50  TYR50      -0.1960
     45  CA        28.7930    2.1550    8.7870 C.3    50  TYR50       0.1771
     46  C         28.9000    3.6310    8.3980 C.2    50  TYR50       0.2619
     47  O         28.1900    4.4720    8.9500 O.2    50  TYR50      -0.2715
     48  CB        29.7950    1.9080    9.9210 C.3    50  TYR50       0.0574
     49  CG        29.5750    0.6190   10.6660 C.ar   50  TYR50      -0.0198
     50  CD1       28.7050    0.5630   11.7520 C.ar   50  TYR50      -0.0009
     51  CD2       30.1990   -0.5590   10.2540 C.ar   50  TYR50      -0.0009
     52  CE1       28.4520   -0.6360   12.4110 C.ar   50  TYR50       0.0417
     53  CE2       29.9540   -1.7620   10.9050 C.ar   50  TYR50       0.0417
     54  CZ        29.0780   -1.7930   11.9810 C.ar   50  TYR50       0.1957
     55  OH        28.8110   -2.9840   12.6160 O.3    50  TYR50      -0.2866
     56  N         29.7990    3.9310    7.4670 N.am   51  LEU51      -0.1963
     57  CA        30.0720    5.3010    7.0330 C.3    51  LEU51       0.1728
     58  C         28.9500    6.1070    6.3910 C.2    51  LEU51       0.2616
     59  O         28.0670    5.5660    5.7180 O.2    51  LEU51      -0.2715
     60  CB        31.2680    5.3060    6.0730 C.3    51  LEU51       0.0311
     61  CG        32.6170    4.7910    6.5800 C.3    51  LEU51       0.0022
     62  CD1       33.5640    4.5850    5.3980 C.3    51  LEU51       0.0001
     63  CD2       33.2040    5.7910    7.5650 C.3    51  LEU51       0.0001
     64  N         29.0160    7.4200    6.6080 N.am   52  PHE52      -0.1960
     65  CA        28.0730    8.3750    6.0370 C.3    52  PHE52       0.1771
     66  C         28.9130    9.0750    4.9730 C.2    52  PHE52       0.2620
     67  O         30.1120    9.2930    5.1760 O.2    52  PHE52      -0.2715
     68  CB        27.6290    9.3980    7.0900 C.3    52  PHE52       0.0574
     69  CG        26.7890    8.8170    8.1890 C.ar   52  PHE52      -0.0200
     70  CD1       25.4060    8.7340    8.0520 C.ar   52  PHE52      -0.0042
     71  CD2       27.3810    8.3300    9.3500 C.ar   52  PHE52      -0.0042
     72  CE1       24.6190    8.1720    9.0570 C.ar   52  PHE52      -0.0003
     73  CE2       26.6020    7.7640   10.3660 C.ar   52  PHE52      -0.0003
     74  CZ        25.2200    7.6850   10.2170 C.ar   52  PHE52      -0.0000
     75  N         28.3070    9.4360    3.8480 N.am   53  SER53      -0.1936
     76  CA        29.0710   10.0870    2.7920 C.3    53  SER53       0.2055
     77  C         28.3370   11.2140    2.0710 C.2    53  SER53       0.2642
     78  O         27.1140   11.1860    1.8990 O.2    53  SER53      -0.2714
     79  CB        29.5320    9.0340    1.7740 C.3    53  SER53       0.2130
     80  OG        30.2580    9.6140    0.6990 O.3    53  SER53      -0.2179
     81  N         29.1120   12.2110    1.6620 N.am   54  ARG54      -0.1977
     82  CA        28.6020   13.3560    0.9210 C.3    54  ARG54       0.1597
     83  C         29.6800   13.6720   -0.1040 C.2    54  ARG54       0.2287
     84  O         30.8060   14.0140    0.2600 O.2    54  ARG54      -0.2864
     85  CB        28.3880   14.5540    1.8410 C.3    54  ARG54       0.0334
     86  CG        27.9040   15.7990    1.1130 C.3    54  ARG54       0.0492
     87  CD        27.7950   16.9650    2.0710 C.3    54  ARG54       0.2205
     88  NE        26.7640   16.7330    3.0740 N.pl3  54  ARG54      -0.0865
     89  CZ        26.7240   17.3270    4.2610 C.cat  54  ARG54       0.5346
     90  NH1       27.6640   18.1950    4.6080 N.pl3  54  ARG54       0.1354
     91  NH2       25.7430   17.0490    5.1030 N.pl3  54  ARG54       0.1354
     92  N         33.7250   10.8090    3.2660 N.3    58  SER58      -0.1217
     93  CA        33.0050    9.8740    4.1230 C.3    58  SER58       0.1889
     94  C         33.3200   10.2070    5.5750 C.2    58  SER58       0.2288
     95  O         34.4070   10.6970    5.8980 O.2    58  SER58      -0.2866
     96  CB        33.4030    8.4250    3.8220 C.3    58  SER58       0.2089
     97  OG        32.7950    7.9640    2.6250 O.3    58  SER58      -0.2183
     98  N         26.2500    7.4160   17.0600 N.3    65  GLY65      -0.1210
     99  CA        25.9250    7.6320   15.6600 C.3    65  GLY65       0.1956
    100  C         25.9400    6.4770   14.6710 C.2    65  GLY65       0.2611
    101  O         25.0260    6.3480   13.8530 O.2    65  GLY65      -0.2717
    102  N         26.9710    5.6430   14.7370 N.am   66  ALA66      -0.1979
    103  CA        27.1100    4.5270   13.8100 C.3    66  ALA66       0.1597
    104  C         26.3050    3.2960   14.2140 C.2    66  ALA66       0.2287
    105  O         26.3000    2.2980   13.5010 O.2    66  ALA66      -0.2864
    106  CB        28.5880    4.1570   13.6770 C.3    66  ALA66       0.0319
    107  N         22.8430    3.4510   15.1320 N.3    68  PHE68      -0.1241
    108  CA        21.4310    3.5570   14.7690 C.3    68  PHE68       0.1605
    109  C         21.0980    2.7060   13.5530 C.2    68  PHE68       0.2264
    110  O         21.7720    2.7870   12.5280 O.2    68  PHE68      -0.2867
    111  CB        21.0580    5.0080   14.4620 C.3    68  PHE68       0.0534
    112  CG        21.0520    5.8930   15.6670 C.ar   68  PHE68      -0.0203
    113  CD1       19.9090    6.0130   16.4480 C.ar   68  PHE68      -0.0042
    114  CD2       22.1970    6.5900   16.0390 C.ar   68  PHE68      -0.0042
    115  CE1       19.9020    6.8140   17.5840 C.ar   68  PHE68      -0.0003
    116  CE2       22.2010    7.3960   17.1810 C.ar   68  PHE68      -0.0003
    117  CZ        21.0500    7.5060   17.9520 C.ar   68  PHE68      -0.0000
    118  N         18.6310   12.1320   10.5960 N.3    78  HIS78      -0.1226
    119  CA        19.9980   12.5400   10.8790 C.3    78  HIS78       0.1752
    120  C         20.4610   13.6240    9.9170 C.2    78  HIS78       0.2596
    121  O         19.9690   13.7210    8.7940 O.2    78  HIS78      -0.2718
    122  CB        20.9490   11.3350   10.8130 C.3    78  HIS78       0.0759
    123  CG        21.2400   10.8460    9.4260 C.ar   78  HIS78       0.0818
    124  ND1       20.2740   10.3110    8.6000 N.ar   78  HIS78      -0.2268
    125  CD2       22.4030   10.7760    8.7370 C.ar   78  HIS78       0.1154
    126  CE1       20.8300    9.9310    7.4640 C.ar   78  HIS78       0.1986
    127  NE2       22.1220   10.2010    7.5220 N.ar   78  HIS78      -0.2212
    128  N         21.3990   14.4440   10.3780 N.am   79  GLU79      -0.1965
    129  CA        21.9560   15.5230    9.5680 C.3    79  GLU79       0.1733
    130  C         23.4170   15.7080    9.9570 C.2    79  GLU79       0.2616
    131  O         23.7950   15.4700   11.1010 O.2    79  GLU79      -0.2715
    132  CB        21.1840   16.8350    9.7980 C.3    79  GLU79       0.0429
    133  CG        21.1890   17.3250   11.2440 C.3    79  GLU79       0.1163
    134  CD        20.4890   18.6690   11.4220 C.2    79  GLU79       0.3649
    135  OE1       19.3340   18.8160   10.9660 O.co2  79  GLU79      -0.2457
    136  OE2       21.0940   19.5770   12.0310 O.co2  79  GLU79      -0.2457
    137  N         24.2440   16.0970    8.9950 N.am   80  LEU80      -0.1963
    138  CA        25.6540   16.3280    9.2700 C.3    80  LEU80       0.1728
    139  C         26.0180   17.7390    8.8250 C.2    80  LEU80       0.2617
    140  O         25.5650   18.2130    7.7810 O.2    80  LEU80      -0.2715
    141  CB        26.5370   15.3010    8.5530 C.3    80  LEU80       0.0311
    142  CG        26.5940   13.9120    9.2080 C.3    80  LEU80       0.0022
    143  CD1       25.3690   13.1040    8.8200 C.3    80  LEU80       0.0001
    144  CD2       27.8650   13.1920    8.7810 C.3    80  LEU80       0.0001
    145  N         26.8330   18.4060    9.6300 N.am   81  THR81      -0.1937
    146  CA        27.2490   19.7690    9.3380 C.3    81  THR81       0.2028
    147  C         28.1800   19.8600    8.1290 C.2    81  THR81       0.2642
    148  O         28.5690   18.8450    7.5400 O.2    81  THR81      -0.2714
    149  CB        27.9610   20.3810   10.5530 C.3    81  THR81       0.1808
    150  OG1       29.0930   19.5720   10.8980 O.3    81  THR81      -0.2208
    151  CG2       27.0130   20.4480   11.7390 C.3    81  THR81       0.0379
    152  N         28.5230   21.0850    7.7460 N.am   82  ALA82      -0.1977
    153  CA        29.4290   21.2790    6.6260 C.3    82  ALA82       0.1597
    154  C         30.7300   20.5920    7.0260 C.2    82  ALA82       0.2287
    155  O         31.1500   20.6700    8.1820 O.2    82  ALA82      -0.2864
    156  CB        29.6650   22.7620    6.3860 C.3    82  ALA82       0.0319
    157  N         31.0580   17.5890    7.3250 N.3    84  LEU84      -0.1245
    158  CA        30.6570   16.3400    7.9690 C.3    84  LEU84       0.1561
    159  C         31.2720   16.1680    9.3580 C.2    84  LEU84       0.2260
    160  O         31.3510   15.0500    9.8700 O.2    84  LEU84      -0.2867
    161  CB        31.0530   15.1440    7.0920 C.3    84  LEU84       0.0270
    162  CG        30.4430   15.0350    5.6930 C.3    84  LEU84       0.0019
    163  CD1       30.9570   13.7650    5.0160 C.3    84  LEU84       0.0001
    164  CD2       28.9260   15.0080    5.7840 C.3    84  LEU84       0.0001
    165  N         23.8580   15.0360   13.9770 N.3    88  ARG88      -0.1245
    166  CA        22.7930   15.1860   14.9540 C.3    88  ARG88       0.1563
    167  C         21.6420   14.2710   14.5690 C.2    88  ARG88       0.2260
    168  O         21.3050   14.1430   13.3900 O.2    88  ARG88      -0.2867
    169  CB        22.2740   16.6270   15.0040 C.3    88  ARG88       0.0307
    170  CG        23.3050   17.6840   15.3580 C.3    88  ARG88       0.0489
    171  CD        22.6120   19.0130   15.6480 C.3    88  ARG88       0.2205
    172  NE        23.5460   20.1310   15.7590 N.pl3  88  ARG88      -0.0865
    173  CZ        24.1630   20.6980   14.7250 C.cat  88  ARG88       0.5346
    174  NH1       23.9460   20.2550   13.4930 N.pl3  88  ARG88       0.1354
    175  NH2       24.9940   21.7130   14.9210 N.pl3  88  ARG88       0.1354
    176  N         16.7770    5.6740   11.7940 N.3   103  ILE103     -0.1231
    177  CA        16.9400    6.7640   10.8330 C.3   103  ILE103      0.1692
    178  C         16.8270    6.1730    9.4320 C.2   103  ILE103      0.2593
    179  O         16.5360    4.9840    9.2790 O.2   103  ILE103     -0.2718
    180  CB        18.3220    7.4720   10.9740 C.3   103  ILE103      0.0266
    181  CG1       19.4630    6.4830   10.7070 C.3   103  ILE103      0.0019
    182  CG2       18.4470    8.0920   12.3540 C.3   103  ILE103      0.0020
    183  CD1       20.8730    7.0910   10.7870 C.3   103  ILE103      0.0001
    184  N         17.0320    7.0010    8.4120 N.am  104  SER104     -0.1938
    185  CA        16.9680    6.5310    7.0340 C.3   104  SER104      0.2055
    186  C         18.3380    6.6250    6.3710 C.2   104  SER104      0.2643
    187  O         18.8900    7.7150    6.2160 O.2   104  SER104     -0.2714
    188  CB        15.9520    7.3470    6.2300 C.3   104  SER104      0.2130
    189  OG        15.9330    6.9030    4.8840 O.3   104  SER104     -0.2179
    190  N         18.8890    5.4780    5.9780 N.am  105  TYR105     -0.1959
    191  CA        20.2020    5.4430    5.3420 C.3   105  TYR105      0.1771
    192  C         20.1810    5.9380    3.9010 C.2   105  TYR105      0.2620
    193  O         21.2250    6.2550    3.3380 O.2   105  TYR105     -0.2715
    194  CB        20.7670    4.0190    5.3190 C.3   105  TYR105      0.0574
    195  CG        21.0810    3.3790    6.6550 C.ar  105  TYR105     -0.0198
    196  CD1       20.9110    4.0650    7.8600 C.ar  105  TYR105     -0.0009
    197  CD2       21.5550    2.0650    6.7040 C.ar  105  TYR105     -0.0009
    198  CE1       21.2080    3.4460    9.0840 C.ar  105  TYR105      0.0417
    199  CE2       21.8520    1.4460    7.9040 C.ar  105  TYR105      0.0417
    200  CZ        21.6780    2.1340    9.0910 C.ar  105  TYR105      0.1957
    201  OH        21.9720    1.4900   10.2710 O.3   105  TYR105     -0.2866
    202  N         18.9950    5.9950    3.3040 N.am  106  GLY106     -0.1954
    203  CA        18.8970    6.4010    1.9140 C.3   106  GLY106      0.1869
    204  C         18.7020    5.1490    1.0740 C.2   106  GLY106      0.2309
    205  O         19.1850    4.0780    1.4370 O.2   106  GLY106     -0.2863
    206  N         19.9120    4.1220   -1.9890 N.3   108  ASP108     -0.1225
    207  CA        21.0860    3.4860   -2.5750 C.3   108  ASP108      0.1805
    208  C         21.8370    2.5300   -1.6540 C.2   108  ASP108      0.2597
    209  O         22.4110    1.5440   -2.1190 O.2   108  ASP108     -0.2718
    210  CB        22.0470    4.5450   -3.1180 C.3   108  ASP108      0.1424
    211  CG        21.4750    5.2910   -4.3140 C.2   108  ASP108      0.3668
    212  OD1       20.5630    4.7480   -4.9730 O.co2 108  ASP108     -0.2456
    213  OD2       21.9480    6.4100   -4.6040 O.co2 108  ASP108     -0.2456
    214  N         21.8510    2.8250   -0.3590 N.am  109  TYR109     -0.1976
    215  CA        22.5230    1.9610    0.6010 C.3   109  TYR109      0.1639
    216  C         21.9790    0.5450    0.4420 C.2   109  TYR109      0.2290
    217  O         22.7360   -0.4290    0.4020 O.2   109  TYR109     -0.2864
    218  CB        22.2350    2.4330    2.0280 C.3   109  TYR109      0.0560
    219  CG        22.9260    1.6260    3.0970 C.ar  109  TYR109     -0.0198
    220  CD1       24.1460    2.0460    3.6320 C.ar  109  TYR109     -0.0009
    221  CD2       22.3700    0.4390    3.5800 C.ar  109  TYR109     -0.0009
    222  CE1       24.7930    1.3110    4.6260 C.ar  109  TYR109      0.0417
    223  CE2       23.0130   -0.3090    4.5730 C.ar  109  TYR109      0.0417
    224  CZ        24.2200    0.1350    5.0920 C.ar  109  TYR109      0.1957
    225  OH        24.8510   -0.5800    6.0840 O.3   109  TYR109     -0.2866
    226  N         22.0770   -1.0470   -3.4160 N.3   112  SER112     -0.1202
    227  CA        23.4280   -1.5170   -3.7160 C.3   112  SER112      0.2020
    228  C         23.8030   -2.7890   -2.9560 C.2   112  SER112      0.2618
    229  O         24.8880   -3.3460   -3.1630 O.2   112  SER112     -0.2717
    230  CB        24.4570   -0.4260   -3.3960 C.3   112  SER112      0.2103
    231  OG        24.5480   -0.2090   -2.0000 O.3   112  SER112     -0.2182
    232  N         22.9140   -3.2390   -2.0760 N.am  113  ARG113     -0.1979
    233  CA        23.1390   -4.4440   -1.2750 C.3   113  ARG113      0.1597
    234  C         21.9540   -5.4050   -1.4340 C.2   113  ARG113      0.2287
    235  O         21.2760   -5.7390   -0.4640 O.2   113  ARG113     -0.2864
    236  CB        23.2940   -4.0710    0.2030 C.3   113  ARG113      0.0334
    237  CG        24.5190   -3.2080    0.5310 C.3   113  ARG113      0.0492
    238  CD        24.5230   -2.8330    2.0090 C.3   113  ARG113      0.2205
    239  NE        25.7590   -2.1730    2.4330 N.pl3 113  ARG113     -0.0865
    240  CZ        26.1390   -0.9500    2.0670 C.cat 113  ARG113      0.5346
    241  NH1       25.3850   -0.2190    1.2590 N.pl3 113  ARG113      0.1354
    242  NH2       27.2860   -0.4550    2.5140 N.pl3 113  ARG113      0.1354
@<TRIPOS>BOND
     1   212   211   ar
     2   213   211   ar
     3   211   210    1
     4   227   226    1
     5   227   230    1
     6   227   228    1
     7   230   231    1
     8   229   228    2
     9   210   207    1
    10   228   232   am
    11   207   206    1
    12   207   208    1
    13   209   208    2
    14   232   233    1
    15     8     6   am
    16   208   214   am
    17   234   233    1
    18   234   235    2
    19   233   236    1
    20     5     6    1
    21     5     2    1
    22     6     7    2
    23   214   215    1
    24    83    84    2
    25    83    82    1
    26   236   237    1
    27     3     2    1
    28     3     4    2
    29   217   216    2
    30     2     1    1
    31   216   215    1
    32   237   238    1
    33   215   218    1
    34    34    33   ar
    35    80    79    1
    36    82    81    1
    37    82    85    1
    38   204   205    2
    39   204   203    1
    40    86    85    1
    41    86    87    1
    42   241   240    1
    43    33    35   ar
    44    33    32    1
    45    81    77   am
    46    79    76    1
    47    78    77    2
    48   203   202    1
    49   238   239    1
    50   218   219    1
    51   240   239    2
    52   240   242    1
    53    87    88    1
    54    77    76    1
    55    32    31    1
    56    26    25    2
    57    97    96    1
    58    76    75    1
    59    88    89    2
    60   219   221   ar
    61   219   220   ar
    62    25    24    1
    63    92    93    1
    64   202   192   am
    65   193   192    2
    66    24    23    1
    67    31    28    1
    68     9    10    1
    69    23    11   am
    70   221   223   ar
    71   220   222   ar
    72    96    93    1
    73    75    66   am
    74   192   191    1
    75    93    94    1
    76    30    29    2
    77    89    90    1
    78    89    91    1
    79    15    17   ar
    80    15    14   ar
    81    42    41   ar
    82    28    29    1
    83    28    27    1
    84    11    10    1
    85    11    12    2
    86    10    13    1
    87   223   224   ar
    88   222   224   ar
    89    13    14    1
    90    29    36   am
    91   189   188    1
    92    66    67    2
    93    66    65    1
    94   163   162    1
    95    17    18   ar
    96    14    16   ar
    97   224   225    1
    98   194   191    1
    99   194   195    1
   100   191   190    1
   101    62    61    1
   102    41    43   ar
   103    41    40    1
   104    94    95    2
   105   162   164    1
   106   162   161    1
   107    59    58    2
   108    36    37    1
   109   190   186   am
   110    65    64    1
   111    65    68    1
   112    60    61    1
   113    60    57    1
   114    37    40    1
   115    37    38    1
   116   187   186    2
   117   188   185    1
   118    18    16   ar
   119    18    20   ar
   120   186   185    1
   121   156   153    1
   122    58    64   am
   123    58    57    1
   124    16    19   ar
   125    61    63    1
   126   153   154    1
   127   153   152    1
   128   195   197   ar
   129   195   196   ar
   130   197   199   ar
   131   154   155    2
   132    57    56    1
   133   185   184    1
   134    68    69    1
   135   161   158    1
   136    38    39    2
   137    38    44   am
   138   157   158    1
   139   126   127   ar
   140   126   124   ar
   141    56    46   am
   142    20    22   ar
   143   127   125   ar
   144   148   147    2
   145    19    21   ar
   146    44    45    1
   147   152   147   am
   148   140   139    2
   149   196   198   ar
   150   199   200   ar
   151   158   159    1
   152    70    69   ar
   153    70    72   ar
   154   147   146    1
   155    69    71   ar
   156    46    45    1
   157    46    47    2
   158   184   178   am
   159   141   142    1
   160   141   138    1
   161   124   123   ar
   162    22    21   ar
   163   125   123   ar
   164   144   142    1
   165    45    48    1
   166   121   120    2
   167   143   142    1
   168   139   138    1
   169   139   145   am
   170   137   138    1
   171   137   130   am
   172    72    74   ar
   173   198   200   ar
   174   200   201    1
   175   179   178    2
   176   146   145    1
   177   146   149    1
   178    71    73   ar
   179   159   160    2
   180   123   122    1
   181   178   177    1
   182   129   132    1
   183   129   130    1
   184   129   128    1
   185   132   133    1
   186   120   128   am
   187   120   119    1
   188    48    49    1
   189   130   131    2
   190    74    73   ar
   191    51    49   ar
   192    51    53   ar
   193   149   150    1
   194   149   151    1
   195   118   119    1
   196    49    50   ar
   197   181   183    1
   198   181   180    1
   199   122   119    1
   200   177   180    1
   201   177   176    1
   202    53    54   ar
   203   135   134   ar
   204   180   182    1
   205   133   134    1
   206   134   136   ar
   207    50    52   ar
   208    54    52   ar
   209    54    55    1
   210   110   109    2
   211   168   167    2
   212   174   173    1
   213   105   104    2
   214   109   108    1
   215   106   103    1
   216   103   104    1
   217   103   102    1
   218   101   100    2
   219   165   166    1
   220   111   108    1
   221   111   112    1
   222   167   166    1
   223   100   102   am
   224   100    99    1
   225   173   175    1
   226   173   172    2
   227   108   107    1
   228   166   169    1
   229   169   170    1
   230   170   171    1
   231   171   172    1
   232    99    98    1
   233   112   114   ar
   234   112   113   ar
   235   114   116   ar
   236   113   115   ar
   237   116   117   ar
   238   115   117   ar
