@<TRIPOS>MOLECULE
tmp/3kmwA00.pdb
 185 175 0 0 0
SMALL
GASTEIGER

@<TRIPOS>ATOM
      1  N        -16.1490    5.2090   11.6280 N.3    15  LEU15      -0.1231
      2  CA       -15.2320    4.7180   10.5970 C.3    15  LEU15       0.1693
      3  C        -15.1540    3.1940   10.5360 C.2    15  LEU15       0.2592
      4  O        -14.9870    2.6050    9.4460 O.2    15  LEU15      -0.2718
      5  CB       -13.8330    5.3200   10.8430 C.3    15  LEU15       0.0284
      6  CG       -13.6840    6.8420   10.8150 C.3    15  LEU15       0.0019
      7  CD1      -12.2180    7.3210   11.2170 C.3    15  LEU15       0.0001
      8  CD2      -14.1330    7.5060    9.4630 C.3    15  LEU15       0.0001
      9  N        -15.3070    2.5450   11.6960 N.am   16  ASN16      -0.1974
     10  CA       -15.0670    1.1010   11.7880 C.3    16  ASN16       0.1688
     11  C        -15.5970    0.5460   13.0720 C.2    16  ASN16       0.2292
     12  O        -15.6990    1.2790   14.0500 O.2    16  ASN16      -0.2864
     13  CB       -13.5550    0.7910   11.6900 C.3    16  ASN16       0.1181
     14  CG       -13.2480   -0.6800   11.3970 C.2    16  ASN16       0.2629
     15  OD1      -13.9650   -1.3400   10.6260 O.2    16  ASN16      -0.2716
     16  ND2      -12.1370   -1.1950   11.9720 N.am   16  ASN16      -0.0877
     17  N        -14.7390   -3.4710   14.9820 N.3    18  ASN18      -0.1225
     18  CA       -13.9580   -4.6860   14.8020 C.3    18  ASN18       0.1785
     19  C        -13.7510   -5.3350   16.1560 C.2    18  ASN18       0.2597
     20  O        -14.3870   -4.9310   17.1490 O.2    18  ASN18      -0.2718
     21  CB       -12.6140   -4.3880   14.0740 C.3    18  ASN18       0.1169
     22  CG       -11.6350   -3.5780   14.9400 C.2    18  ASN18       0.2627
     23  OD1      -11.9750   -3.1420   16.0520 O.2    18  ASN18      -0.2716
     24  ND2      -10.4110   -3.4270   14.4630 N.am   18  ASN18      -0.0877
     25  N        -12.8480   -6.3160   16.2080 N.am   19  HIS19      -0.1961
     26  CA       -12.5120   -7.0310   17.4480 C.3    19  HIS19       0.1787
     27  C        -12.0950   -6.1260   18.6350 C.2    19  HIS19       0.2620
     28  O        -12.2480   -6.5480   19.7740 O.2    19  HIS19      -0.2715
     29  CB       -11.4010   -8.0760   17.1730 C.3    19  HIS19       0.0785
     30  CG       -10.1260   -7.4670   16.6770 C.ar   19  HIS19       0.0821
     31  ND1       -9.8620   -7.2810   15.3360 N.ar   19  HIS19      -0.2267
     32  CD2       -9.0760   -6.9270   17.3440 C.ar   19  HIS19       0.1154
     33  CE1       -8.6940   -6.6730   15.1990 C.ar   19  HIS19       0.1986
     34  NE2       -8.2040   -6.4360   16.4030 N.ar   19  HIS19      -0.2212
     35  N        -11.5310   -4.9380   18.3510 N.am   20  SER20      -0.1950
     36  CA       -11.0010   -3.9900   19.3600 C.3    20  SER20       0.1924
     37  C        -12.0410   -3.0710   19.9310 C.2    20  SER20       0.2314
     38  O        -11.8450   -2.5430   21.0130 O.2    20  SER20      -0.2863
     39  CB        -9.9020   -3.0490   18.7950 C.3    20  SER20       0.2116
     40  OG        -8.7650   -3.7750   18.3430 O.3    20  SER20      -0.2180
     41  N        -14.4580    0.2010   18.3950 N.3    22  GLU22      -0.1231
     42  CA       -14.8570    1.0460   17.2460 C.3    22  GLU22       0.1699
     43  C        -13.9790    2.2790   17.0650 C.2    22  GLU22       0.2592
     44  O        -13.2630    2.6980   17.9790 O.2    22  GLU22      -0.2718
     45  CB       -16.3790    1.3910   17.2560 C.3    22  GLU22       0.0402
     46  CG       -16.9190    1.7030   18.5790 C.3    22  GLU22       0.1161
     47  CD       -18.4500    1.9910   18.6420 C.2    22  GLU22       0.3649
     48  OE1      -19.2810    1.0720   18.5590 O.co2  22  GLU22      -0.2457
     49  OE2      -18.7660    3.1710   18.8200 O.co2  22  GLU22      -0.2457
     50  N        -14.0080    2.8250   15.8640 N.am   23  LEU23      -0.1980
     51  CA       -13.2700    4.0350   15.5220 C.3    23  LEU23       0.1596
     52  C        -14.2130    5.0330   14.8990 C.2    23  LEU23       0.2287
     53  O        -14.9650    4.7020   13.9840 O.2    23  LEU23      -0.2864
     54  CB       -12.1160    3.7300   14.5480 C.3    23  LEU23       0.0297
     55  CG       -11.0570    4.8680   14.4840 C.3    23  LEU23       0.0022
     56  CD1      -10.1280    4.8990   15.7250 C.3    23  LEU23       0.0001
     57  CD2      -10.2110    4.7380   13.2500 C.3    23  LEU23       0.0001
     58  N         -9.3730   11.0380   15.4470 N.3    34  VAL34      -0.1245
     59  CA       -10.1330    9.8030   15.5170 C.3    34  VAL34       0.1561
     60  C        -10.2650    9.4530   16.9790 C.2    34  VAL34       0.2260
     61  O         -9.3870    9.7880   17.7670 O.2    34  VAL34      -0.2867
     62  CB        -9.5760    8.6520   14.6310 C.3    34  VAL34       0.0252
     63  CG1       -9.6110    9.0710   13.1400 C.3    34  VAL34       0.0019
     64  CG2       -8.1490    8.2180   15.0550 C.3    34  VAL34       0.0019
     65  N        -10.8190    6.1730   19.2900 N.3    36  LYS36      -0.1245
     66  CA       -10.8400    4.7420   19.4020 C.3    36  LYS36       0.1561
     67  C        -11.5050    4.3230   20.7310 C.2    36  LYS36       0.2260
     68  O        -11.0170    4.6440   21.8270 O.2    36  LYS36      -0.2867
     69  CB        -9.4070    4.2050   19.3150 C.3    36  LYS36       0.0271
     70  CG        -9.2740    2.6610   19.3850 C.3    36  LYS36       0.0035
     71  CD        -9.4820    1.9680   18.0860 C.3    36  LYS36       0.0206
     72  CE        -8.6300    0.6660   18.0170 C.3    36  LYS36       0.1093
     73  NZ        -9.0130    0.0740   16.7670 N.3    36  LYS36      -0.1314
     74  N          3.2990    9.4560   15.6560 N.3    67  LEU67      -0.1245
     75  CA         2.0050   10.0760   15.8590 C.3    67  LEU67       0.1561
     76  C          1.5240    9.8240   17.3050 C.2    67  LEU67       0.2260
     77  O          1.1360    8.7220   17.6220 O.2    67  LEU67      -0.2867
     78  CB         0.9900    9.4720   14.8620 C.3    67  LEU67       0.0270
     79  CG        -0.4000   10.1040   14.8660 C.3    67  LEU67       0.0019
     80  CD1       -0.2660   11.5340   14.3190 C.3    67  LEU67       0.0001
     81  CD2       -1.4140    9.1870   14.0390 C.3    67  LEU67       0.0001
     82  N         -6.4350   10.4890   18.7880 N.3    85  THR85      -0.1203
     83  CA        -5.2100   10.8480   18.0790 C.3    85  THR85       0.1994
     84  C         -5.6230   11.7200   16.8810 C.2    85  THR85       0.2618
     85  O         -6.7980   11.7410   16.5000 O.2    85  THR85      -0.2717
     86  CB        -4.3690    9.5170   17.6900 C.3    85  THR85       0.1784
     87  OG1       -3.1180    9.8830   17.1280 O.3    85  THR85      -0.2211
     88  CG2       -5.0990    8.6210   16.6880 C.3    85  THR85       0.0376
     89  N         -4.6790   12.4470   16.2900 N.am   86  HIS86      -0.1961
     90  CA        -5.0130   13.2100   15.1120 C.3    86  HIS86       0.1787
     91  C         -5.5060   12.3710   13.9300 C.2    86  HIS86       0.2620
     92  O         -5.0580   11.2430   13.7030 O.2    86  HIS86      -0.2715
     93  CB        -3.8510   14.0880   14.6940 C.3    86  HIS86       0.0785
     94  CG        -3.7800   15.3590   15.4860 C.ar   86  HIS86       0.0821
     95  ND1       -2.6730   15.7390   16.2110 N.ar   86  HIS86      -0.2267
     96  CD2       -4.6930   16.3460   15.6490 C.ar   86  HIS86       0.1154
     97  CE1       -2.8980   16.9130   16.7710 C.ar   86  HIS86       0.1986
     98  NE2       -4.1240   17.2970   16.4570 N.ar   86  HIS86      -0.2212
     99  N         -6.4070   12.9860   13.1730 N.am   87  TRP87      -0.1960
    100  CA        -6.9230   12.4530   11.9370 C.3    87  TRP87       0.1771
    101  C         -5.8550   12.5670   10.8540 C.2    87  TRP87       0.2619
    102  O         -5.3150   13.6260   10.6450 O.2    87  TRP87      -0.2715
    103  CB        -8.1280   13.3210   11.5550 C.3    87  TRP87       0.0590
    104  CG        -8.5550   13.1700   10.1400 C.ar   87  TRP87       0.0006
    105  CD1       -8.3450   14.0670    9.1040 C.ar   87  TRP87       0.0946
    106  CD2       -9.2600   12.0650    9.5810 C.ar   87  TRP87       0.0152
    107  NE1       -8.9130   13.5740    7.9530 N.ar   87  TRP87      -0.2442
    108  CE2       -9.4610   12.3450    8.2080 C.ar   87  TRP87       0.0810
    109  CE3       -9.7550   10.8710   10.1070 C.ar   87  TRP87       0.0012
    110  CZ2      -10.1450   11.4700    7.3540 C.ar   87  TRP87       0.0191
    111  CZ3      -10.4180    9.9770    9.2530 C.ar   87  TRP87       0.0001
    112  CH2      -10.6260   10.2930    7.8900 C.ar   87  TRP87       0.0015
    113  N         -5.5130   11.4670   10.2010 N.am   88  MET88      -0.1977
    114  CA        -4.4560   11.4460    9.1840 C.3    88  MET88       0.1605
    115  C         -5.2030   11.2390    7.8480 C.2    88  MET88       0.2287
    116  O         -5.8740   10.2300    7.6720 O.2    88  MET88      -0.2864
    117  CB        -3.4430   10.2980    9.4630 C.3    88  MET88       0.0413
    118  CG        -2.5810   10.5100   10.7650 C.3    88  MET88       0.0598
    119  SD        -1.2940   11.7060   10.5670 S.3    88  MET88      -0.1393
    120  CE        -1.9290   13.1380   11.4720 C.3    88  MET88       0.0692
    121  N         -4.8390    8.0360    5.8400 N.3    91  GLY91      -0.1210
    122  CA        -5.0710    6.8180    6.5760 C.3    91  GLY91       0.1956
    123  C         -3.7730    6.0930    6.8300 C.2    91  GLY91       0.2612
    124  O         -2.7070    6.7160    6.9230 O.2    91  GLY91      -0.2717
    125  N         -3.8620    4.7850    6.8750 N.am   92  SER92      -0.1952
    126  CA        -2.7010    3.9570    7.1110 C.3    92  SER92       0.1924
    127  C         -1.8350    3.7790    5.8760 C.2    92  SER92       0.2314
    128  O         -2.3150    3.9440    4.7300 O.2    92  SER92      -0.2863
    129  CB        -3.1170    2.6090    7.7080 C.3    92  SER92       0.2116
    130  OG        -3.6900    1.7730    6.7270 O.3    92  SER92      -0.2180
    131  N         -3.5220    1.3560    3.8190 N.3    95  ASN95      -0.1240
    132  CA        -4.5670    1.9930    2.9820 C.3    95  ASN95       0.1653
    133  C         -3.9340    2.5530    1.6820 C.2    95  ASN95       0.2266
    134  O         -4.4400    2.3420    0.5460 O.2    95  ASN95      -0.2867
    135  CB        -5.2270    3.1840    3.7420 C.3    95  ASN95       0.1155
    136  CG        -6.2180    2.7530    4.8900 C.2    95  ASN95       0.2627
    137  OD1       -6.8030    1.6540    4.8660 O.2    95  ASN95      -0.2716
    138  ND2       -6.4610    3.6770    5.8520 N.am   95  ASN95      -0.0877
    139  N         -0.4950   -1.4980    8.7760 N.3   139  ARG139     -0.1245
    140  CA        -1.6640   -0.9870    9.4960 C.3   139  ARG139      0.1563
    141  C         -1.3580   -0.0640   10.6850 C.2   139  ARG139      0.2260
    142  O         -2.2240    0.7280   11.0780 O.2   139  ARG139     -0.2867
    143  CB        -2.5320   -2.1680    9.9530 C.3   139  ARG139      0.0307
    144  CG        -3.2040   -2.8320    8.7370 C.3   139  ARG139      0.0489
    145  CD        -4.4490   -3.5730    9.1940 C.3   139  ARG139      0.2205
    146  NE        -5.4980   -3.5690    8.1710 N.pl3 139  ARG139     -0.0865
    147  CZ        -5.7190   -4.5570    7.3150 C.cat 139  ARG139      0.5346
    148  NH1       -4.9560   -5.6500    7.3180 N.pl3 139  ARG139      0.1354
    149  NH2       -6.7280   -4.4510    6.4610 N.pl3 139  ARG139      0.1354
    150  N          0.6980    5.6300   10.0220 N.3   142  MET142     -0.1245
    151  CA        -0.2480    6.4840    9.3220 C.3   142  MET142      0.1570
    152  C          0.5070    7.4540    8.4070 C.2   142  MET142      0.2261
    153  O          1.6340    7.8260    8.6660 O.2   142  MET142     -0.2867
    154  CB        -1.0950    7.3220   10.3360 C.3   142  MET142      0.0387
    155  CG        -1.9520    6.5060   11.3190 C.3   142  MET142      0.0595
    156  SD        -3.2730    5.6290   10.3800 S.3   142  MET142     -0.1393
    157  CE        -3.2400    4.1100   11.2340 C.3   142  MET142      0.0692
    158  N          2.0060    4.8360   14.3920 N.3   152  SER152     -0.1217
    159  CA         0.7260    5.0300   15.0950 C.3   152  SER152      0.1889
    160  C          0.7090    4.5450   16.5450 C.2   152  SER152      0.2288
    161  O          0.5410    3.3540   16.8330 O.2   152  SER152     -0.2866
    162  CB        -0.4370    4.3950   14.3030 C.3   152  SER152      0.2089
    163  OG        -1.7180    4.5580   14.9700 O.3   152  SER152     -0.2183
    164  N         -1.5420    5.0520   18.6270 N.3   154  ALA154     -0.1231
    165  CA        -2.9110    4.5170   18.8810 C.3   154  ALA154      0.1694
    166  C         -3.1010    3.0720   18.3910 C.2   154  ALA154      0.2592
    167  O         -4.2300    2.5550   18.4650 O.2   154  ALA154     -0.2718
    168  CB        -3.9960    5.4310   18.2450 C.3   154  ALA154      0.0304
    169  N         -2.0480    2.4670   17.8190 N.am  155  ASP155     -0.1974
    170  CA        -2.0790    1.0570   17.4220 C.3   155  ASP155      0.1709
    171  C         -1.3450    0.1300   18.3500 C.2   155  ASP155      0.2293
    172  O         -1.2940   -1.0800   18.1340 O.2   155  ASP155     -0.2864
    173  CB        -1.6820    0.8620   15.9460 C.3   155  ASP155      0.1436
    174  CG        -2.8590    1.2300   15.0340 C.2   155  ASP155      0.3671
    175  OD1       -3.7930    0.4300   15.0190 O.co2 155  ASP155     -0.2456
    176  OD2       -2.9240    2.3650   14.4910 O.co2 155  ASP155     -0.2456
    177  N         -1.1440   -2.1150   21.5090 N.3   157  LYS157     -0.1245
    178  CA        -2.1860   -2.8550   22.1490 C.3   157  LYS157      0.1561
    179  C         -1.9680   -2.6960   23.6340 C.2   157  LYS157      0.2260
    180  O         -0.8510   -2.6770   24.1140 O.2   157  LYS157     -0.2867
    181  CB        -2.1340   -4.3350   21.7360 C.3   157  LYS157      0.0271
    182  CG        -2.3420   -4.5720   20.2190 C.3   157  LYS157      0.0035
    183  CD        -3.7660   -4.1640   19.7560 C.3   157  LYS157      0.0206
    184  CE        -3.9630   -4.2540   18.2180 C.3   157  LYS157      0.1093
    185  NZ        -3.6840   -2.9280   17.5070 N.3   157  LYS157     -0.1314
@<TRIPOS>BOND
     1   134   133    2
     2   133   132    1
     3   132   135    1
     4   132   131    1
     5   135   136    1
     6   128   127    2
     7   137   136    2
     8   136   138   am
     9   121   122    1
    10   127   126    1
    11   149   147    1
    12   122   123    1
    13   130   129    1
    14   123   125   am
    15   123   124    2
    16   125   126    1
    17   126   129    1
    18   147   148    1
    19   147   146    2
    20   110   112   ar
    21   110   108   ar
    22   116   115    2
    23   115   114    1
    24   112   111   ar
    25   107   108   ar
    26   107   105   ar
    27   146   145    1
    28   108   106   ar
    29   152   153    2
    30   152   151    1
    31   144   145    1
    32   144   143    1
    33   139   140    1
    34   105   104   ar
    35   114   117    1
    36   114   113    1
    37   111   109   ar
    38   151   150    1
    39   151   154    1
    40     4     3    2
    41   117   118    1
    42     8     6    1
    43   140   143    1
    44   140   141    1
    45   106   109   ar
    46   106   104   ar
    47   104   103    1
    48   113   101   am
    49   154   155    1
    50   156   157    1
    51   156   155    1
    52     3     2    1
    53     3     9   am
    54   119   118    1
    55   119   120    1
    56     2     5    1
    57     2     1    1
    58    15    14    2
    59   102   101    2
    60   141   142    2
    61     6     5    1
    62     6     7    1
    63   101   100    1
    64    14    13    1
    65    14    16   am
    66   103   100    1
    67    13    10    1
    68     9    10    1
    69    10    11    1
    70   100    99    1
    71    11    12    2
    72    63    62    1
    73    99    91   am
    74    57    55    1
    75    92    91    2
    76    91    90    1
    77    53    52    2
    78    81    79    1
    79    21    18    1
    80    21    22    1
    81   162   163    1
    82   162   159    1
    83    80    79    1
    84   158   159    1
    85    24    22   am
    86    55    54    1
    87    55    56    1
    88   176   174   ar
    89    54    51    1
    90    62    64    1
    91    62    59    1
    92    93    90    1
    93    93    94    1
    94    18    17    1
    95    18    19    1
    96    78    79    1
    97    78    75    1
    98    52    51    1
    99    22    23    2
   100   175   174   ar
   101   174   173    1
   102   159   160    1
   103    90    89    1
   104    33    31   ar
   105    33    34   ar
   106    31    30   ar
   107    58    59    1
   108    94    96   ar
   109    94    95   ar
   110    59    60    1
   111    51    50    1
   112    96    98   ar
   113    74    75    1
   114    75    76    1
   115    50    43   am
   116   173   170    1
   117    19    25   am
   118    19    20    2
   119    25    26    1
   120    95    97   ar
   121    89    84   am
   122    34    32   ar
   123    98    97   ar
   124    85    84    2
   125   160   161    2
   126    30    29    1
   127    30    32   ar
   128    88    86    1
   129    73    72    1
   130    84    83    1
   131    60    61    2
   132    43    42    1
   133    43    44    2
   134    87    86    1
   135    29    26    1
   136    42    45    1
   137    42    41    1
   138    45    46    1
   139    76    77    2
   140   170   169    1
   141   170   171    1
   142    26    27    1
   143   185   184    1
   144    86    83    1
   145   169   166   am
   146    72    71    1
   147    83    82    1
   148    71    70    1
   149   172   171    2
   150   184   183    1
   151   168   165    1
   152    40    39    1
   153    35    27   am
   154    35    36    1
   155   166   167    2
   156   166   165    1
   157    48    47   ar
   158    46    47    1
   159   164   165    1
   160    27    28    2
   161    47    49   ar
   162    39    36    1
   163    65    66    1
   164    69    70    1
   165    69    66    1
   166    36    37    1
   167    66    67    1
   168   183   182    1
   169    37    38    2
   170   182   181    1
   171    67    68    2
   172   177   178    1
   173   181   178    1
   174   178   179    1
   175   179   180    2
