@<TRIPOS>MOLECULE
tmp/3kmxA00.pdb
 176 168 0 0 0
SMALL
GASTEIGER

@<TRIPOS>ATOM
      1  N         35.7210    7.8610   23.5840 N.3    19  SER19      -0.1202
      2  CA        34.7260    8.6260   24.3230 C.3    19  SER19       0.2020
      3  C         34.1450    9.8390   23.6070 C.2    19  SER19       0.2619
      4  O         32.9390   10.0700   23.6660 O.2    19  SER19      -0.2717
      5  CB        35.2960    9.0550   25.6800 C.3    19  SER19       0.2103
      6  OG        36.3750    9.9580   25.5190 O.3    19  SER19      -0.2182
      7  N         34.9950   10.6020   22.9290 N.am   20  GLY20      -0.1942
      8  CA        34.5360   11.8000   22.2420 C.3    20  GLY20       0.2014
      9  C         33.6500   11.6130   21.0240 C.2    20  GLY20       0.2639
     10  O         32.8550   12.5010   20.6990 O.2    20  GLY20      -0.2714
     11  N         33.7780   10.4800   20.3410 N.am   21  GLN21      -0.1963
     12  CA        32.9640   10.2350   19.1550 C.3    21  GLN21       0.1733
     13  C         32.0560    9.0220   19.2690 C.2    21  GLN21       0.2616
     14  O         31.2590    8.7550   18.3690 O.2    21  GLN21      -0.2715
     15  CB        33.8440   10.1100   17.9090 C.3    21  GLN21       0.0408
     16  CG        34.6490   11.3640   17.6140 C.3    21  GLN21       0.0908
     17  CD        35.4950   11.2400   16.3610 C.2    21  GLN21       0.2608
     18  OE1       36.1090   10.2050   16.1070 O.2    21  GLN21      -0.2717
     19  NE2       35.5360   12.3080   15.5730 N.am   21  GLN21      -0.0878
     20  N         32.1790    8.2950   20.3760 N.am   22  GLY22      -0.1955
     21  CA        31.3430    7.1300   20.6010 C.3    22  GLY22       0.1869
     22  C         31.9690    5.7900   20.2760 C.2    22  GLY22       0.2309
     23  O         32.8840    5.6930   19.4570 O.2    22  GLY22      -0.2863
     24  N         26.6320    2.8470   16.7330 N.3    39  LEU39      -0.1245
     25  CA        26.9590    3.4000   18.0430 C.3    39  LEU39       0.1561
     26  C         26.1920    2.6620   19.1310 C.2    39  LEU39       0.2260
     27  O         24.9780    2.5010   19.0330 O.2    39  LEU39      -0.2867
     28  CB        26.5720    4.8780   18.0890 C.3    39  LEU39       0.0270
     29  CG        26.7410    5.5790   19.4400 C.3    39  LEU39       0.0019
     30  CD1       28.2270    5.7580   19.7230 C.3    39  LEU39       0.0001
     31  CD2       26.0310    6.9330   19.4110 C.3    39  LEU39       0.0001
     32  N         24.5220    2.7560   22.4400 N.3    41  ASP41      -0.1239
     33  CA        24.0010    3.7880   23.3250 C.3    41  ASP41       0.1674
     34  C         23.0150    3.3170   24.3920 C.2    41  ASP41       0.2266
     35  O         21.8630    3.0070   24.0990 O.2    41  ASP41      -0.2867
     36  CB        23.3680    4.8920   22.4700 C.3    41  ASP41       0.1410
     37  CG        22.8240    6.0300   23.2980 C.2    41  ASP41       0.3668
     38  OD1       23.3130    6.2270   24.4260 O.co2  41  ASP41      -0.2456
     39  OD2       21.9170    6.7360   22.8080 O.co2  41  ASP41      -0.2456
     40  N         21.8160    5.1530   26.5300 N.3    43  GLY43      -0.1210
     41  CA        21.0140    6.3190   26.8680 C.3    43  GLY43       0.1956
     42  C         19.7780    6.5690   26.0100 C.2    43  GLY43       0.2612
     43  O         19.0900    7.5730   26.1980 O.2    43  GLY43      -0.2717
     44  N         19.5000    5.6820   25.0590 N.am   44  SER44      -0.1952
     45  CA        18.3240    5.8280   24.1980 C.3    44  SER44       0.1924
     46  C         17.7610    4.4410   23.8920 C.2    44  SER44       0.2314
     47  O         18.3540    3.4320   24.2800 O.2    44  SER44      -0.2863
     48  CB        18.6800    6.5680   22.9070 C.3    44  SER44       0.2116
     49  OG        19.6020    5.8330   22.1270 O.3    44  SER44      -0.2180
     50  N         17.2840   16.3750   19.8560 N.3    80  TYR80      -0.1241
     51  CA        18.0940   16.4650   21.0660 C.3    80  TYR80       0.1605
     52  C         18.7030   17.8550   20.9820 C.2    80  TYR80       0.2264
     53  O         18.8590   18.3940   19.8860 O.2    80  TYR80      -0.2867
     54  CB        19.2190   15.4250   21.0660 C.3    80  TYR80       0.0534
     55  CG        18.7650   13.9830   21.0380 C.ar   80  TYR80      -0.0201
     56  CD1       18.1240   13.4060   22.1370 C.ar   80  TYR80      -0.0009
     57  CD2       18.9950   13.1870   19.9170 C.ar   80  TYR80      -0.0009
     58  CE1       17.7260   12.0690   22.1190 C.ar   80  TYR80       0.0417
     59  CE2       18.6020   11.8530   19.8880 C.ar   80  TYR80       0.0417
     60  CZ        17.9700   11.3010   20.9890 C.ar   80  TYR80       0.1957
     61  OH        17.5910    9.9810   20.9540 O.3    80  TYR80      -0.2866
     62  N         21.6360   18.6450   21.3260 N.3    82  GLN82      -0.1231
     63  CA        22.9030   18.5240   20.6100 C.3    82  GLN82       0.1698
     64  C         22.8480   17.5930   19.3980 C.2    82  GLN82       0.2592
     65  O         23.8670   17.0260   19.0020 O.2    82  GLN82      -0.2718
     66  CB        24.0040   18.0440   21.5650 C.3    82  GLN82       0.0381
     67  CG        23.9830   16.5470   21.9000 C.3    82  GLN82       0.0905
     68  CD        22.7100   16.0690   22.5850 C.2    82  GLN82       0.2608
     69  OE1       22.4730   14.8650   22.6910 O.2    82  GLN82      -0.2717
     70  NE2       21.8990   17.0020   23.0710 N.am   82  GLN82      -0.0878
     71  N         21.6680   17.4410   18.8060 N.am   83  GLY83      -0.1957
     72  CA        21.5390   16.5750   17.6460 C.3    83  GLY83       0.1869
     73  C         20.0970   16.2060   17.3600 C.2    83  GLY83       0.2309
     74  O         19.3010   16.0510   18.2840 O.2    83  GLY83      -0.2863
     75  N         23.4090   17.7330   12.9150 N.3   116  LYS116     -0.1231
     76  CA        24.3900   17.5940   13.9870 C.3   116  LYS116      0.1693
     77  C         24.2980   16.2430   14.6870 C.2   116  LYS116      0.2592
     78  O         24.6070   16.1370   15.8730 O.2   116  LYS116     -0.2718
     79  CB        24.1970   18.6970   15.0310 C.3   116  LYS116      0.0285
     80  CG        24.3270   20.1190   14.5140 C.3   116  LYS116      0.0035
     81  CD        24.1040   21.1060   15.6550 C.3   116  LYS116      0.0206
     82  CE        24.2160   22.5500   15.1940 C.3   116  LYS116      0.1093
     83  NZ        23.9900   23.5050   16.3210 N.3   116  LYS116     -0.1314
     84  N         23.8610   15.2140   13.9690 N.am  117  PHE117     -0.1976
     85  CA        23.7570   13.8890   14.5680 C.3   117  PHE117      0.1639
     86  C         24.9970   13.0700   14.2310 C.2   117  PHE117      0.2290
     87  O         25.7430   12.6620   15.1220 O.2   117  PHE117     -0.2864
     88  CB        22.5010   13.1640   14.0730 C.3   117  PHE117      0.0560
     89  CG        22.3100   11.8010   14.6830 C.ar  117  PHE117     -0.0200
     90  CD1       22.1500   11.6540   16.0580 C.ar  117  PHE117     -0.0042
     91  CD2       22.3060   10.6620   13.8830 C.ar  117  PHE117     -0.0042
     92  CE1       21.9890   10.3900   16.6290 C.ar  117  PHE117     -0.0003
     93  CE2       22.1460    9.3950   14.4430 C.ar  117  PHE117     -0.0003
     94  CZ        21.9870    9.2590   15.8170 C.ar  117  PHE117     -0.0000
     95  N         28.7170   12.1860   13.1670 N.3   119  ILE119     -0.1245
     96  CA        29.9990   12.8240   13.4450 C.3   119  ILE119      0.1561
     97  C         31.0310   12.4830   12.3730 C.2   119  ILE119      0.2260
     98  O         31.2540   11.3130   12.0590 O.2   119  ILE119     -0.2867
     99  CB        30.5360   12.3800   14.8250 C.3   119  ILE119      0.0252
    100  CG1       29.5450   12.7930   15.9180 C.3   119  ILE119      0.0019
    101  CG2       31.9100   12.9910   15.0760 C.3   119  ILE119      0.0019
    102  CD1       29.8950   12.2780   17.3150 C.3   119  ILE119      0.0001
    103  N         30.7730    5.4420   12.3210 N.3   124  TRP124     -0.1241
    104  CA        29.5210    4.7210   12.5450 C.3   124  TRP124      0.1605
    105  C         28.4050    5.3660   11.7270 C.2   124  TRP124      0.2264
    106  O         28.4110    6.5770   11.5000 O.2   124  TRP124     -0.2867
    107  CB        29.1300    4.6340   14.0370 C.3   124  TRP124      0.0550
    108  CG        29.1830    5.8950   14.8590 C.ar  124  TRP124      0.0003
    109  CD1       30.2120    6.3020   15.6620 C.ar  124  TRP124      0.0946
    110  CD2       28.1340    6.8570   15.0360 C.ar  124  TRP124      0.0152
    111  NE1       29.8660    7.4500   16.3330 N.ar  124  TRP124     -0.2442
    112  CE2       28.5960    7.8150   15.9670 C.ar  124  TRP124      0.0810
    113  CE3       26.8450    7.0020   14.5020 C.ar  124  TRP124      0.0012
    114  CZ2       27.8170    8.9060   16.3750 C.ar  124  TRP124      0.0191
    115  CZ3       26.0680    8.0860   14.9080 C.ar  124  TRP124      0.0001
    116  CH2       26.5580    9.0240   15.8360 C.ar  124  TRP124      0.0015
    117  N         22.7250    4.1320   15.2200 N.3   127  ILE127     -0.1245
    118  CA        22.7190    4.0750   16.6770 C.3   127  ILE127      0.1561
    119  C         21.8810    2.9120   17.2020 C.2   127  ILE127      0.2260
    120  O         20.8100    2.6160   16.6710 O.2   127  ILE127     -0.2867
    121  CB        22.1610    5.4040   17.2490 C.3   127  ILE127      0.0252
    122  CG1       22.2240    5.4070   18.7750 C.3   127  ILE127      0.0019
    123  CG2       20.7180    5.6000   16.7830 C.3   127  ILE127      0.0019
    124  CD1       21.9190    6.7800   19.3920 C.3   127  ILE127      0.0001
    125  N         15.3150    4.8170   31.4380 N.3   207  TYR207     -0.1241
    126  CA        16.7260    5.0610   31.1540 C.3   207  TYR207      0.1605
    127  C         17.2950    4.0160   32.0970 C.2   207  TYR207      0.2264
    128  O         16.5370    3.3700   32.8210 O.2   207  TYR207     -0.2867
    129  CB        17.1830    6.4250   31.6720 C.3   207  TYR207      0.0534
    130  CG        16.8030    7.5970   30.8150 C.ar  207  TYR207     -0.0201
    131  CD1       17.5420    7.9190   29.6790 C.ar  207  TYR207     -0.0009
    132  CD2       15.6910    8.3760   31.1260 C.ar  207  TYR207     -0.0009
    133  CE1       17.1830    8.9910   28.8700 C.ar  207  TYR207      0.0417
    134  CE2       15.3230    9.4470   30.3260 C.ar  207  TYR207      0.0417
    135  CZ        16.0710    9.7490   29.2010 C.ar  207  TYR207      0.1957
    136  OH        15.7090   10.8140   28.4120 O.3   207  TYR207     -0.2866
    137  N         21.6590    8.5560   35.4190 N.3   235  ILE235     -0.1245
    138  CA        21.6480    7.4520   34.4640 C.3   235  ILE235      0.1561
    139  C         23.0350    7.0490   33.9700 C.2   235  ILE235      0.2260
    140  O         23.9930    7.8130   34.0800 O.2   235  ILE235     -0.2867
    141  CB        20.7970    7.8120   33.2230 C.3   235  ILE235      0.0252
    142  CG1       21.4910    8.9190   32.4200 C.3   235  ILE235      0.0019
    143  CG2       19.4150    8.2850   33.6620 C.3   235  ILE235      0.0019
    144  CD1       20.7890    9.2820   31.1050 C.3   235  ILE235      0.0001
    145  N         24.9470    6.2530   30.7060 N.3   237  ASP237     -0.1225
    146  CA        24.7480    6.5640   29.2960 C.3   237  ASP237      0.1805
    147  C         26.0140    6.4940   28.4470 C.2   237  ASP237      0.2598
    148  O         26.8130    7.4280   28.4340 O.2   237  ASP237     -0.2718
    149  CB        24.1310    7.9690   29.2430 C.3   237  ASP237      0.1424
    150  CG        23.8630    8.4600   27.8390 C.2   237  ASP237      0.3668
    151  OD1       23.9560    7.6660   26.8810 O.co2 237  ASP237     -0.2456
    152  OD2       23.5430    9.6620   27.7050 O.co2 237  ASP237     -0.2456
    153  N         26.1830    5.3950   27.7160 N.am  238  SER238     -0.1938
    154  CA        27.3660    5.2360   26.8760 C.3   238  SER238      0.2055
    155  C         27.3560    6.1720   25.6700 C.2   238  SER238      0.2644
    156  O         28.3820    6.3450   25.0090 O.2   238  SER238     -0.2714
    157  CB        27.4960    3.7810   26.4020 C.3   238  SER238      0.2130
    158  OG        26.3920    3.3920   25.5960 O.3   238  SER238     -0.2179
    159  N         26.2050    6.7890   25.4050 N.am  239  GLY239     -0.1939
    160  CA        26.0720    7.6940   24.2730 C.3   239  GLY239      0.2014
    161  C         26.4710    9.1310   24.5510 C.2   239  GLY239      0.2640
    162  O         26.4170    9.9820   23.6610 O.2   239  GLY239     -0.2714
    163  N         26.8530    9.4040   25.7940 N.am  240  THR240     -0.1936
    164  CA        27.2920   10.7340   26.1950 C.3   240  THR240      0.2028
    165  C         28.7580   10.6170   26.5710 C.2   240  THR240      0.2642
    166  O         29.1570    9.6670   27.2410 O.2   240  THR240     -0.2714
    167  CB        26.4930   11.2520   27.4060 C.3   240  THR240      0.1808
    168  OG1       25.1520   11.5260   26.9940 O.3   240  THR240     -0.2208
    169  CG2       27.1150   12.5270   27.9660 C.3   240  THR240      0.0379
    170  N         29.5570   11.5820   26.1370 N.am  241  THR241     -0.1950
    171  CA        30.9850   11.5600   26.4190 C.3   241  THR241      0.1897
    172  C         31.3440   11.7940   27.8820 C.2   241  THR241      0.2313
    173  O         31.9730   10.9520   28.5170 O.2   241  THR241     -0.2863
    174  CB        31.7340   12.6190   25.5750 C.3   241  THR241      0.1794
    175  OG1       31.5860   12.3140   24.1810 O.3   241  THR241     -0.2208
    176  CG2       33.2220   12.6360   25.9340 C.3   241  THR241      0.0378
@<TRIPOS>BOND
     1   106   105    2
     2   105   104    1
     3    98    97    2
     4   103   104    1
     5    97    96    1
     6   104   107    1
     7    75    76    1
     8    95    96    1
     9    96    99    1
    10    91    93   ar
    11    91    89   ar
    12    84    85    1
    13    84    77   am
    14    76    77    1
    15    76    79    1
    16   107   108    1
    17    88    85    1
    18    88    89    1
    19    86    85    1
    20    86    87    2
    21    93    94   ar
    22   113   115   ar
    23   113   110   ar
    24    80    79    1
    25    80    81    1
    26    89    90   ar
    27    77    78    2
    28    99   101    1
    29    99   100    1
    30   108   110   ar
    31   108   109   ar
    32   115   116   ar
    33   110   112   ar
    34    82    81    1
    35    82    83    1
    36   117   118    1
    37    19    17   am
    38   109   111   ar
    39    94    92   ar
    40   116   114   ar
    41   100   102    1
    42   112   111   ar
    43   112   114   ar
    44    90    92   ar
    45    18    17    2
    46    17    16    1
    47   120   119    2
    48   118   119    1
    49   118   121    1
    50    24    25    1
    51   123   121    1
    52   121   122    1
    53    73    72    1
    54    73    74    2
    55    16    15    1
    56    72    71    1
    57    15    12    1
    58    25    28    1
    59    25    26    1
    60    28    29    1
    61    14    13    2
    62   122   124    1
    63    71    64   am
    64    65    64    2
    65    27    26    2
    66    12    13    1
    67    12    11    1
    68    13    20   am
    69    64    63    1
    70    31    29    1
    71    29    30    1
    72    23    22    2
    73    50    51    1
    74    53    52    2
    75    59    57   ar
    76    59    60   ar
    77    57    55   ar
    78    22    21    1
    79    11     9   am
    80    20    21    1
    81    63    62    1
    82    63    66    1
    83    10     9    2
    84    61    60    1
    85    52    51    1
    86    60    58   ar
    87     9     8    1
    88    55    54    1
    89    55    56   ar
    90    51    54    1
    91    66    67    1
    92    67    68    1
    93    58    56   ar
    94    49    48    1
    95     8     7    1
    96    32    33    1
    97    36    37    1
    98    36    33    1
    99    68    69    2
   100    68    70   am
   101    39    37   ar
   102    48    45    1
   103     7     3   am
   104    37    38   ar
   105    33    34    1
   106     1     2    1
   107     3     4    2
   108     3     2    1
   109   162   161    2
   110    46    45    1
   111    46    47    2
   112    35    34    2
   113   175   174    1
   114    45    44    1
   115   160   161    1
   116   160   159    1
   117     2     5    1
   118   161   163   am
   119   156   155    2
   120    44    42   am
   121   159   155   am
   122     6     5    1
   123   174   176    1
   124   174   171    1
   125   158   157    1
   126   155   154    1
   127   163   164    1
   128    42    43    2
   129    42    41    1
   130   170   171    1
   131   170   165   am
   132   164   165    1
   133   164   167    1
   134   157   154    1
   135   171   172    1
   136    40    41    1
   137   165   166    2
   138   154   153    1
   139   151   150   ar
   140   168   167    1
   141   167   169    1
   142   152   150   ar
   143   153   147   am
   144   150   149    1
   145   172   173    2
   146   136   135    1
   147   148   147    2
   148   147   146    1
   149   133   135   ar
   150   133   131   ar
   151   135   134   ar
   152   149   146    1
   153   146   145    1
   154   131   130   ar
   155   134   132   ar
   156   130   132   ar
   157   130   129    1
   158   144   142    1
   159   126   125    1
   160   126   129    1
   161   126   127    1
   162   127   128    2
   163   142   141    1
   164   141   143    1
   165   141   138    1
   166   139   140    2
   167   139   138    1
   168   138   137    1
