@<TRIPOS>MOLECULE
tmp/3kmyA00.pdb
 167 158 0 0 0
SMALL
GASTEIGER

@<TRIPOS>ATOM
      1  N         26.6140    3.0020   16.6740 N.3    39  LEU39      -0.1245
      2  CA        26.9580    3.5590   17.9770 C.3    39  LEU39       0.1561
      3  C         26.1950    2.8450   19.0940 C.2    39  LEU39       0.2260
      4  O         24.9750    2.7020   19.0260 O.2    39  LEU39      -0.2867
      5  CB        26.6100    5.0520   18.0040 C.3    39  LEU39       0.0270
      6  CG        26.7110    5.7870   19.3460 C.3    39  LEU39       0.0019
      7  CD1       28.1770    6.0280   19.6960 C.3    39  LEU39       0.0001
      8  CD2       25.9670    7.1180   19.2550 C.3    39  LEU39       0.0001
      9  N         24.5440    2.9360   22.4140 N.3    41  ASP41      -0.1239
     10  CA        23.9990    3.9720   23.2810 C.3    41  ASP41       0.1674
     11  C         23.0080    3.4790   24.3290 C.2    41  ASP41       0.2266
     12  O         21.8620    3.1550   24.0140 O.2    41  ASP41      -0.2867
     13  CB        23.3470    5.0490   22.4060 C.3    41  ASP41       0.1410
     14  CG        22.7570    6.1870   23.2130 C.2    41  ASP41       0.3668
     15  OD1       23.2050    6.3990   24.3580 O.co2  41  ASP41      -0.2456
     16  OD2       21.8570    6.8790   22.6900 O.co2  41  ASP41      -0.2456
     17  N         21.7790    5.2750   26.4480 N.3    43  GLY43      -0.1210
     18  CA        20.9910    6.4400   26.8190 C.3    43  GLY43       0.1956
     19  C         19.7540    6.6910   25.9710 C.2    43  GLY43       0.2612
     20  O         19.0700    7.6990   26.1520 O.2    43  GLY43      -0.2717
     21  N         19.4660    5.7880   25.0380 N.am   44  SER44      -0.1952
     22  CA        18.2900    5.9280   24.1790 C.3    44  SER44       0.1924
     23  C         17.7340    4.5420   23.8600 C.2    44  SER44       0.2314
     24  O         18.3440    3.5360   24.2160 O.2    44  SER44      -0.2863
     25  CB        18.6470    6.6790   22.8930 C.3    44  SER44       0.2116
     26  OG        19.5910    5.9660   22.1210 O.3    44  SER44      -0.2180
     27  N         16.6360   16.5490   20.0140 N.3    80  TYR80      -0.1241
     28  CA        17.4070   16.6240   21.2460 C.3    80  TYR80       0.1605
     29  C         17.9410   18.0490   21.2940 C.2    80  TYR80       0.2264
     30  O         17.8740   18.7730   20.3000 O.2    80  TYR80      -0.2867
     31  CB        18.5800   15.6420   21.2220 C.3    80  TYR80       0.0534
     32  CG        18.1910   14.1800   21.2110 C.ar   80  TYR80      -0.0201
     33  CD1       17.5730   13.5890   22.3150 C.ar   80  TYR80      -0.0009
     34  CD2       18.4660   13.3800   20.1060 C.ar   80  TYR80      -0.0009
     35  CE1       17.2440   12.2310   22.3150 C.ar   80  TYR80       0.0417
     36  CE2       18.1440   12.0260   20.0930 C.ar   80  TYR80       0.0417
     37  CZ        17.5340   11.4570   21.1980 C.ar   80  TYR80       0.1957
     38  OH        17.2180   10.1180   21.1780 O.3    80  TYR80      -0.2866
     39  N         21.1010   19.0210   21.6500 N.3    82  GLN82      -0.1231
     40  CA        22.3050   19.0730   20.8320 C.3    82  GLN82       0.1698
     41  C         22.1740   18.5260   19.4080 C.2    82  GLN82       0.2593
     42  O         23.1440   18.5340   18.6510 O.2    82  GLN82      -0.2718
     43  CB        23.4640   18.3610   21.5510 C.3    82  GLN82       0.0381
     44  CG        23.1670   16.9640   22.1210 C.3    82  GLN82       0.0905
     45  CD        22.0620   16.9450   23.1730 C.2    82  GLN82       0.2608
     46  OE1       20.8740   16.9860   22.8530 O.2    82  GLN82      -0.2717
     47  NE2       22.4570   16.8850   24.4400 N.am   82  GLN82      -0.0878
     48  N         20.9850   18.0630   19.0340 N.am   83  GLY83      -0.1942
     49  CA        20.8130   17.5360   17.6900 C.3    83  GLY83       0.2014
     50  C         19.4700   16.8720   17.4540 C.2    83  GLY83       0.2639
     51  O         18.6490   16.7780   18.3660 O.2    83  GLY83      -0.2714
     52  N         19.2480   16.4010   16.2300 N.am   84  LYS84      -0.1963
     53  CA        17.9880   15.7500   15.8920 C.3    84  LYS84       0.1728
     54  C         18.0950   14.9120   14.6210 C.2    84  LYS84       0.2616
     55  O         18.9710   15.1350   13.7850 O.2    84  LYS84      -0.2715
     56  CB        16.8930   16.7980   15.6740 C.3    84  LYS84       0.0311
     57  CG        17.0660   17.5720   14.3680 C.3    84  LYS84       0.0038
     58  CD        15.9750   18.6130   14.1290 C.3    84  LYS84       0.0206
     59  CE        15.9320   19.6650   15.2230 C.3    84  LYS84       0.1093
     60  NZ        14.8640   20.6750   14.9640 N.3    84  LYS84      -0.1314
     61  N         17.1980   13.9420   14.4900 N.am   85  TRP85      -0.1974
     62  CA        17.1470   13.1130   13.2970 C.3    85  TRP85       0.1640
     63  C         15.7050   12.7030   13.0270 C.2    85  TRP85       0.2290
     64  O         14.9000   12.5820   13.9480 O.2    85  TRP85      -0.2864
     65  CB        18.0510   11.8700   13.4100 C.3    85  TRP85       0.0576
     66  CG        17.7510   10.9040   14.5280 C.ar   85  TRP85       0.0006
     67  CD1       18.4050   10.8110   15.7260 C.ar   85  TRP85       0.0946
     68  CD2       16.7670    9.8600   14.5270 C.ar   85  TRP85       0.0152
     69  NE1       17.8930    9.7720   16.4680 N.ar   85  TRP85      -0.2442
     70  CE2       16.8870    9.1730   15.7570 C.ar   85  TRP85       0.0810
     71  CE3       15.7980    9.4390   13.6080 C.ar   85  TRP85       0.0012
     72  CZ2       16.0740    8.0850   16.0890 C.ar   85  TRP85       0.0191
     73  CZ3       14.9870    8.3550   13.9410 C.ar   85  TRP85       0.0001
     74  CH2       15.1320    7.6920   15.1700 C.ar   85  TRP85       0.0015
     75  N         23.1870   17.7360   13.0450 N.3   116  LYS116     -0.1231
     76  CA        24.1810   17.5530   14.0960 C.3   116  LYS116      0.1693
     77  C         24.1130   16.1790   14.7550 C.2   116  LYS116      0.2592
     78  O         24.4510   16.0360   15.9280 O.2   116  LYS116     -0.2718
     79  CB        24.0150   18.6340   15.1690 C.3   116  LYS116      0.0285
     80  CG        24.1380   20.0600   14.6530 C.3   116  LYS116      0.0035
     81  CD        23.9530   21.0610   15.7870 C.3   116  LYS116      0.0206
     82  CE        24.0680   22.4960   15.2940 C.3   116  LYS116      0.1093
     83  NZ        23.8870   23.4810   16.4010 N.3   116  LYS116     -0.1314
     84  N         23.6710   15.1720   14.0060 N.am  117  PHE117     -0.1976
     85  CA        23.5910   13.8150   14.5370 C.3   117  PHE117      0.1639
     86  C         24.8480   13.0450   14.1440 C.2   117  PHE117      0.2290
     87  O         25.6100   12.6000   15.0040 O.2   117  PHE117     -0.2864
     88  CB        22.3500   13.0920   14.0000 C.3   117  PHE117      0.0560
     89  CG        22.2390   11.6610   14.4530 C.ar  117  PHE117     -0.0200
     90  CD1       22.1720   11.3470   15.8060 C.ar  117  PHE117     -0.0042
     91  CD2       22.2120   10.6240   13.5270 C.ar  117  PHE117     -0.0042
     92  CE1       22.0820   10.0200   16.2320 C.ar  117  PHE117     -0.0003
     93  CE2       22.1220    9.2960   13.9410 C.ar  117  PHE117     -0.0003
     94  CZ        22.0560    8.9950   15.2980 C.ar  117  PHE117     -0.0000
     95  N         28.5540   12.3630   13.0290 N.3   119  ILE119     -0.1245
     96  CA        29.8170   13.0390   13.3080 C.3   119  ILE119      0.1561
     97  C         30.8690   12.6840   12.2630 C.2   119  ILE119      0.2260
     98  O         31.1550   11.5100   12.0260 O.2   119  ILE119     -0.2867
     99  CB        30.3500   12.6450   14.7020 C.3   119  ILE119      0.0252
    100  CG1       29.2930   12.9540   15.7660 C.3   119  ILE119      0.0019
    101  CG2       31.6410   13.3960   15.0010 C.3   119  ILE119      0.0019
    102  CD1       29.6440   12.4440   17.1540 C.3   119  ILE119      0.0001
    103  N         22.6960    4.2280   15.1590 N.3   127  ILE127     -0.1245
    104  CA        22.7090    4.1610   16.6140 C.3   127  ILE127      0.1561
    105  C         21.8660    3.0080   17.1540 C.2   127  ILE127      0.2260
    106  O         20.7840    2.7170   16.6410 O.2   127  ILE127     -0.2867
    107  CB        22.1870    5.4940   17.1970 C.3   127  ILE127      0.0252
    108  CG1       22.3480    5.5150   18.7160 C.3   127  ILE127      0.0019
    109  CG2       20.7170    5.6850   16.8120 C.3   127  ILE127      0.0019
    110  CD1       22.0800    6.8830   19.3290 C.3   127  ILE127      0.0001
    111  N         15.3790    4.9080   31.3860 N.3   207  TYR207     -0.1241
    112  CA        16.7890    5.1670   31.0960 C.3   207  TYR207      0.1605
    113  C         17.3630    4.1310   32.0540 C.2   207  TYR207      0.2264
    114  O         16.6010    3.5010   32.7810 O.2   207  TYR207     -0.2867
    115  CB        17.2190    6.5520   31.5980 C.3   207  TYR207      0.0534
    116  CG        16.7770    7.7130   30.7440 C.ar  207  TYR207     -0.0201
    117  CD1       17.4860    8.0680   29.5960 C.ar  207  TYR207     -0.0009
    118  CD2       15.6410    8.4490   31.0730 C.ar  207  TYR207     -0.0009
    119  CE1       17.0720    9.1280   28.7970 C.ar  207  TYR207      0.0417
    120  CE2       15.2200    9.5090   30.2810 C.ar  207  TYR207      0.0417
    121  CZ        15.9360    9.8430   29.1470 C.ar  207  TYR207      0.1957
    122  OH        15.5140   10.8880   28.3630 O.3   207  TYR207     -0.2866
    123  N         21.6870    8.6710   35.4500 N.3   235  ILE235     -0.1245
    124  CA        21.6960    7.5620   34.5040 C.3   235  ILE235      0.1561
    125  C         23.0900    7.1820   34.0110 C.2   235  ILE235      0.2260
    126  O         24.0510    7.9350   34.1770 O.2   235  ILE235     -0.2867
    127  CB        20.8250    7.8940   33.2680 C.3   235  ILE235      0.0252
    128  CG1       21.4660    9.0330   32.4680 C.3   235  ILE235      0.0019
    129  CG2       19.4270    8.3030   33.7180 C.3   235  ILE235      0.0019
    130  CD1       20.7770    9.3290   31.1360 C.3   235  ILE235      0.0001
    131  N         24.9320    6.4650   30.6840 N.3   237  ASP237     -0.1239
    132  CA        24.7130    6.7570   29.2690 C.3   237  ASP237      0.1674
    133  C         25.9830    6.7240   28.4120 C.2   237  ASP237      0.2266
    134  O         26.7570    7.6790   28.4030 O.2   237  ASP237     -0.2867
    135  CB        24.0510    8.1380   29.1960 C.3   237  ASP237      0.1410
    136  CG        23.7430    8.5840   27.7820 C.2   237  ASP237      0.3668
    137  OD1       23.8280    7.7600   26.8490 O.co2 237  ASP237     -0.2456
    138  OD2       23.4020    9.7760   27.6190 O.co2 237  ASP237     -0.2456
    139  N         26.1190    7.0450   25.4200 N.3   239  GLY239     -0.1210
    140  CA        25.9470    7.9550   24.3000 C.3   239  GLY239      0.1956
    141  C         26.3470    9.3870   24.6080 C.2   239  GLY239      0.2612
    142  O         26.2320   10.2700   23.7570 O.2   239  GLY239     -0.2717
    143  N         26.8010    9.6100   25.8380 N.am  240  THR240     -0.1952
    144  CA        27.2430   10.9200   26.3030 C.3   240  THR240      0.1897
    145  C         28.7320   10.8180   26.6260 C.2   240  THR240      0.2313
    146  O         29.1670    9.8580   27.2590 O.2   240  THR240     -0.2863
    147  CB        26.4730   11.3420   27.5780 C.3   240  THR240      0.1794
    148  OG1       25.1240   11.6740   27.2280 O.3   240  THR240     -0.2208
    149  CG2       27.1340   12.5470   28.2400 C.3   240  THR240      0.0378
    150  N         28.3210   14.1780   33.5590 N.3   244  ARG244     -0.1245
    151  CA        27.5870   15.4210   33.7230 C.3   244  ARG244      0.1563
    152  C         26.9010   15.4160   35.0790 C.2   244  ARG244      0.2260
    153  O         26.3510   14.3970   35.5080 O.2   244  ARG244     -0.2867
    154  CB        26.5820   15.6230   32.5810 C.3   244  ARG244      0.0307
    155  CG        27.2130   15.4680   31.1850 C.3   244  ARG244      0.0489
    156  CD        26.1980   15.7080   30.0890 C.3   244  ARG244      0.2205
    157  NE        25.6690   17.0660   30.1870 N.pl3 244  ARG244     -0.0865
    158  CZ        24.4520   17.4350   29.8040 C.cat 244  ARG244      0.5346
    159  NH1       24.0730   18.7020   29.9360 N.pl3 244  ARG244      0.1354
    160  NH2       23.6090   16.5420   29.3060 N.pl3 244  ARG244      0.1354
    161  N         24.7550   12.3170   34.6230 N.3   341  VAL341     -0.1245
    162  CA        24.9330   11.4260   33.4860 C.3   341  VAL341      0.1561
    163  C         26.3180   10.8050   33.5470 C.2   341  VAL341      0.2260
    164  O         27.3260   11.4990   33.4200 O.2   341  VAL341     -0.2867
    165  CB        24.7960   12.1680   32.1370 C.3   341  VAL341      0.0252
    166  CG1       24.8700   11.1640   30.9850 C.3   341  VAL341      0.0019
    167  CG2       23.4810   12.9310   32.0840 C.3   341  VAL341      0.0019
@<TRIPOS>BOND
     1    98    97    2
     2    97    96    1
     3    63    62    1
     4    63    64    2
     5    95    96    1
     6    75    76    1
     7    62    65    1
     8    62    61    1
     9    96    99    1
    10    65    66    1
    11    91    93   ar
    12    91    89   ar
    13    71    73   ar
    14    71    68   ar
    15    55    54    2
    16    73    74   ar
    17    93    94   ar
    18    88    89    1
    19    88    85    1
    20    84    85    1
    21    84    77   am
    22    76    77    1
    23    76    79    1
    24    58    57    1
    25    58    59    1
    26    86    85    1
    27    86    87    2
    28    57    56    1
    29    89    90   ar
    30    61    54   am
    31    68    66   ar
    32    68    70   ar
    33    66    67   ar
    34    54    53    1
    35    80    79    1
    36    80    81    1
    37    99   101    1
    38    99   100    1
    39    77    78    2
    40    60    59    1
    41   103   104    1
    42    74    72   ar
    43    82    81    1
    44    82    83    1
    45    94    92   ar
    46    56    53    1
    47    67    69   ar
    48    70    72   ar
    49    70    69   ar
    50   100   102    1
    51    90    92   ar
    52    53    52    1
    53    52    50   am
    54   104   105    1
    55   104   107    1
    56   106   105    2
    57     1     2    1
    58   109   107    1
    59   107   108    1
    60    50    49    1
    61    50    51    2
    62    49    48    1
    63     2     5    1
    64     2     3    1
    65     5     6    1
    66    42    41    2
    67   108   110    1
    68     4     3    2
    69    48    41   am
    70     8     6    1
    71     6     7    1
    72    41    40    1
    73    27    28    1
    74    36    34   ar
    75    36    37   ar
    76    34    32   ar
    77    30    29    2
    78    40    43    1
    79    40    39    1
    80    38    37    1
    81    37    35   ar
    82    32    31    1
    83    32    33   ar
    84    31    28    1
    85    28    29    1
    86    43    44    1
    87    26    25    1
    88    44    45    1
    89    35    33   ar
    90    13    14    1
    91    13    10    1
    92     9    10    1
    93    16    14   ar
    94    46    45    2
    95    25    22    1
    96    45    47   am
    97    14    15   ar
    98    10    11    1
    99   142   141    2
   100    23    22    1
   101    23    24    2
   102    12    11    2
   103    22    21    1
   104   140   141    1
   105   140   139    1
   106   141   143   am
   107    21    19   am
   108   143   144    1
   109    19    20    2
   110    19    18    1
   111   144   145    1
   112   144   147    1
   113    17    18    1
   114   145   146    2
   115   137   136   ar
   116   148   147    1
   117   147   149    1
   118   138   136   ar
   119   136   135    1
   120   122   121    1
   121   134   133    2
   122   133   132    1
   123   119   121   ar
   124   119   117   ar
   125   121   120   ar
   126   135   132    1
   127   132   131    1
   128   160   158    1
   129   117   116   ar
   130   158   159    1
   131   158   157    2
   132   156   157    1
   133   156   155    1
   134   120   118   ar
   135   116   118   ar
   136   116   115    1
   137   166   165    1
   138   112   111    1
   139   112   115    1
   140   112   113    1
   141   130   128    1
   142   155   154    1
   143   113   114    2
   144   167   165    1
   145   165   162    1
   146   128   127    1
   147   154   151    1
   148   127   129    1
   149   127   124    1
   150   164   163    2
   151   162   163    1
   152   162   161    1
   153   150   151    1
   154   151   152    1
   155   125   126    2
   156   125   124    1
   157   124   123    1
   158   152   153    2
