@<TRIPOS>MOLECULE
tmp/3kmzA00.pdb
 217 205 0 0 0
SMALL
GASTEIGER

@<TRIPOS>ATOM
      1  N        -30.2820   -1.8410  -17.8810 N.3    19  PHE19      -0.1241
      2  CA       -31.2400   -1.4220  -16.8500 C.3    19  PHE19       0.1605
      3  C        -31.0220   -2.2120  -15.5590 C.2    19  PHE19       0.2264
      4  O        -31.4950   -3.3470  -15.4290 O.2    19  PHE19      -0.2867
      5  CB       -32.6870   -1.5740  -17.3460 C.3    19  PHE19       0.0534
      6  CG       -33.6960   -0.8270  -16.5110 C.ar   19  PHE19      -0.0203
      7  CD1      -34.5840   -1.5150  -15.6920 C.ar   19  PHE19      -0.0042
      8  CD2      -33.7350    0.5610  -16.5260 C.ar   19  PHE19      -0.0042
      9  CE1      -35.5090   -0.8230  -14.8980 C.ar   19  PHE19      -0.0003
     10  CE2      -34.6500    1.2610  -15.7460 C.ar   19  PHE19      -0.0003
     11  CZ       -35.5410    0.5620  -14.9250 C.ar   19  PHE19      -0.0000
     12  N        -35.5250   18.6820  -11.3270 N.3    45  TRP45      -0.1241
     13  CA       -35.6340   18.6930  -12.7910 C.3    45  TRP45       0.1605
     14  C        -34.2830   18.5400  -13.4820 C.2    45  TRP45       0.2264
     15  O        -34.1750   17.8520  -14.4970 O.2    45  TRP45      -0.2867
     16  CB       -36.3240   19.9660  -13.2850 C.3    45  TRP45       0.0550
     17  CG       -36.3120   20.1420  -14.7930 C.ar   45  TRP45       0.0003
     18  CD1      -35.6930   21.1300  -15.4850 C.ar   45  TRP45       0.0946
     19  CD2      -36.9440   19.2950  -15.7760 C.ar   45  TRP45       0.0152
     20  NE1      -35.9040   20.9690  -16.8360 N.ar   45  TRP45      -0.2442
     21  CE2      -36.6630   19.8460  -17.0410 C.ar   45  TRP45       0.0810
     22  CE3      -37.7140   18.1180  -15.7040 C.ar   45  TRP45       0.0012
     23  CZ2      -37.1290   19.2690  -18.2410 C.ar   45  TRP45       0.0191
     24  CZ3      -38.1830   17.5430  -16.8890 C.ar   45  TRP45       0.0001
     25  CH2      -37.8910   18.1270  -18.1460 C.ar   45  TRP45       0.0015
     26  N        -33.4450   14.8230  -12.9060 N.3    48  PHE48      -0.1227
     27  CA       -34.4250   14.0450  -13.6820 C.3    48  PHE48       0.1736
     28  C        -34.1320   14.0790  -15.1930 C.2    48  PHE48       0.2596
     29  O        -34.2160   13.0400  -15.8700 O.2    48  PHE48      -0.2718
     30  CB       -35.8340   14.5630  -13.3680 C.3    48  PHE48       0.0547
     31  CG       -36.9340   13.8520  -14.0940 C.ar   48  PHE48      -0.0202
     32  CD1      -37.5220   12.7160  -13.5490 C.ar   48  PHE48      -0.0042
     33  CD2      -37.3970   14.3310  -15.3150 C.ar   48  PHE48      -0.0042
     34  CE1      -38.5440   12.0520  -14.2220 C.ar   48  PHE48      -0.0003
     35  CE2      -38.4220   13.6680  -15.9980 C.ar   48  PHE48      -0.0003
     36  CZ       -38.9960   12.5290  -15.4500 C.ar   48  PHE48      -0.0000
     37  N        -33.8230   15.2760  -15.7110 N.am   49  SER49      -0.1952
     38  CA       -33.4040   15.4640  -17.1140 C.3    49  SER49       0.1924
     39  C        -32.1520   14.6730  -17.4290 C.2    49  SER49       0.2314
     40  O        -32.0610   14.0430  -18.4730 O.2    49  SER49      -0.2863
     41  CB       -33.0740   16.9360  -17.4160 C.3    49  SER49       0.2116
     42  OG       -34.1890   17.7530  -17.1970 O.3    49  SER49      -0.2180
     43  N        -30.8500   12.0200  -15.7640 N.3    51  LEU51      -0.1231
     44  CA       -31.1300   10.5960  -15.6790 C.3    51  LEU51       0.1693
     45  C        -31.9950   10.0860  -16.8340 C.2    51  LEU51       0.2593
     46  O        -31.7370    8.9980  -17.3560 O.2    51  LEU51      -0.2718
     47  CB       -31.7290   10.2470  -14.3180 C.3    51  LEU51       0.0284
     48  CG       -30.7820   10.4440  -13.1250 C.3    51  LEU51       0.0019
     49  CD1      -31.5890   10.6170  -11.8470 C.3    51  LEU51       0.0001
     50  CD2      -29.7720    9.2730  -13.0110 C.3    51  LEU51       0.0001
     51  N        -32.9910   10.8780  -17.2450 N.am   52  SER52      -0.1938
     52  CA       -33.8630   10.5410  -18.3820 C.3    52  SER52       0.2055
     53  C        -33.0960   10.4420  -19.6970 C.2    52  SER52       0.2643
     54  O        -33.3310    9.5170  -20.4870 O.2    52  SER52      -0.2714
     55  CB       -35.0300   11.5460  -18.5410 C.3    52  SER52       0.2130
     56  OG       -35.9470   11.4880  -17.4570 O.3    52  SER52      -0.2179
     57  N        -32.2190   11.4180  -19.9400 N.am   53  THR53      -0.1950
     58  CA       -31.3390   11.4260  -21.1140 C.3    53  THR53       0.1897
     59  C        -30.4720   10.1650  -21.1430 C.2    53  THR53       0.2313
     60  O        -30.4020    9.4780  -22.1690 O.2    53  THR53      -0.2863
     61  CB       -30.4450   12.6810  -21.1200 C.3    53  THR53       0.1794
     62  OG1      -31.2750   13.8400  -21.0620 O.3    53  THR53      -0.2208
     63  CG2      -29.5560   12.7600  -22.3930 C.3    53  THR53       0.0378
     64  N        -31.0920    7.3630  -19.7500 N.3    55  CYS55      -0.1221
     65  CA       -31.9420    6.1910  -19.9420 C.3    55  CYS55       0.1808
     66  C        -32.3940    6.0580  -21.3890 C.2    55  CYS55       0.2601
     67  O        -32.5390    4.9410  -21.8890 O.2    55  CYS55      -0.2717
     68  CB       -33.1550    6.1860  -18.9990 C.3    55  CYS55       0.0970
     69  SG       -34.0050    4.5670  -18.9590 S.3    55  CYS55      -0.0800
     70  N        -32.6150    7.1920  -22.0610 N.am   56  ILE56      -0.1979
     71  CA       -32.8550    7.1690  -23.5010 C.3    56  ILE56       0.1595
     72  C        -31.6870    6.5180  -24.2380 C.2    56  ILE56       0.2287
     73  O        -31.9170    5.6540  -25.0860 O.2    56  ILE56      -0.2864
     74  CB       -33.1580    8.5710  -24.0800 C.3    56  ILE56       0.0276
     75  CG1      -34.5140    9.0710  -23.5530 C.3    56  ILE56       0.0022
     76  CG2      -33.1300    8.5540  -25.6130 C.3    56  ILE56       0.0022
     77  CD1      -34.7130   10.5600  -23.7290 C.3    56  ILE56       0.0001
     78  N        -40.3090    6.9360  -25.0690 N.3    86  LEU86      -0.1245
     79  CA       -41.0050    7.4090  -23.8830 C.3    86  LEU86       0.1561
     80  C        -41.8270    6.3070  -23.2420 C.2    86  LEU86       0.2260
     81  O        -41.8250    6.1850  -22.0270 O.2    86  LEU86      -0.2867
     82  CB       -41.8960    8.6290  -24.1940 C.3    86  LEU86       0.0270
     83  CG       -42.5510    9.3200  -22.9880 C.3    86  LEU86       0.0019
     84  CD1      -41.5150    9.6720  -21.8960 C.3    86  LEU86       0.0001
     85  CD2      -43.3640   10.5680  -23.4060 C.3    86  LEU86       0.0001
     86  N        -39.3510    4.2810  -21.3550 N.3    89  LEU89      -0.1231
     87  CA       -38.9670    5.0370  -20.1450 C.3    89  LEU89       0.1693
     88  C        -40.0180    4.8970  -19.0390 C.2    89  LEU89       0.2591
     89  O        -39.6780    4.6710  -17.8720 O.2    89  LEU89      -0.2718
     90  CB       -38.7630    6.5280  -20.4760 C.3    89  LEU89       0.0284
     91  CG       -37.3420    7.1020  -20.5880 C.3    89  LEU89       0.0019
     92  CD1      -36.4240    6.2630  -21.4470 C.3    89  LEU89       0.0001
     93  CD2      -37.3930    8.5400  -21.1150 C.3    89  LEU89       0.0001
     94  N        -41.2870    5.0190  -19.4110 N.am   90  ILE90      -0.1980
     95  CA       -42.3850    4.8920  -18.4430 C.3    90  ILE90       0.1595
     96  C        -42.4120    3.4860  -17.8460 C.2    90  ILE90       0.2287
     97  O        -42.4800    3.3230  -16.6270 O.2    90  ILE90      -0.2864
     98  CB       -43.7680    5.2190  -19.0840 C.3    90  ILE90       0.0276
     99  CG1      -43.8130    6.6680  -19.5890 C.3    90  ILE90       0.0022
    100  CG2      -44.9200    4.9420  -18.0870 C.3    90  ILE90       0.0022
    101  CD1      -44.8520    6.9020  -20.7080 C.3    90  ILE90       0.0001
    102  N        -39.9430    1.3360  -17.6850 N.3    92  ARG92      -0.1231
    103  CA       -38.7170    1.1720  -16.9030 C.3    92  ARG92       0.1694
    104  C        -38.8130    1.7590  -15.4870 C.2    92  ARG92       0.2591
    105  O        -38.6200    1.0440  -14.5110 O.2    92  ARG92      -0.2718
    106  CB       -37.4940    1.7180  -17.6820 C.3    92  ARG92       0.0321
    107  CG       -36.9430    0.7270  -18.6910 C.3    92  ARG92       0.0489
    108  CD       -35.7570    1.2810  -19.4890 C.3    92  ARG92       0.2205
    109  NE       -35.1470    0.2100  -20.2700 N.pl3  92  ARG92      -0.0865
    110  CZ       -33.8570    0.1160  -20.5880 C.cat  92  ARG92       0.5346
    111  NH1      -32.9800    1.0500  -20.2130 N.pl3  92  ARG92       0.1354
    112  NH2      -33.4450   -0.9420  -21.2790 N.pl3  92  ARG92       0.1354
    113  N        -39.1400    3.0410  -15.3710 N.am   93  ILE93      -0.1980
    114  CA       -39.2680    3.6660  -14.0470 C.3    93  ILE93       0.1595
    115  C        -40.3620    3.0310  -13.1610 C.2    93  ILE93       0.2287
    116  O        -40.2050    2.9370  -11.9360 O.2    93  ILE93      -0.2864
    117  CB       -39.4400    5.2130  -14.1390 C.3    93  ILE93       0.0276
    118  CG1      -39.1040    5.8880  -12.7910 C.3    93  ILE93       0.0022
    119  CG2      -40.8370    5.6170  -14.6770 C.3    93  ILE93       0.0022
    120  CD1      -37.5970    5.7840  -12.3780 C.3    93  ILE93       0.0001
    121  N        -39.4050    0.0900  -11.1260 N.3    96  ARG96      -0.1245
    122  CA       -38.6060    0.4280   -9.9150 C.3    96  ARG96       0.1563
    123  C        -39.4560    1.0760   -8.8100 C.2    96  ARG96       0.2260
    124  O        -38.9500    1.8020   -7.9400 O.2    96  ARG96      -0.2867
    125  CB       -37.4400    1.3470  -10.2930 C.3    96  ARG96       0.0307
    126  CG       -36.4120    0.6810  -11.2000 C.3    96  ARG96       0.0489
    127  CD       -35.0810    0.4630  -10.5270 C.3    96  ARG96       0.2205
    128  NE       -34.0310    0.1810  -11.5170 N.pl3  96  ARG96      -0.0865
    129  CZ       -33.4810    1.0970  -12.3110 C.cat  96  ARG96       0.5346
    130  NH1      -33.8620    2.3600  -12.2310 N.pl3  96  ARG96       0.1354
    131  NH2      -32.5450    0.7590  -13.1950 N.pl3  96  ARG96       0.1354
    132  N        -34.3330    5.6890   -9.6460 N.3   106  PHE106     -0.1227
    133  CA       -33.6020    5.8330  -10.9060 C.3   106  PHE106      0.1736
    134  C        -32.3530    4.9480  -10.9310 C.2   106  PHE106      0.2596
    135  O        -32.0240    4.2920   -9.9420 O.2   106  PHE106     -0.2718
    136  CB       -33.2300    7.2980  -11.1410 C.3   106  PHE106      0.0547
    137  CG       -34.4190    8.2280  -11.1660 C.ar  106  PHE106     -0.0202
    138  CD1      -34.9260    8.7690   -9.9820 C.ar  106  PHE106     -0.0042
    139  CD2      -35.0180    8.5670  -12.3700 C.ar  106  PHE106     -0.0042
    140  CE1      -36.0060    9.6380   -9.9960 C.ar  106  PHE106     -0.0003
    141  CE2      -36.1170    9.4330  -12.4100 C.ar  106  PHE106     -0.0003
    142  CZ       -36.6110    9.9740  -11.2200 C.ar  106  PHE106     -0.0000
    143  N        -31.6590    4.9420  -12.0680 N.am  107  SER107     -0.1952
    144  CA       -30.5820    3.9690  -12.3140 C.3   107  SER107      0.1924
    145  C        -29.2960    4.2490  -11.5380 C.2   107  SER107      0.2314
    146  O        -28.3890    3.4310  -11.5540 O.2   107  SER107     -0.2863
    147  CB       -30.2990    3.8240  -13.8120 C.3   107  SER107      0.2116
    148  OG       -31.3280    3.0940  -14.4490 O.3   107  SER107     -0.2180
    149  N        -40.4990   16.2020  -12.4680 N.3   121  GLY121     -0.1210
    150  CA       -40.9050   16.2610  -13.8730 C.3   121  GLY121      0.1956
    151  C        -42.1750   15.5300  -14.2980 C.2   121  GLY121      0.2611
    152  O        -42.6440   15.7340  -15.4100 O.2   121  GLY121     -0.2717
    153  N        -42.7330   14.6710  -13.4400 N.am  122  PHE122     -0.1976
    154  CA       -44.0090   14.0200  -13.7760 C.3   122  PHE122      0.1639
    155  C        -45.1500   15.0450  -13.9020 C.2   122  PHE122      0.2290
    156  O        -46.0020   14.9260  -14.7920 O.2   122  PHE122     -0.2864
    157  CB       -44.3720   12.9290  -12.7650 C.3   122  PHE122      0.0560
    158  CG       -43.6810   11.5960  -13.0050 C.ar  122  PHE122     -0.0200
    159  CD1      -42.5990   11.4830  -13.8860 C.ar  122  PHE122     -0.0042
    160  CD2      -44.0860   10.4670  -12.2960 C.ar  122  PHE122     -0.0042
    161  CE1      -41.9520   10.2450  -14.0860 C.ar  122  PHE122     -0.0003
    162  CE2      -43.4490    9.2310  -12.4750 C.ar  122  PHE122     -0.0003
    163  CZ       -42.3820    9.1160  -13.3790 C.ar  122  PHE122     -0.0000
    164  N        -49.1340   14.5030  -14.8300 N.3   125  LEU125     -0.1245
    165  CA       -49.2480   13.0730  -15.1350 C.3   125  LEU125      0.1561
    166  C        -48.8020   12.1480  -13.9880 C.2   125  LEU125      0.2260
    167  O        -48.7610   10.9310  -14.1620 O.2   125  LEU125     -0.2867
    168  CB       -48.4570   12.7390  -16.4120 C.3   125  LEU125      0.0270
    169  CG       -49.0150   13.2550  -17.7480 C.3   125  LEU125      0.0019
    170  CD1      -47.9920   13.0970  -18.8640 C.3   125  LEU125      0.0001
    171  CD2      -50.3240   12.5580  -18.1300 C.3   125  LEU125      0.0001
    172  N        -49.0370    7.9050  -13.8780 N.3   129  VAL129     -0.1245
    173  CA       -47.8600    7.0360  -13.9320 C.3   129  VAL129      0.1561
    174  C        -47.8320    6.0910  -12.7280 C.2   129  VAL129      0.2260
    175  O        -47.5530    4.8990  -12.8730 O.2   129  VAL129     -0.2867
    176  CB       -46.5320    7.8460  -14.0590 C.3   129  VAL129      0.0252
    177  CG1      -45.3350    6.9120  -14.0330 C.3   129  VAL129      0.0019
    178  CG2      -46.5450    8.6600  -15.3520 C.3   129  VAL129      0.0019
    179  N        -50.3250    7.4090  -21.6460 N.3   207  ILE207     -0.1245
    180  CA       -49.4610    8.3180  -20.9020 C.3   207  ILE207      0.1561
    181  C        -48.4440    9.0250  -21.8150 C.2   207  ILE207      0.2260
    182  O        -48.2800   10.2610  -21.7460 O.2   207  ILE207     -0.2867
    183  CB       -48.7070    7.5670  -19.7500 C.3   207  ILE207      0.0252
    184  CG1      -49.7090    6.8770  -18.8120 C.3   207  ILE207      0.0019
    185  CG2      -47.7380    8.5230  -18.9950 C.3   207  ILE207      0.0019
    186  CD1      -49.0760    5.8550  -17.8520 C.3   207  ILE207      0.0001
    187  N        -47.6280   12.9380  -22.6240 N.3   211  GLY211     -0.1225
    188  CA       -46.2800   13.3980  -22.2730 C.3   211  GLY211      0.1811
    189  C        -45.4780   14.0040  -23.4210 C.2   211  GLY211      0.2280
    190  O        -44.8160   15.0370  -23.2380 O.2   211  GLY211     -0.2866
    191  N        -46.0110   17.7370  -24.3040 N.3   214  ARG214     -0.1245
    192  CA       -45.6750   18.7440  -23.2850 C.3   214  ARG214      0.1563
    193  C        -44.4540   19.5990  -23.6840 C.2   214  ARG214      0.2260
    194  O        -43.4330   19.0800  -24.1460 O.2   214  ARG214     -0.2867
    195  CB       -45.5160   18.0990  -21.8990 C.3   214  ARG214      0.0307
    196  CG       -44.3980   18.6500  -21.0110 C.3   214  ARG214      0.0489
    197  CD       -44.7940   18.8460  -19.5400 C.3   214  ARG214      0.2205
    198  NE       -45.5070   17.7160  -18.9360 N.pl3 214  ARG214     -0.0865
    199  CZ       -45.0350   16.9420  -17.9570 C.cat 214  ARG214      0.5346
    200  NH1      -43.8290   17.1430  -17.4430 N.pl3 214  ARG214      0.1354
    201  NH2      -45.7800   15.9540  -17.4820 N.pl3 214  ARG214      0.1354
    202  N        -41.3860   21.4530  -22.6440 N.3   216  ILE216     -0.1245
    203  CA       -40.4690   21.4150  -21.5100 C.3   216  ILE216      0.1561
    204  C        -39.4440   22.5630  -21.5810 C.2   216  ILE216      0.2260
    205  O        -39.2430   23.1630  -22.6450 O.2   216  ILE216     -0.2867
    206  CB       -39.7270   20.0300  -21.3660 C.3   216  ILE216      0.0252
    207  CG1      -38.8530   19.7170  -22.5920 C.3   216  ILE216      0.0019
    208  CG2      -40.7150   18.8900  -21.0670 C.3   216  ILE216      0.0019
    209  CD1      -37.8480   18.5750  -22.3540 C.3   216  ILE216      0.0001
    210  N        -35.4190   23.7340  -20.8840 N.3   218  LEU218     -0.1245
    211  CA       -34.0500   23.2350  -20.8330 C.3   218  LEU218      0.1561
    212  C        -33.0700   24.4020  -20.8900 C.2   218  LEU218      0.2260
    213  O        -33.4280   25.4990  -21.3160 O.2   218  LEU218     -0.2867
    214  CB       -33.7890   22.2850  -22.0120 C.3   218  LEU218      0.0270
    215  CG       -34.5880   20.9920  -22.1700 C.3   218  LEU218      0.0019
    216  CD1      -34.1940   20.3410  -23.4750 C.3   218  LEU218      0.0001
    217  CD2      -34.3790   20.0290  -20.9930 C.3   218  LEU218      0.0001
@<TRIPOS>BOND
     1    76    74    1
     2    73    72    2
     3    78    79    1
     4   191   192    1
     5    72    71    1
     6    82    79    1
     7    82    83    1
     8   194   193    2
     9    74    75    1
    10    74    71    1
    11    79    80    1
    12    77    75    1
    13   193   192    1
    14    71    70    1
    15   216   215    1
    16   189   190    2
    17   189   188    1
    18    85    83    1
    19   192   195    1
    20    80    81    2
    21    83    84    1
    22   205   204    2
    23   202   203    1
    24   187   188    1
    25   207   209    1
    26   207   206    1
    27    63    61    1
    28   215   214    1
    29   215   217    1
    30    60    59    2
    31    70    66   am
    32   214   211    1
    33   195   196    1
    34    67    66    2
    35   181   182    2
    36   181   180    1
    37   179   180    1
    38   204   203    1
    39   203   206    1
    40    92    91    1
    41    66    65    1
    42   206   208    1
    43    86    87    1
    44   213   212    2
    45   112   110    1
    46    59    58    1
    47    61    58    1
    48    61    62    1
    49    93    91    1
    50    58    57    1
    51   196   197    1
    52   180   183    1
    53   212   211    1
    54   210   211    1
    55   101    99    1
    56    91    90    1
    57   110   109    2
    58   110   111    1
    59    54    53    2
    60    90    87    1
    61   109   108    1
    62    87    88    1
    63    65    64    1
    64    65    68    1
    65    57    53   am
    66   183   185    1
    67   183   184    1
    68    53    52    1
    69    99    98    1
    70   197   198    1
    71   108   107    1
    72    94    88   am
    73    94    95    1
    74    98    95    1
    75    98   100    1
    76    88    89    2
    77    68    69    1
    78   198   199    2
    79   170   169    1
    80   184   186    1
    81   107   106    1
    82    55    52    1
    83    55    56    1
    84    40    39    2
    85    95    96    1
    86    52    51    1
    87    23    25   ar
    88    23    21   ar
    89    25    24   ar
    90   171   169    1
    91   199   201    1
    92   199   200    1
    93     1     2    1
    94    96    97    2
    95   169   168    1
    96   102   103    1
    97   106   103    1
    98    39    38    1
    99    41    42    1
   100    41    38    1
   101    46    45    2
   102     5     2    1
   103     5     6    1
   104    51    45   am
   105    38    37    1
   106    21    20   ar
   107    21    19   ar
   108   103   104    1
   109    24    22   ar
   110     2     3    1
   111    20    18   ar
   112    45    44    1
   113     8     6   ar
   114     8    10   ar
   115     6     7   ar
   116   168   165    1
   117    35    36   ar
   118    35    33   ar
   119    29    28    2
   120    19    22   ar
   121    19    17   ar
   122    43    44    1
   123    10    11   ar
   124    37    28   am
   125     7     9   ar
   126    44    47    1
   127     3     4    2
   128   104   113   am
   129   104   105    2
   130    18    17   ar
   131    36    34   ar
   132   152   151    2
   133   113   114    1
   134   178   176    1
   135    33    31   ar
   136    28    27    1
   137   165   164    1
   138   165   166    1
   139    11     9   ar
   140    17    16    1
   141   156   155    2
   142   119   117    1
   143    15    14    2
   144   148   147    1
   145    47    48    1
   146   151   150    1
   147   151   153   am
   148    34    32   ar
   149   167   166    2
   150   117   114    1
   151   117   118    1
   152    31    32   ar
   153    31    30    1
   154   161   159   ar
   155   161   163   ar
   156   176   177    1
   157   176   173    1
   158   114   115    1
   159   173   172    1
   160   173   174    1
   161   155   154    1
   162   159   158   ar
   163   150   149    1
   164   147   144    1
   165   154   153    1
   166   154   157    1
   167    27    30    1
   168    27    26    1
   169    14    13    1
   170   163   162   ar
   171    16    13    1
   172   131   129    1
   173   115   116    2
   174    48    50    1
   175    48    49    1
   176   158   157    1
   177   158   160   ar
   178   175   174    2
   179   118   120    1
   180    13    12    1
   181   162   160   ar
   182   141   139   ar
   183   141   142   ar
   184   139   137   ar
   185   144   143    1
   186   144   145    1
   187   129   130    1
   188   129   128    2
   189   143   134   am
   190   146   145    2
   191   128   127    1
   192   142   140   ar
   193   126   127    1
   194   126   125    1
   195   137   136    1
   196   137   138   ar
   197   136   133    1
   198   121   122    1
   199   134   133    1
   200   134   135    2
   201   133   132    1
   202   125   122    1
   203   140   138   ar
   204   122   123    1
   205   123   124    2
