@<TRIPOS>MOLECULE
tmp/3kn0A00.pdb
 187 178 0 0 0
SMALL
GASTEIGER

@<TRIPOS>ATOM
      1  N         35.9010    7.9420   23.5150 N.3    14  SER14      -0.1202
      2  CA        34.9270    8.7190   24.2770 C.3    14  SER14       0.2020
      3  C         34.3700    9.9490   23.5810 C.2    14  SER14       0.2619
      4  O         33.2020   10.2640   23.7340 O.2    14  SER14      -0.2717
      5  CB        35.5270    9.1450   25.6200 C.3    14  SER14       0.2103
      6  OG        36.6300   10.0220   25.4370 O.3    14  SER14      -0.2182
      7  N         35.1890   10.6260   22.7880 N.am   15  GLY15      -0.1942
      8  CA        34.7110   11.8240   22.1260 C.3    15  GLY15       0.2014
      9  C         33.7030   11.6310   21.0030 C.2    15  GLY15       0.2639
     10  O         32.8740   12.5100   20.7770 O.2    15  GLY15      -0.2714
     11  N         33.7610   10.5020   20.3000 N.am   16  GLN16      -0.1963
     12  CA        32.8350   10.2640   19.1900 C.3    16  GLN16       0.1733
     13  C         31.9450    9.0360   19.3470 C.2    16  GLN16       0.2617
     14  O         31.0360    8.8070   18.5380 O.2    16  GLN16      -0.2715
     15  CB        33.6140   10.1660   17.8790 C.3    16  GLN16       0.0408
     16  CG        34.4740   11.3930   17.6060 C.3    16  GLN16       0.0908
     17  CD        35.2300   11.3070   16.2960 C.2    16  GLN16       0.2608
     18  OE1       35.9600   10.3450   16.0390 O.2    16  GLN16      -0.2717
     19  NE2       35.0580   12.3220   15.4540 N.am   16  GLN16      -0.0878
     20  N         32.2030    8.2570   20.3920 N.am   17  GLY17      -0.1940
     21  CA        31.4100    7.0680   20.6510 C.3    17  GLY17       0.2014
     22  C         32.0480    5.7450   20.2780 C.2    17  GLY17       0.2638
     23  O         32.9720    5.6880   19.4630 O.2    17  GLY17      -0.2714
     24  N         31.5410    4.6770   20.8900 N.am   18  TYR18      -0.1973
     25  CA        32.0070    3.3180   20.6320 C.3    18  TYR18       0.1639
     26  C         30.9440    2.5890   19.8160 C.2    18  TYR18       0.2290
     27  O         29.7570    2.6490   20.1390 O.2    18  TYR18      -0.2864
     28  CB        32.2600    2.5800   21.9510 C.3    18  TYR18       0.0560
     29  CG        33.4770    3.0970   22.6860 C.ar   18  TYR18      -0.0198
     30  CD1       33.3860    4.1730   23.5690 C.ar   18  TYR18      -0.0009
     31  CD2       34.7250    2.5360   22.4640 C.ar   18  TYR18      -0.0009
     32  CE1       34.5160    4.6680   24.2080 C.ar   18  TYR18       0.0417
     33  CE2       35.8570    3.0230   23.0950 C.ar   18  TYR18       0.0417
     34  CZ        35.7510    4.0830   23.9650 C.ar   18  TYR18       0.1957
     35  OH        36.8880    4.5420   24.6070 O.3    18  TYR18      -0.2866
     36  N         26.6530    2.8240   16.6440 N.3    34  LEU34      -0.1245
     37  CA        26.9660    3.3690   17.9660 C.3    34  LEU34       0.1561
     38  C         26.1890    2.6540   19.0720 C.2    34  LEU34       0.2260
     39  O         24.9710    2.5170   18.9870 O.2    34  LEU34      -0.2867
     40  CB        26.6150    4.8600   18.0000 C.3    34  LEU34       0.0270
     41  CG        26.7630    5.6240   19.3220 C.3    34  LEU34       0.0019
     42  CD1       28.2450    5.8680   19.5960 C.3    34  LEU34       0.0001
     43  CD2       26.0140    6.9670   19.2290 C.3    34  LEU34       0.0001
     44  N         24.5180    2.7480   22.4040 N.3    36  ASP36      -0.1239
     45  CA        23.9910    3.7910   23.2760 C.3    36  ASP36       0.1674
     46  C         23.0170    3.3000   24.3470 C.2    36  ASP36       0.2266
     47  O         21.8700    2.9680   24.0540 O.2    36  ASP36      -0.2867
     48  CB        23.3140    4.8590   22.4010 C.3    36  ASP36       0.1410
     49  CG        22.7620    6.0180   23.2110 C.2    36  ASP36       0.3668
     50  OD1       23.2070    6.1940   24.3430 O.co2  36  ASP36      -0.2456
     51  OD2       21.9020    6.7410   22.7030 O.co2  36  ASP36      -0.2456
     52  N         21.8070    5.1160   26.4770 N.3    38  GLY38      -0.1210
     53  CA        21.0120    6.2860   26.8310 C.3    38  GLY38       0.1956
     54  C         19.7920    6.5410   25.9570 C.2    38  GLY38       0.2612
     55  O         19.1210    7.5600   26.1080 O.2    38  GLY38      -0.2717
     56  N         19.5030    5.6340   25.0310 N.am   39  SER39      -0.1952
     57  CA        18.3330    5.7950   24.1570 C.3    39  SER39       0.1924
     58  C         17.7720    4.4100   23.8460 C.2    39  SER39       0.2314
     59  O         18.3450    3.4090   24.2640 O.2    39  SER39      -0.2863
     60  CB        18.6940    6.5500   22.8750 C.3    39  SER39       0.2116
     61  OG        19.5890    5.8130   22.0680 O.3    39  SER39      -0.2180
     62  N         17.2910   16.2500   19.4170 N.3    75  TYR75      -0.1241
     63  CA        18.1700   16.2540   20.5760 C.3    75  TYR75       0.1605
     64  C         18.7700   17.6430   20.7370 C.2    75  TYR75       0.2264
     65  O         18.2790   18.6030   20.1390 O.2    75  TYR75      -0.2867
     66  CB        19.2760   15.2100   20.4070 C.3    75  TYR75       0.0534
     67  CG        18.7910   13.7900   20.5980 C.ar   75  TYR75      -0.0201
     68  CD1       18.2010   13.3950   21.7950 C.ar   75  TYR75      -0.0009
     69  CD2       18.9300   12.8440   19.5910 C.ar   75  TYR75      -0.0009
     70  CE1       17.7640   12.0980   21.9870 C.ar   75  TYR75       0.0417
     71  CE2       18.4980   11.5390   19.7710 C.ar   75  TYR75       0.0417
     72  CZ        17.9150   11.1730   20.9730 C.ar   75  TYR75       0.1957
     73  OH        17.4850    9.8790   21.1690 O.3    75  TYR75      -0.2866
     74  N         19.5880   15.7820   16.0370 N.3    76  LYS76      -0.1245
     75  CA        18.2730   15.7390   15.4080 C.3    76  LYS76       0.1561
     76  C         18.2680   14.8690   14.1510 C.2    76  LYS76       0.2260
     77  O         19.1010   15.0480   13.2580 O.2    76  LYS76      -0.2867
     78  CB        17.8230   17.1530   15.0310 C.3    76  LYS76       0.0271
     79  CG        17.8510   18.1500   16.1820 C.3    76  LYS76       0.0035
     80  CD        17.3990   19.5320   15.7170 C.3    76  LYS76       0.0206
     81  CE        17.4280   20.5440   16.8590 C.3    76  LYS76       0.1093
     82  NZ        16.9930   21.9010   16.4110 N.3    76  LYS76      -0.1314
     83  N         23.3710   17.6320   12.5050 N.3   108  LYS108     -0.1231
     84  CA        24.3730   17.5090   13.5660 C.3   108  LYS108      0.1693
     85  C         24.3900   16.1410   14.2500 C.2   108  LYS108      0.2592
     86  O         24.8520   16.0230   15.3850 O.2   108  LYS108     -0.2718
     87  CB        24.1450   18.5810   14.6340 C.3   108  LYS108      0.0285
     88  CG        24.1710   20.0170   14.1400 C.3   108  LYS108      0.0035
     89  CD        23.9230   20.9620   15.3110 C.3   108  LYS108      0.0206
     90  CE        23.9280   22.4220   14.8950 C.3   108  LYS108      0.1093
     91  NZ        23.6790   23.3050   16.0740 N.3   108  LYS108     -0.1314
     92  N         23.8500   15.1210   13.5910 N.am  109  PHE109     -0.1976
     93  CA        23.8220   13.7770   14.1710 C.3   109  PHE109      0.1639
     94  C         25.0720   12.9960   13.7610 C.2   109  PHE109      0.2290
     95  O         25.8620   12.5770   14.6130 O.2   109  PHE109     -0.2864
     96  CB        22.5600   13.0310   13.7120 C.3   109  PHE109      0.0560
     97  CG        22.3690   11.6920   14.3720 C.ar  109  PHE109     -0.0200
     98  CD1       22.2200   11.5960   15.7450 C.ar  109  PHE109     -0.0042
     99  CD2       22.3380   10.5270   13.6170 C.ar  109  PHE109     -0.0042
    100  CE1       22.0420   10.3620   16.3590 C.ar  109  PHE109     -0.0003
    101  CE2       22.1600    9.2950   14.2230 C.ar  109  PHE109     -0.0003
    102  CZ        22.0120    9.2110   15.5940 C.ar  109  PHE109     -0.0000
    103  N         28.6260   12.4160   12.8710 N.3   111  ILE111     -0.1245
    104  CA        29.9100   13.0670   13.1270 C.3   111  ILE111      0.1561
    105  C         30.9710   12.7390   12.0790 C.2   111  ILE111      0.2260
    106  O         31.2880   11.5720   11.8510 O.2   111  ILE111     -0.2867
    107  CB        30.4690   12.6380   14.5060 C.3   111  ILE111      0.0252
    108  CG1       29.4780   12.9960   15.6160 C.3   111  ILE111      0.0019
    109  CG2       31.8090   13.3130   14.7560 C.3   111  ILE111      0.0019
    110  CD1       29.8130   12.3720   16.9710 C.3   111  ILE111      0.0001
    111  N         30.6700    5.6150   12.4010 N.3   116  TRP116     -0.1241
    112  CA        29.4270    4.8820   12.6350 C.3   116  TRP116      0.1605
    113  C         28.3120    5.4540   11.7650 C.2   116  TRP116      0.2264
    114  O         28.2710    6.6590   11.5080 O.2   116  TRP116     -0.2867
    115  CB        29.0020    4.8420   14.1200 C.3   116  TRP116      0.0550
    116  CG        29.0470    6.1230   14.9200 C.ar  116  TRP116      0.0003
    117  CD1       30.0570    6.5290   15.7460 C.ar  116  TRP116      0.0946
    118  CD2       28.0020    7.0970   15.0570 C.ar  116  TRP116      0.0152
    119  NE1       29.7030    7.6860   16.3950 N.ar  116  TRP116     -0.2442
    120  CE2       28.4480    8.0590   15.9900 C.ar  116  TRP116      0.0810
    121  CE3       26.7330    7.2490   14.4870 C.ar  116  TRP116      0.0012
    122  CZ2       27.6680    9.1590   16.3650 C.ar  116  TRP116      0.0191
    123  CZ3       25.9580    8.3390   14.8590 C.ar  116  TRP116      0.0001
    124  CH2       26.4300    9.2830   15.7920 C.ar  116  TRP116      0.0015
    125  N         22.6950    4.0730   15.1810 N.3   119  ILE119     -0.1245
    126  CA        22.7310    4.0140   16.6350 C.3   119  ILE119      0.1561
    127  C         21.8890    2.8670   17.1780 C.2   119  ILE119      0.2260
    128  O         20.7890    2.6150   16.6940 O.2   119  ILE119     -0.2867
    129  CB        22.2100    5.3530   17.2240 C.3   119  ILE119      0.0252
    130  CG1       22.2790    5.3370   18.7470 C.3   119  ILE119      0.0019
    131  CG2       20.7540    5.5730   16.7910 C.3   119  ILE119      0.0019
    132  CD1       22.1130    6.7340   19.3690 C.3   119  ILE119      0.0001
    133  N         25.0370    6.2520   30.7020 N.3   229  ASP229     -0.1225
    134  CA        24.8010    6.5610   29.2870 C.3   229  ASP229      0.1805
    135  C         26.0550    6.4850   28.4180 C.2   229  ASP229      0.2598
    136  O         26.8630    7.4160   28.3910 O.2   229  ASP229     -0.2718
    137  CB        24.2050    7.9770   29.2450 C.3   229  ASP229      0.1424
    138  CG        23.8610    8.4590   27.8460 C.2   229  ASP229      0.3668
    139  OD1       23.9430    7.6860   26.8910 O.co2 229  ASP229     -0.2456
    140  OD2       23.4970    9.6320   27.7340 O.co2 229  ASP229     -0.2456
    141  N         26.1880    5.3960   27.6680 N.am  230  SER230     -0.1938
    142  CA        27.3540    5.2120   26.8080 C.3   230  SER230      0.2055
    143  C         27.2790    6.1010   25.5750 C.2   230  SER230      0.2644
    144  O         28.2290    6.1690   24.8070 O.2   230  SER230     -0.2714
    145  CB        27.4610    3.7450   26.3630 C.3   230  SER230      0.2130
    146  OG        26.3300    3.3640   25.5800 O.3   230  SER230     -0.2179
    147  N         26.1620    6.8040   25.3960 N.am  231  GLY231     -0.1939
    148  CA        26.0260    7.6660   24.2270 C.3   231  GLY231      0.2014
    149  C         26.4260    9.1190   24.4430 C.2   231  GLY231      0.2640
    150  O         26.2590    9.9530   23.5520 O.2   231  GLY231     -0.2714
    151  N         26.9460    9.4000   25.6340 N.am  232  THR232     -0.1936
    152  CA        27.3950   10.7240   26.0720 C.3   232  THR232      0.2028
    153  C         28.8810   10.6420   26.4200 C.2   232  THR232      0.2642
    154  O         29.3180    9.6690   27.0240 O.2   232  THR232     -0.2714
    155  CB        26.6400   11.1740   27.3540 C.3   232  THR232      0.1808
    156  OG1       25.2480   11.3120   27.0660 O.3   232  THR232     -0.2208
    157  CG2       27.1890   12.4750   27.8840 C.3   232  THR232      0.0379
    158  N         29.6590   11.6460   26.0360 N.am  233  THR233     -0.1950
    159  CA        31.0900   11.6210   26.3510 C.3   233  THR233      0.1897
    160  C         31.4550   11.8260   27.8210 C.2   233  THR233      0.2313
    161  O         32.1550   11.0100   28.4290 O.2   233  THR233     -0.2863
    162  CB        31.8580   12.7010   25.5570 C.3   233  THR233      0.1794
    163  OG1       31.7630   12.4260   24.1540 O.3   233  THR233     -0.2208
    164  CG2       33.3360   12.7320   25.9820 C.3   233  THR233      0.0378
    165  N         28.4490   14.0110   33.5280 N.3   236  ARG236     -0.1245
    166  CA        27.7930   15.2900   33.7070 C.3   236  ARG236      0.1563
    167  C         26.9470   15.3260   34.9620 C.2   236  ARG236      0.2260
    168  O         26.3240   14.3390   35.3600 O.2   236  ARG236     -0.2867
    169  CB        27.1370   15.7620   32.4010 C.3   236  ARG236      0.0307
    170  CG        27.1720   14.7400   31.2840 C.3   236  ARG236      0.0489
    171  CD        26.6550   15.3480   30.0050 C.3   236  ARG236      0.2205
    172  NE        25.3180   15.8940   30.0650 N.pl3 236  ARG236     -0.0865
    173  CZ        25.0130   17.0600   29.5140 C.cat 236  ARG236      0.5346
    174  NH1       23.7800   17.5370   29.5830 N.pl3 236  ARG236      0.1354
    175  NH2       25.9620   17.7530   28.8950 N.pl3 236  ARG236      0.1354
    176  N         24.8020   12.1890   34.5850 N.3   333  VAL333     -0.1245
    177  CA        24.9910   11.2670   33.4680 C.3   333  VAL333      0.1561
    178  C         26.3930   10.6640   33.5310 C.2   333  VAL333      0.2260
    179  O         27.3850   11.3800   33.4060 O.2   333  VAL333     -0.2867
    180  CB        24.8360   11.9830   32.1070 C.3   333  VAL333      0.0252
    181  CG1       24.9670   10.9700   30.9590 C.3   333  VAL333      0.0019
    182  CG2       23.5040   12.6940   32.0380 C.3   333  VAL333      0.0019
    183  N         30.6770    8.0910   28.7070 N.3   336  ALA336     -0.1245
    184  CA        31.7760    7.2390   28.2810 C.3   336  ALA336      0.1562
    185  C         33.0620    7.3680   29.0810 C.2   336  ALA336      0.2260
    186  O         33.7000    6.3540   29.3680 O.2   336  ALA336     -0.2867
    187  CB        32.0670    7.4810   26.8000 C.3   336  ALA336      0.0290
@<TRIPOS>BOND
     1   114   113    2
     2   113   112    1
     3   106   105    2
     4   105   104    1
     5   111   112    1
     6    83    84    1
     7   112   115    1
     8   103   104    1
     9   104   107    1
    10    77    76    2
    11    84    85    1
    12    84    87    1
    13    92    93    1
    14    92    85   am
    15    99   101   ar
    16    99    97   ar
    17    96    93    1
    18    96    97    1
    19    94    93    1
    20    94    95    2
    21   115   116    1
    22    88    87    1
    23    88    89    1
    24    76    75    1
    25   101   102   ar
    26    85    86    2
    27    97    98   ar
    28   121   123   ar
    29   121   118   ar
    30   107   109    1
    31   107   108    1
    32   123   124   ar
    33    90    89    1
    34    90    91    1
    35   116   118   ar
    36   116   117   ar
    37    78    75    1
    38    78    79    1
    39   118   120   ar
    40   125   126    1
    41    75    74    1
    42    19    17   am
    43   102   100   ar
    44   108   110    1
    45    80    79    1
    46    80    81    1
    47    98   100   ar
    48   117   119   ar
    49   124   122   ar
    50   120   122   ar
    51   120   119   ar
    52    18    17    2
    53    17    16    1
    54    82    81    1
    55   126   127    1
    56   126   129    1
    57    36    37    1
    58   128   127    2
    59   131   129    1
    60   129   130    1
    61    16    15    1
    62    15    12    1
    63    37    40    1
    64    37    38    1
    65    40    41    1
    66    14    13    2
    67   130   132    1
    68    39    38    2
    69    12    13    1
    70    12    11    1
    71    43    41    1
    72    41    42    1
    73    13    20   am
    74    62    63    1
    75    23    22    2
    76    69    71   ar
    77    69    67   ar
    78    71    72   ar
    79    26    27    2
    80    26    25    1
    81    65    64    2
    82    22    21    1
    83    22    24   am
    84    11     9   am
    85    20    21    1
    86    66    63    1
    87    66    67    1
    88    63    64    1
    89    67    68   ar
    90    25    24    1
    91    25    28    1
    92    10     9    2
    93    72    73    1
    94    72    70   ar
    95     9     8    1
    96    68    70   ar
    97    28    29    1
    98    61    60    1
    99     8     7    1
   100    48    49    1
   101    48    45    1
   102    44    45    1
   103    31    29   ar
   104    31    33   ar
   105    29    30   ar
   106    51    49   ar
   107     7     3   am
   108    60    57    1
   109    33    34   ar
   110    49    50   ar
   111    45    46    1
   112     1     2    1
   113   150   149    2
   114    30    32   ar
   115     3     4    2
   116     3     2    1
   117    58    57    1
   118    58    59    2
   119    34    32   ar
   120    34    35    1
   121    47    46    2
   122   163   162    1
   123    57    56    1
   124   148   149    1
   125   148   147    1
   126     2     5    1
   127   149   151   am
   128   144   143    2
   129    56    54   am
   130   147   143   am
   131     6     5    1
   132   162   164    1
   133   162   159    1
   134   143   142    1
   135   146   145    1
   136   151   152    1
   137    54    55    2
   138    54    53    1
   139   158   159    1
   140   158   153   am
   141   152   153    1
   142   152   155    1
   143   159   160    1
   144   145   142    1
   145   153   154    2
   146    52    53    1
   147   187   184    1
   148   142   141    1
   149   139   138   ar
   150   156   155    1
   151   155   157    1
   152   141   135   am
   153   140   138   ar
   154   160   161    2
   155   138   137    1
   156   184   183    1
   157   184   185    1
   158   136   135    2
   159   135   134    1
   160   175   173    1
   161   185   186    2
   162   137   134    1
   163   134   133    1
   164   173   174    1
   165   173   172    2
   166   171   172    1
   167   171   170    1
   168   181   180    1
   169   170   169    1
   170   182   180    1
   171   180   177    1
   172   169   166    1
   173   179   178    2
   174   177   178    1
   175   177   176    1
   176   165   166    1
   177   166   167    1
   178   167   168    2
