@<TRIPOS>MOLECULE
tmp/3kn2A00.pdb
 165 158 0 0 0
SMALL
GASTEIGER

@<TRIPOS>ATOM
      1  N        208.4100   -5.4000   52.5600 N.3    41  GLN41      -0.1231
      2  CA       207.4500   -4.4000   52.1130 C.3    41  GLN41       0.1698
      3  C        207.2650   -3.1820   52.9980 C.2    41  GLN41       0.2593
      4  O        207.7680   -3.1130   54.1160 O.2    41  GLN41      -0.2718
      5  CB       206.0930   -5.0890   51.9400 C.3    41  GLN41       0.0381
      6  CG       205.7110   -5.9330   53.1500 C.3    41  GLN41       0.0905
      7  CD       204.3630   -6.6110   53.0300 C.2    41  GLN41       0.2608
      8  OE1      203.4420   -6.0980   52.3990 O.2    41  GLN41      -0.2717
      9  NE2      204.2310   -7.7630   53.6710 N.am   41  GLN41      -0.0878
     10  N        206.4880   -2.2360   52.4810 N.am   42  THR42      -0.1939
     11  CA       206.1650   -1.0060   53.1870 C.3    42  THR42       0.2028
     12  C        204.6510   -0.8150   53.1810 C.2    42  THR42       0.2642
     13  O        203.9840   -0.9670   52.1520 O.2    42  THR42      -0.2714
     14  CB       206.9050    0.2340   52.5990 C.3    42  THR42       0.1808
     15  OG1      206.2580    1.4360   53.0210 O.3    42  THR42      -0.2208
     16  CG2      206.9310    0.1900   51.1050 C.3    42  THR42       0.0379
     17  N        204.1160   -0.5920   54.3740 N.am   43  PHE43      -0.1973
     18  CA       202.6900   -0.4010   54.5850 C.3    43  PHE43       0.1639
     19  C        202.4530    0.7000   55.6330 C.2    43  PHE43       0.2290
     20  O        203.3310    1.5410   55.8500 O.2    43  PHE43      -0.2864
     21  CB       202.0250   -1.7440   54.9640 C.3    43  PHE43       0.0560
     22  CG       202.8530   -2.6030   55.8690 C.ar   43  PHE43      -0.0200
     23  CD1      204.0290   -3.1930   55.4210 C.ar   43  PHE43      -0.0042
     24  CD2      202.5110   -2.7570   57.1940 C.ar   43  PHE43      -0.0042
     25  CE1      204.8340   -3.9130   56.2910 C.ar   43  PHE43      -0.0003
     26  CE2      203.3190   -3.4760   58.0520 C.ar   43  PHE43      -0.0003
     27  CZ       204.4820   -4.0440   57.6020 C.ar   43  PHE43      -0.0000
     28  N        198.7140   -4.3140   60.4330 N.3    55  VAL55      -0.1245
     29  CA       198.2980   -5.5920   59.9130 C.3    55  VAL55       0.1561
     30  C        199.3280   -6.7060   60.2100 C.2    55  VAL55       0.2260
     31  O        200.5330   -6.5430   59.9880 O.2    55  VAL55      -0.2867
     32  CB       197.9830   -5.3660   58.4010 C.3    55  VAL55       0.0252
     33  CG1      199.2090   -5.5650   57.5380 C.3    55  VAL55       0.0019
     34  CG2      196.7730   -6.1380   57.9820 C.3    55  VAL55       0.0019
     35  N        199.7640   -9.5370   58.7740 N.3    57  HIS57      -0.1226
     36  CA       200.3330  -10.1060   57.5570 C.3    57  HIS57       0.1752
     37  C        201.4470   -9.2520   56.9550 C.2    57  HIS57       0.2596
     38  O        202.0380   -9.6230   55.9490 O.2    57  HIS57      -0.2718
     39  CB       199.2450  -10.4300   56.5190 C.3    57  HIS57       0.0759
     40  CG       198.6130   -9.2310   55.8830 C.ar   57  HIS57       0.0818
     41  ND1      197.3020   -8.8720   56.1300 N.ar   57  HIS57      -0.2268
     42  CD2      199.0750   -8.3590   54.9600 C.ar   57  HIS57       0.1154
     43  CE1      196.9900   -7.8290   55.3840 C.ar   57  HIS57       0.1986
     44  NE2      198.0440   -7.4960   54.6610 N.ar   57  HIS57      -0.2212
     45  N        201.7180   -8.1090   57.5790 N.am   58  GLY58      -0.1957
     46  CA       202.7690   -7.2420   57.1100 C.3    58  GLY58       0.1869
     47  C        203.8720   -7.1630   58.1460 C.2    58  GLY58       0.2309
     48  O        205.0420   -7.3200   57.8080 O.2    58  GLY58      -0.2863
     49  N        194.2830  -10.7450   62.4970 N.3    81  ASP81      -0.1239
     50  CA       195.2670  -10.1060   61.6250 C.3    81  ASP81       0.1674
     51  C        195.7480   -8.7540   62.1700 C.2    81  ASP81       0.2266
     52  O        195.9520   -7.8100   61.4070 O.2    81  ASP81      -0.2867
     53  CB       194.6660   -9.9360   60.2180 C.3    81  ASP81       0.1410
     54  CG       195.7160   -9.7980   59.1380 C.2    81  ASP81       0.3668
     55  OD1      196.8750  -10.1570   59.3870 O.co2  81  ASP81      -0.2456
     56  OD2      195.3780   -9.3450   58.0290 O.co2  81  ASP81      -0.2456
     57  N        183.2940   -4.7740   55.6180 N.3   123  ARG123     -0.1245
     58  CA       183.3920   -4.4600   54.1950 C.3   123  ARG123      0.1563
     59  C        182.8180   -3.1060   53.8440 C.2   123  ARG123      0.2260
     60  O        181.8960   -2.6180   54.5030 O.2   123  ARG123     -0.2867
     61  CB       182.6790   -5.5160   53.3590 C.3   123  ARG123      0.0307
     62  CG       183.3390   -6.8600   53.3430 C.3   123  ARG123      0.0489
     63  CD       184.6120   -6.8390   52.5360 C.3   123  ARG123      0.2205
     64  NE       185.1540   -8.1840   52.4000 N.pl3 123  ARG123     -0.0865
     65  CZ       184.8420   -9.0250   51.4160 C.cat 123  ARG123      0.5346
     66  NH1      183.9900   -8.6640   50.4640 N.pl3 123  ARG123      0.1354
     67  NH2      185.3900  -10.2310   51.3790 N.pl3 123  ARG123      0.1354
     68  N        194.3690   -1.7840   41.6520 N.3   132  ILE132     -0.1245
     69  CA       194.9110   -2.4250   42.8460 C.3   132  ILE132      0.1561
     70  C        196.2330   -1.7690   43.2770 C.2   132  ILE132      0.2260
     71  O        196.4300   -1.4710   44.4550 O.2   132  ILE132     -0.2867
     72  CB       195.0970   -3.9510   42.6290 C.3   132  ILE132      0.0252
     73  CG1      195.5890   -4.6180   43.9100 C.3   132  ILE132      0.0019
     74  CG2      196.0640   -4.2200   41.4880 C.3   132  ILE132      0.0019
     75  CD1      194.5990   -4.5660   45.0200 C.3   132  ILE132      0.0001
     76  N        196.3430    1.0210   45.8260 N.3   135  LEU135     -0.1231
     77  CA       196.1150    0.6550   47.2140 C.3   135  LEU135      0.1693
     78  C        197.2800   -0.0960   47.8550 C.2   135  LEU135      0.2592
     79  O        197.2850   -0.3300   49.0600 O.2   135  LEU135     -0.2718
     80  CB       194.8260   -0.1530   47.3140 C.3   135  LEU135      0.0284
     81  CG       193.5780    0.5430   47.8570 C.3   135  LEU135      0.0019
     82  CD1      193.5510    2.0080   47.5250 C.3   135  LEU135      0.0001
     83  CD2      192.3610   -0.1670   47.3190 C.3   135  LEU135      0.0001
     84  N        198.2810   -0.4550   47.0630 N.am  136  LYS136     -0.1966
     85  CA       199.4360   -1.1550   47.6000 C.3   136  LYS136      0.1728
     86  C        200.1730   -0.2130   48.5450 C.2   136  LYS136      0.2617
     87  O        200.4230    0.9500   48.2200 O.2   136  LYS136     -0.2715
     88  CB       200.3610   -1.6200   46.4740 C.3   136  LYS136      0.0311
     89  CG       199.8110   -2.7910   45.6740 C.3   136  LYS136      0.0038
     90  CD       200.6690   -3.1100   44.4590 C.3   136  LYS136      0.0206
     91  CE       200.1090   -4.2920   43.6800 C.3   136  LYS136      0.1093
     92  NZ       200.7330   -4.3800   42.3290 N.3   136  LYS136     -0.1314
     93  N        200.5170   -0.7200   49.7210 N.am  137  GLY137     -0.1940
     94  CA       201.2020    0.1010   50.6950 C.3   137  GLY137      0.2014
     95  C        200.2460    0.7190   51.6910 C.2   137  GLY137      0.2640
     96  O        200.6830    1.2820   52.6730 O.2   137  GLY137     -0.2714
     97  N        198.9420    0.5860   51.4770 N.am  138  SER138     -0.1935
     98  CA       197.9700    1.1790   52.4000 C.3   138  SER138      0.2055
     99  C        197.4460    0.2780   53.5140 C.2   138  SER138      0.2643
    100  O        196.6640    0.7290   54.3550 O.2   138  SER138     -0.2714
    101  CB       196.7970    1.7870   51.6340 C.3   138  SER138      0.2130
    102  OG       197.2480    2.9070   50.9110 O.3   138  SER138     -0.2179
    103  N        197.8810   -0.9790   53.5390 N.am  139  SER139     -0.1949
    104  CA       197.4520   -1.9220   54.5680 C.3   139  SER139      0.1924
    105  C        197.8080   -1.3780   55.9370 C.2   139  SER139      0.2314
    106  O        198.9350   -0.9480   56.1450 O.2   139  SER139     -0.2863
    107  CB       198.1410   -3.2710   54.3680 C.3   139  SER139      0.2116
    108  OG       197.5730   -3.7600   53.1710 O.3   139  SER139     -0.2180
    109  N        192.5100   -0.6990   57.1450 N.3   154  PHE154     -0.1227
    110  CA       192.5190   -1.3740   55.8530 C.3   154  PHE154      0.1736
    111  C        193.3270   -2.6700   55.8570 C.2   154  PHE154      0.2595
    112  O        194.4950   -2.6880   56.2320 O.2   154  PHE154     -0.2718
    113  CB       193.0450   -0.4210   54.7720 C.3   154  PHE154      0.0547
    114  CG       193.0620   -1.0140   53.3960 C.ar  154  PHE154     -0.0202
    115  CD1      191.9350   -1.6570   52.8950 C.ar  154  PHE154     -0.0042
    116  CD2      194.2090   -0.9340   52.6010 C.ar  154  PHE154     -0.0042
    117  CE1      191.9430   -2.2060   51.6320 C.ar  154  PHE154     -0.0003
    118  CE2      194.2330   -1.4850   51.3210 C.ar  154  PHE154     -0.0003
    119  CZ       193.0980   -2.1240   50.8330 C.ar  154  PHE154     -0.0000
    120  N        192.6810   -3.7640   55.4880 N.am  155  ARG155     -0.1966
    121  CA       193.3460   -5.0540   55.4410 C.3   155  ARG155      0.1729
    122  C        193.5950   -5.6260   54.0280 C.2   155  ARG155      0.2616
    123  O        194.7020   -6.0700   53.7140 O.2   155  ARG155     -0.2715
    124  CB       192.5620   -6.0580   56.2700 C.3   155  ARG155      0.0348
    125  CG       193.1800   -7.4220   56.2870 C.3   155  ARG155      0.0492
    126  CD       192.2570   -8.4320   56.9060 C.3   155  ARG155      0.2205
    127  NE       192.8870   -9.7410   56.8550 N.pl3 155  ARG155     -0.0865
    128  CZ       192.5550  -10.7020   56.0000 C.cat 155  ARG155      0.5346
    129  NH1      191.5710  -10.5150   55.1230 N.pl3 155  ARG155      0.1354
    130  NH2      193.2790  -11.8150   55.9530 N.pl3 155  ARG155      0.1354
    131  N        192.5630   -5.6910   53.1970 N.am  156  ALA156     -0.1963
    132  CA       192.7340   -6.2380   51.8560 C.3   156  ALA156      0.1728
    133  C        191.7950   -5.6200   50.8510 C.2   156  ALA156      0.2616
    134  O        190.7330   -5.1060   51.2110 O.2   156  ALA156     -0.2715
    135  CB       192.5400   -7.7450   51.8740 C.3   156  ALA156      0.0334
    136  N        192.1830   -5.6740   49.5850 N.am  157  ALA157     -0.1963
    137  CA       191.3570   -5.1290   48.5340 C.3   157  ALA157      0.1728
    138  C        190.4910   -6.2280   47.9370 C.2   157  ALA157      0.2616
    139  O        190.8980   -7.3910   47.8700 O.2   157  ALA157     -0.2715
    140  CB       192.2310   -4.5120   47.4660 C.3   157  ALA157      0.0334
    141  N        189.2720   -5.8590   47.5600 N.am  158  VAL158     -0.1963
    142  CA       188.3290   -6.7810   46.9380 C.3   158  VAL158      0.1727
    143  C        188.3210   -6.3470   45.4670 C.2   158  VAL158      0.2616
    144  O        187.6130   -5.4090   45.0850 O.2   158  VAL158     -0.2715
    145  CB       186.9140   -6.6500   47.5490 C.3   158  VAL158      0.0290
    146  CG1      186.0280   -7.7810   47.0760 C.3   158  VAL158      0.0023
    147  CG2      186.9890   -6.6480   49.0640 C.3   158  VAL158      0.0023
    148  N        189.1340   -7.0060   44.6490 N.am  159  CYS159     -0.1968
    149  CA       189.2480   -6.6360   43.2500 C.3   159  CYS159      0.1712
    150  C        189.0390   -7.7290   42.2110 C.2   159  CYS159      0.2296
    151  O        189.0180   -8.9250   42.5220 O.2   159  CYS159     -0.2864
    152  CB       190.6040   -5.9780   43.0260 C.3   159  CYS159      0.0983
    153  SG       191.9710   -6.9380   43.6580 S.3   159  CYS159     -0.0798
    154  N        192.1810   -6.6190   38.2030 N.3   162  GLY162     -0.1225
    155  CA       193.1220   -5.6190   38.6740 C.3   162  GLY162      0.1811
    156  C        192.4990   -4.3000   39.1120 C.2   162  GLY162      0.2280
    157  O        193.1970   -3.2870   39.2030 O.2   162  GLY162     -0.2866
    158  N        188.3320   -4.6740   52.3970 N.3   168  ASP168     -0.1239
    159  CA       188.1340   -5.5090   53.5640 C.3   168  ASP168      0.1674
    160  C        188.9500   -4.8470   54.6690 C.2   168  ASP168      0.2266
    161  O        190.1470   -4.5890   54.5090 O.2   168  ASP168     -0.2867
    162  CB       188.6510   -6.9230   53.2880 C.3   168  ASP168      0.1410
    163  CG       188.5040   -7.8460   54.4810 C.2   168  ASP168      0.3668
    164  OD1      187.3580   -8.1710   54.8400 O.co2 168  ASP168     -0.2456
    165  OD2      189.5270   -8.2520   55.0630 O.co2 168  ASP168     -0.2456
@<TRIPOS>BOND
     1   154   155    1
     2   155   156    1
     3   156   157    2
     4    74    72    1
     5    68    69    1
     6   150   151    2
     7   150   149    1
     8    92    91    1
     9    72    69    1
    10    72    73    1
    11    69    70    1
    12   152   149    1
    13   152   153    1
    14   149   148    1
    15    70    71    2
    16    91    90    1
    17    73    75    1
    18    90    89    1
    19   148   143   am
    20   144   143    2
    21   143   142    1
    22    89    88    1
    23    76    77    1
    24    88    85    1
    25   142   145    1
    26   142   141    1
    27    84    85    1
    28    84    78   am
    29   146   145    1
    30    77    80    1
    31    77    78    1
    32    80    81    1
    33    83    81    1
    34   140   137    1
    35    82    81    1
    36   145   147    1
    37   141   138   am
    38    85    86    1
    39    78    79    2
    40   139   138    2
    41   138   137    1
    42    87    86    2
    43   137   136    1
    44    86    93   am
    45   136   133   am
    46    93    94    1
    47    66    65    1
    48    94    95    1
    49   119   118   ar
    50   119   117   ar
    51   133   134    2
    52   133   132    1
    53   102   101    1
    54    16    14    1
    55   118   116   ar
    56    67    65    1
    57    65    64    2
    58    97    95   am
    59    97    98    1
    60   117   115   ar
    61   101    98    1
    62    95    96    2
    63   132   135    1
    64   132   131    1
    65     5     2    1
    66     5     6    1
    67     2     1    1
    68     2     3    1
    69    13    12    2
    70   158   159    1
    71     8     7    2
    72    64    63    1
    73    98    99    1
    74    10     3   am
    75    10    11    1
    76    63    62    1
    77    14    15    1
    78    14    11    1
    79   116   114   ar
    80   115   114   ar
    81     3     4    2
    82     7     6    1
    83     7     9   am
    84   108   107    1
    85    12    11    1
    86    12    17   am
    87   131   122   am
    88   162   159    1
    89   162   163    1
    90    62    61    1
    91    61    58    1
    92   114   113    1
    93    99   103   am
    94    99   100    2
    95   103   104    1
    96   159   160    1
    97   123   122    2
    98    59    58    1
    99    59    60    2
   100   122   121    1
   101    58    57    1
   102   107   104    1
   103    17    18    1
   104   163   164   ar
   105   163   165   ar
   106   161   160    2
   107   104   105    1
   108    18    21    1
   109    18    19    1
   110    44    42   ar
   111    44    43   ar
   112   113   110    1
   113    42    40   ar
   114    21    22    1
   115   129   128    1
   116    43    41   ar
   117    23    22   ar
   118    23    25   ar
   119   121   120    1
   120   121   124    1
   121   120   111   am
   122    19    20    2
   123   110   111    1
   124   110   109    1
   125   111   112    2
   126    22    24   ar
   127    40    41   ar
   128    40    39    1
   129   105   106    2
   130    38    37    2
   131   130   128    1
   132   128   127    2
   133   124   125    1
   134   125   126    1
   135    25    27   ar
   136    39    36    1
   137   127   126    1
   138    37    36    1
   139    37    45   am
   140    46    45    1
   141    46    47    1
   142    24    26   ar
   143    33    32    1
   144    36    35    1
   145    27    26   ar
   146    48    47    2
   147    34    32    1
   148    56    54   ar
   149    32    29    1
   150    54    55   ar
   151    54    53    1
   152    29    30    1
   153    29    28    1
   154    31    30    2
   155    53    50    1
   156    52    51    2
   157    50    51    1
   158    50    49    1
