@<TRIPOS>MOLECULE
tmp/3kn3C00.pdb
 112 104 0 0 0
SMALL
GASTEIGER

@<TRIPOS>ATOM
      1  N        -55.5990   -0.3040  -54.0110 N.3    12  ASN12      -0.1225
      2  CA       -56.9140    0.2920  -53.7550 C.3    12  ASN12       0.1785
      3  C        -56.8890    1.3770  -52.6800 C.2    12  ASN12       0.2597
      4  O        -57.7220    2.2880  -52.6990 O.2    12  ASN12      -0.2718
      5  CB       -57.9400   -0.7670  -53.3490 C.3    12  ASN12       0.1169
      6  CG       -58.3340   -1.6780  -54.4910 C.2    12  ASN12       0.2627
      7  OD1      -58.0980   -1.3700  -55.6680 O.2    12  ASN12      -0.2716
      8  ND2      -58.9380   -2.8230  -54.1490 N.am   12  ASN12      -0.0877
      9  N        -55.9510    1.2780  -51.7400 N.am   13  THR13      -0.1953
     10  CA       -55.8960    2.2520  -50.6580 C.3    13  THR13       0.1897
     11  C        -55.4550    3.6280  -51.1330 C.2    13  THR13       0.2313
     12  O        -55.8350    4.6450  -50.5540 O.2    13  THR13      -0.2863
     13  CB       -55.0090    1.7970  -49.4680 C.3    13  THR13       0.1794
     14  OG1      -53.6170    1.9800  -49.7820 O.3    13  THR13      -0.2208
     15  CG2      -55.3080    0.3370  -49.0940 C.3    13  THR13       0.0378
     16  N        -52.8860    0.2850  -40.0840 N.3    78  ASN78      -0.1240
     17  CA       -54.1730    0.8570  -39.7200 C.3    78  ASN78       0.1653
     18  C        -55.1910   -0.2510  -39.4760 C.2    78  ASN78       0.2266
     19  O        -54.9460   -1.4130  -39.8060 O.2    78  ASN78      -0.2867
     20  CB       -54.6630    1.8700  -40.7720 C.3    78  ASN78       0.1155
     21  CG       -55.3540    1.2170  -41.9650 C.2    78  ASN78       0.2627
     22  OD1      -54.7270    0.5380  -42.7850 O.2    78  ASN78      -0.2716
     23  ND2      -56.6580    1.4480  -42.0790 N.am   78  ASN78      -0.0877
     24  N        -59.6950   -1.2870  -38.9800 N.3    80  PHE80      -0.1241
     25  CA       -61.0580   -0.9880  -39.3680 C.3    80  PHE80       0.1605
     26  C        -61.9900   -1.3040  -38.2180 C.2    80  PHE80       0.2264
     27  O        -61.6130   -1.9560  -37.2500 O.2    80  PHE80      -0.2867
     28  CB       -61.4280   -1.7590  -40.6270 C.3    80  PHE80       0.0534
     29  CG       -60.5390   -1.4380  -41.8070 C.ar   80  PHE80      -0.0203
     30  CD1      -59.2380   -1.9210  -41.8640 C.ar   80  PHE80      -0.0042
     31  CD2      -61.0010   -0.6460  -42.8460 C.ar   80  PHE80      -0.0042
     32  CE1      -58.4140   -1.6260  -42.9400 C.ar   80  PHE80      -0.0003
     33  CE2      -60.1860   -0.3570  -43.9320 C.ar   80  PHE80      -0.0003
     34  CZ       -58.8900   -0.8490  -43.9750 C.ar   80  PHE80      -0.0000
     35  N        -69.0390   -0.5390  -49.0350 N.3   113  ARG113     -0.1245
     36  CA       -68.5080    0.4360  -49.9930 C.3   113  ARG113      0.1563
     37  C        -68.9060    0.1150  -51.4370 C.2   113  ARG113      0.2260
     38  O        -69.1730    1.0090  -52.2310 O.2   113  ARG113     -0.2867
     39  CB       -67.0020    0.5150  -49.8670 C.3   113  ARG113      0.0307
     40  CG       -66.5880    1.3920  -48.7490 C.3   113  ARG113      0.0489
     41  CD       -66.5640    2.8250  -49.2170 C.3   113  ARG113      0.2205
     42  NE       -65.3710    3.4610  -48.7010 N.pl3 113  ARG113     -0.0865
     43  CZ       -64.3310    3.8290  -49.4290 C.cat 113  ARG113      0.5346
     44  NH1      -63.2960    4.3730  -48.8240 N.pl3 113  ARG113      0.1354
     45  NH2      -64.3300    3.6780  -50.7410 N.pl3 113  ARG113      0.1354
     46  N        -62.0590   -0.3800  -53.1220 N.3   117  SER117     -0.1202
     47  CA       -61.2690    0.3340  -52.1380 C.3   117  SER117      0.2020
     48  C        -60.6010   -0.6370  -51.1620 C.2   117  SER117      0.2619
     49  O        -60.8970   -1.8340  -51.1540 O.2   117  SER117     -0.2717
     50  CB       -62.1620    1.3050  -51.3760 C.3   117  SER117      0.2103
     51  OG       -63.2420    0.6070  -50.7810 O.3   117  SER117     -0.2182
     52  N        -59.6960   -0.1160  -50.3420 N.am  118  GLY118     -0.1942
     53  CA       -59.0730   -0.9290  -49.3110 C.3   118  GLY118      0.2014
     54  C        -60.0990   -1.4140  -48.2990 C.2   118  GLY118      0.2639
     55  O        -60.0270   -2.5450  -47.8150 O.2   118  GLY118     -0.2714
     56  N        -61.0610   -0.5500  -47.9810 N.am  119  THR119     -0.1950
     57  CA       -62.1210   -0.9270  -47.0680 C.3   119  THR119      0.1897
     58  C        -62.9760   -2.0570  -47.6340 C.2   119  THR119      0.2313
     59  O        -63.2520   -3.0320  -46.9450 O.2   119  THR119     -0.2863
     60  CB       -62.9890    0.2700  -46.6990 C.3   119  THR119      0.1794
     61  OG1      -62.1700    1.2740  -46.0770 O.3   119  THR119     -0.2208
     62  CG2      -64.0690   -0.1640  -45.7640 C.3   119  THR119      0.0378
     63  N        -67.6230    6.6850  -51.8070 N.3   147  GLY147     -0.1225
     64  CA       -66.4840    6.8950  -50.9290 C.3   147  GLY147      0.1811
     65  C        -66.7990    6.6120  -49.4740 C.2   147  GLY147      0.2280
     66  O        -67.9680    6.5310  -49.0800 O.2   147  GLY147     -0.2866
     67  N        -66.6940    8.3390  -46.5670 N.3   148  LEU148     -0.1245
     68  CA       -67.5330    9.2860  -45.8400 C.3   148  LEU148      0.1561
     69  C        -68.9600    9.2560  -46.3610 C.2   148  LEU148      0.2260
     70  O        -69.9110    9.3240  -45.5950 O.2   148  LEU148     -0.2867
     71  CB       -66.9620   10.7010  -45.9470 C.3   148  LEU148      0.0270
     72  CG       -67.1150   11.6300  -44.7330 C.3   148  LEU148      0.0019
     73  CD1      -66.7250   13.0550  -45.0960 C.3   148  LEU148      0.0001
     74  CD2      -68.5190   11.6040  -44.1610 C.3   148  LEU148      0.0001
     75  N        -62.6340    2.4110  -42.0700 N.3   164  ASP164     -0.1239
     76  CA       -61.3000    2.6010  -41.5410 C.3   164  ASP164      0.1674
     77  C        -61.4710    3.6050  -40.4140 C.2   164  ASP164      0.2266
     78  O        -62.4000    4.4280  -40.4450 O.2   164  ASP164     -0.2867
     79  CB       -60.3430    3.1400  -42.5990 C.3   164  ASP164      0.1410
     80  CG       -60.6130    4.5820  -42.9360 C.2   164  ASP164      0.3668
     81  OD1      -59.7960    5.4380  -42.5570 O.co2 164  ASP164     -0.2456
     82  OD2      -61.6570    4.8580  -43.5650 O.co2 164  ASP164     -0.2456
     83  N        -61.0380    7.8210  -41.0700 N.3   167  THR167     -0.1218
     84  CA       -62.2280    8.5010  -41.5640 C.3   167  THR167      0.1862
     85  C        -63.2630    8.6710  -40.4430 C.2   167  THR167      0.2287
     86  O        -63.8780    9.7260  -40.3170 O.2   167  THR167     -0.2866
     87  CB       -62.8670    7.7560  -42.7530 C.3   167  THR167      0.1770
     88  OG1      -61.8650    7.4710  -43.7390 O.3   167  THR167     -0.2211
     89  CG2      -63.9790    8.5900  -43.3790 C.3   167  THR167      0.0375
     90  N        -48.7360   -2.9980  -43.2960 N.3   194  TYR194     -0.1241
     91  CA       -48.0340   -2.9740  -44.5700 C.3   194  TYR194      0.1605
     92  C        -46.5310   -3.0160  -44.3570 C.2   194  TYR194      0.2264
     93  O        -45.9760   -2.2600  -43.5510 O.2   194  TYR194     -0.2867
     94  CB       -48.4120   -1.7400  -45.3690 C.3   194  TYR194      0.0534
     95  CG       -49.8980   -1.6190  -45.6170 C.ar  194  TYR194     -0.0201
     96  CD1      -50.4910   -2.2310  -46.7190 C.ar  194  TYR194     -0.0009
     97  CD2      -50.7170   -0.8820  -44.7480 C.ar  194  TYR194     -0.0009
     98  CE1      -51.8510   -2.1170  -46.9520 C.ar  194  TYR194      0.0417
     99  CE2      -52.0810   -0.7680  -44.9730 C.ar  194  TYR194      0.0417
    100  CZ       -52.6410   -1.3870  -46.0760 C.ar  194  TYR194      0.1957
    101  OH       -53.9900   -1.2710  -46.3100 O.3   194  TYR194     -0.2866
    102  N        -51.5590   11.0590  -44.4810 N.3   229  PHE229     -0.1241
    103  CA       -52.3640   10.3700  -45.4810 C.3   229  PHE229      0.1605
    104  C        -53.5370    9.6170  -44.8360 C.2   229  PHE229      0.2264
    105  O        -54.6480    9.5940  -45.3780 O.2   229  PHE229     -0.2867
    106  CB       -51.4920    9.4240  -46.3170 C.3   229  PHE229      0.0534
    107  CG       -52.2750    8.4090  -47.0980 C.ar  229  PHE229     -0.0203
    108  CD1      -52.8780    8.7490  -48.2990 C.ar  229  PHE229     -0.0042
    109  CD2      -52.4160    7.1150  -46.6270 C.ar  229  PHE229     -0.0042
    110  CE1      -53.6140    7.8130  -49.0200 C.ar  229  PHE229     -0.0003
    111  CE2      -53.1510    6.1740  -47.3380 C.ar  229  PHE229     -0.0003
    112  CZ       -53.7520    6.5250  -48.5400 C.ar  229  PHE229     -0.0000
@<TRIPOS>BOND
     1     7     6    2
     2     6     8   am
     3     6     5    1
     4     1     2    1
     5     2     5    1
     6     2     3    1
     7    46    47    1
     8     4     3    2
     9     3     9   am
    10    38    37    2
    11    47    50    1
    12    47    48    1
    13    63    64    1
    14     9    10    1
    15    37    36    1
    16    50    51    1
    17    48    49    2
    18    48    52   am
    19    11    10    1
    20    11    12    2
    21    64    65    1
    22    45    43    1
    23    10    13    1
    24    52    53    1
    25    36    39    1
    26    36    35    1
    27    39    40    1
    28    14    13    1
    29    65    66    2
    30    13    15    1
    31    43    44    1
    32    43    42    2
    33    53    54    1
    34    41    40    1
    35    41    42    1
    36   110   112   ar
    37   110   108   ar
    38   112   111   ar
    39   108   107   ar
    40    54    56   am
    41    54    55    2
    42    56    57    1
    43    58    57    1
    44    58    59    2
    45   111   109   ar
    46   107   109   ar
    47   107   106    1
    48    57    60    1
    49    98    96   ar
    50    98   100   ar
    51    96    95   ar
    52    60    61    1
    53    60    62    1
    54    67    68    1
    55    69    68    1
    56    69    70    2
    57   106   103    1
    58   101   100    1
    59   100    99   ar
    60    71    68    1
    61    71    72    1
    62    95    94    1
    63    95    97   ar
    64   103   104    1
    65   103   102    1
    66   105   104    2
    67    94    91    1
    68    73    72    1
    69    99    97   ar
    70    72    74    1
    71    91    92    1
    72    91    90    1
    73    92    93    2
    74    34    33   ar
    75    34    32   ar
    76    33    31   ar
    77    88    87    1
    78    82    80   ar
    79    89    87    1
    80    32    30   ar
    81    80    79    1
    82    80    81   ar
    83    31    29   ar
    84    22    21    2
    85    87    84    1
    86    79    76    1
    87    23    21   am
    88    75    76    1
    89    21    20    1
    90    30    29   ar
    91    29    28    1
    92    84    83    1
    93    84    85    1
    94    76    77    1
    95    20    17    1
    96    28    25    1
    97    78    77    2
    98    85    86    2
    99    16    17    1
   100    19    18    2
   101    17    18    1
   102    25    24    1
   103    25    26    1
   104    26    27    2
