@<TRIPOS>MOLECULE
tmp/3kneA01.pdb
 162 158 0 0 0
SMALL
GASTEIGER

@<TRIPOS>ATOM
      1  N         29.8330    0.7380   10.5500 N.3     2  TRP2       -0.1241
      2  CA        29.1330   -0.1800   11.4160 C.3     2  TRP2        0.1605
      3  C         28.0900   -0.9580   10.6210 C.2     2  TRP2        0.2264
      4  O         27.6070   -0.4730    9.6030 O.2     2  TRP2       -0.2867
      5  CB        28.4870    0.5420   12.5950 C.3     2  TRP2        0.0550
      6  CG        27.3450    1.4380   12.2340 C.ar    2  TRP2        0.0003
      7  CD1       27.3810    2.7750   11.9250 C.ar    2  TRP2        0.0946
      8  CD2       25.9660    1.0420   12.1450 C.ar    2  TRP2        0.0152
      9  NE1       26.1150    3.2180   11.6520 N.ar    2  TRP2       -0.2442
     10  CE2       25.2210    2.1720   11.7770 C.ar    2  TRP2        0.0810
     11  CE3       25.3370   -0.1870   12.3400 C.ar    2  TRP2        0.0012
     12  CZ2       23.8450    2.0860   11.6170 C.ar    2  TRP2        0.0191
     13  CZ3       23.9790   -0.2690   12.1760 C.ar    2  TRP2        0.0001
     14  CH2       23.2500    0.8730   11.8120 C.ar    2  TRP2        0.0015
     15  N         17.7340    1.7330    3.6140 N.3    59  ASN59      -0.1240
     16  CA        18.8510    2.5680    4.0590 C.3    59  ASN59       0.1653
     17  C         20.1130    1.7720    4.3880 C.2    59  ASN59       0.2266
     18  O         21.0590    2.3350    4.9380 O.2    59  ASN59      -0.2867
     19  CB        18.4730    3.4390    5.2480 C.3    59  ASN59       0.1155
     20  CG        18.0280    2.6020    6.4270 C.2    59  ASN59       0.2627
     21  OD1       18.3760    1.4350    6.5490 O.2    59  ASN59      -0.2716
     22  ND2       17.2240    3.2870    7.2330 N.am   59  ASN59      -0.0877
     23  N          8.6110    7.6560   11.2130 N.3    89  GLN89      -0.1245
     24  CA         8.9220    6.5230   10.3680 C.3    89  GLN89       0.1566
     25  C          8.6480    5.2340   11.1310 C.2    89  GLN89       0.2260
     26  O          8.6230    5.2770   12.3620 O.2    89  GLN89      -0.2867
     27  CB        10.3710    6.5130    9.8680 C.3    89  GLN89       0.0367
     28  CG        11.4600    6.5680   10.9160 C.3    89  GLN89       0.0905
     29  CD        12.2080    5.3220   11.2610 C.2    89  GLN89       0.2608
     30  OE1       11.6270    4.2270   11.1550 O.2    89  GLN89      -0.2717
     31  NE2       13.4430    5.5060   11.7280 N.am   89  GLN89      -0.0878
     32  N         10.1120    0.9830   10.8680 N.3    91  HIS91      -0.1241
     33  CA        10.9850   -0.0050   10.2600 C.3    91  HIS91       0.1621
     34  C         10.8960   -1.2800   11.0810 C.2    91  HIS91       0.2264
     35  O         10.2880   -1.3210   12.1290 O.2    91  HIS91      -0.2867
     36  CB        12.4290    0.5140   10.2010 C.3    91  HIS91       0.0745
     37  CG        12.9690    0.7700   11.5710 C.ar   91  HIS91       0.0817
     38  ND1       12.8130    1.9750   12.2060 N.ar   91  HIS91      -0.2268
     39  CD2       13.6100   -0.0390   12.4510 C.ar   91  HIS91       0.1154
     40  CE1       13.3700    1.9040   13.4010 C.ar   91  HIS91       0.1986
     41  NE2       13.8640    0.6450   13.5890 N.ar   91  HIS91      -0.2212
     42  N         13.2070   -4.9860   12.3920 N.3    93  HIS93      -0.1241
     43  CA        14.3970   -5.8030   12.5490 C.3    93  HIS93       0.1621
     44  C         13.9410   -7.2620   12.4270 C.2    93  HIS93       0.2264
     45  O         12.8750   -7.6180   12.9530 O.2    93  HIS93      -0.2867
     46  CB        15.1050   -5.5650   13.8880 C.3    93  HIS93       0.0745
     47  CG        15.4060   -4.1040   14.1520 C.ar   93  HIS93       0.0817
     48  ND1       16.6450   -3.5620   13.9620 N.ar   93  HIS93      -0.2268
     49  CD2       14.6010   -3.1140   14.5490 C.ar   93  HIS93       0.1154
     50  CE1       16.5760   -2.2650   14.2680 C.ar   93  HIS93       0.1986
     51  NE2       15.3280   -1.9580   14.6260 N.ar   93  HIS93      -0.2212
     52  N          9.3070   -1.1990   14.8340 N.3   116  HIS116     -0.1241
     53  CA         9.5590    0.0070   15.5680 C.3   116  HIS116      0.1621
     54  C          8.8730    1.1800   14.8590 C.2   116  HIS116      0.2264
     55  O          9.2530    1.5450   13.7530 O.2   116  HIS116     -0.2867
     56  CB        11.0590    0.2610   15.6030 C.3   116  HIS116      0.0745
     57  CG        11.7130   -0.7250   16.5340 C.ar  116  HIS116      0.0817
     58  ND1       13.0490   -0.9350   16.5270 N.ar  116  HIS116     -0.2268
     59  CD2       11.2410   -1.5010   17.5130 C.ar  116  HIS116      0.1154
     60  CE1       13.4100   -1.8080   17.4040 C.ar  116  HIS116      0.1986
     61  NE2       12.2880   -2.1770   18.0370 N.ar  116  HIS116     -0.2212
     62  N          8.5330    4.9980   15.2130 N.3   118  VAL118     -0.1245
     63  CA         9.3850    6.0050   15.7860 C.3   118  VAL118      0.1561
     64  C          8.6990    7.3700   15.8300 C.2   118  VAL118      0.2260
     65  O          8.2160    7.8110   14.8090 O.2   118  VAL118     -0.2867
     66  CB        10.7050    6.0970   15.0020 C.3   118  VAL118      0.0252
     67  CG1       11.6440    7.1330   15.6440 C.3   118  VAL118      0.0019
     68  CG2       11.3930    4.7730   14.8730 C.3   118  VAL118      0.0019
     69  N         12.9990   16.4860   14.7800 N.3   127  PHE127     -0.1227
     70  CA        13.6710   15.2530   15.2190 C.3   127  PHE127      0.1736
     71  C         15.1070   15.5070   15.6630 C.2   127  PHE127      0.2596
     72  O         15.5040   14.8980   16.6520 O.2   127  PHE127     -0.2718
     73  CB        13.6030   14.2690   14.0480 C.3   127  PHE127      0.0547
     74  CG        14.1920   12.9040   14.3510 C.ar  127  PHE127     -0.0202
     75  CD1       13.4310   11.8910   14.8890 C.ar  127  PHE127     -0.0042
     76  CD2       15.5260   12.6540   14.0900 C.ar  127  PHE127     -0.0042
     77  CE1       13.9490   10.6510   15.1730 C.ar  127  PHE127     -0.0003
     78  CE2       16.0790   11.4180   14.4060 C.ar  127  PHE127     -0.0003
     79  CZ        15.3020   10.4200   14.9740 C.ar  127  PHE127     -0.0000
     80  N         15.8400   16.3030   14.8540 N.am  128  GLY128     -0.1957
     81  CA        17.2270   16.5630   15.1990 C.3   128  GLY128      0.1869
     82  C         17.4580   17.1160   16.5730 C.2   128  GLY128      0.2309
     83  O         18.4320   16.8040   17.2570 O.2   128  GLY128     -0.2863
     84  N         16.5580   14.4540   19.4110 N.3   131  VAL131     -0.1245
     85  CA        17.6050   13.4840   19.7790 C.3   131  VAL131      0.1561
     86  C         18.7600   14.0870   20.5760 C.2   131  VAL131      0.2260
     87  O         19.7810   13.3900   20.7670 O.2   131  VAL131     -0.2867
     88  CB        18.1090   12.7290   18.5410 C.3   131  VAL131      0.0252
     89  CG1       16.9170   12.0200   17.8900 C.3   131  VAL131      0.0019
     90  CG2       18.8170   13.5860   17.5030 C.3   131  VAL131      0.0019
     91  N          9.4720    5.1610   21.0300 N.3   139  VAL139     -0.1245
     92  CA         9.3950    4.1070   20.0420 C.3   139  VAL139      0.1561
     93  C          8.3980    3.0780   20.5620 C.2   139  VAL139      0.2260
     94  O          8.5160    2.5830   21.6740 O.2   139  VAL139     -0.2867
     95  CB        10.7460    3.4590   19.6470 C.3   139  VAL139      0.0252
     96  CG1       10.5500    2.4410   18.5520 C.3   139  VAL139      0.0019
     97  CG2       11.6900    4.5920   19.2220 C.3   139  VAL139      0.0019
     98  N         18.3020    4.5360   21.1050 N.3   194  LEU194     -0.1231
     99  CA        18.3020    4.0110   19.7570 C.3   194  LEU194      0.1693
    100  C         19.0750    2.6760   19.7980 C.2   194  LEU194      0.2593
    101  O         20.0790    2.5660   20.5020 O.2   194  LEU194     -0.2718
    102  CB        19.0040    4.9410   18.7780 C.3   194  LEU194      0.0284
    103  CG        18.5150    6.3700   18.6640 C.3   194  LEU194      0.0019
    104  CD1       19.3770    7.1300   17.6620 C.3   194  LEU194      0.0001
    105  CD2       17.0310    6.4030   18.3030 C.3   194  LEU194      0.0001
    106  N         18.6420    1.7070   19.0130 N.am  195  THR195     -0.1939
    107  CA        19.3240    0.4240   18.9890 C.3   195  THR195      0.2028
    108  C         20.3260    0.3010   17.8610 C.2   195  THR195      0.2643
    109  O         20.9520   -0.7570   17.7290 O.2   195  THR195     -0.2714
    110  CB        18.3370   -0.7440   18.8700 C.3   195  THR195      0.1808
    111  OG1       17.7100   -0.6620   17.5800 O.3   195  THR195     -0.2208
    112  CG2       17.2740   -0.7230   19.9460 C.3   195  THR195      0.0379
    113  N         20.5260    1.3490   17.1030 N.am  196  THR196     -0.1937
    114  CA        21.6100    1.4580   16.1310 C.3   196  THR196      0.2013
    115  C         22.4390    2.7070   16.3960 C.2   196  THR196      0.2484
    116  O         21.9190    3.6550   16.9730 O.2   196  THR196     -0.2729
    117  CB        21.1100    1.5730   14.6780 C.3   196  THR196      0.1807
    118  OG1       20.1320    2.6100   14.5710 O.3   196  THR196     -0.2208
    119  CG2       20.4210    0.3120   14.2540 C.3   196  THR196      0.0379
    120  N         23.6770    2.7020   15.9710 N.am  197  PRO197     -0.2715
    121  CA        24.4470    3.9620   16.0440 C.3   197  PRO197      0.1521
    122  C         23.6850    5.1390   15.4600 C.2   197  PRO197      0.2440
    123  O         23.0900    4.9970   14.3820 O.2   197  PRO197     -0.2731
    124  CB        25.7170    3.5950   15.2540 C.3   197  PRO197      0.0310
    125  CG        25.8520    2.1090   15.4750 C.3   197  PRO197      0.0237
    126  CD        24.4590    1.5830   15.4280 C.3   197  PRO197      0.0939
    127  N         23.6560    6.2990   16.1060 N.am  198  PRO198     -0.2727
    128  CA        24.5160    6.6760   17.2210 C.3   198  PRO198      0.1402
    129  C         24.1050    6.2340   18.6160 C.2   198  PRO198      0.2269
    130  O         24.7500    6.7100   19.5820 O.2   198  PRO198     -0.2865
    131  CB        24.4900    8.2310   17.1100 C.3   198  PRO198      0.0296
    132  CG        23.1880    8.5800   16.4650 C.3   198  PRO198      0.0237
    133  CD        22.8210    7.4140   15.6020 C.3   198  PRO198      0.0939
    134  N         21.8620    6.8650   20.7410 N.3   200  LEU200     -0.1245
    135  CA        21.5590    7.9940   21.6280 C.3   200  LEU200      0.1561
    136  C         20.4600    7.6570   22.6390 C.2   200  LEU200      0.2260
    137  O         19.4760    7.0140   22.3260 O.2   200  LEU200     -0.2867
    138  CB        21.1490    9.2170   20.8230 C.3   200  LEU200      0.0270
    139  CG        22.2340    9.7510   19.8630 C.3   200  LEU200      0.0019
    140  CD1       21.6250   10.8050   18.9680 C.3   200  LEU200      0.0001
    141  CD2       23.4570   10.2530   20.6140 C.3   200  LEU200      0.0001
    142  N         15.1790    7.6970   24.2540 N.3   203  VAL203     -0.1245
    143  CA        13.9660    6.9810   23.9140 C.3   203  VAL203      0.1561
    144  C         13.1920    6.5150   25.1500 C.2   203  VAL203      0.2260
    145  O         13.7630    5.9100   26.0380 O.2   203  VAL203     -0.2867
    146  CB        14.2520    5.7480   23.0420 C.3   203  VAL203      0.0252
    147  CG1       12.9670    5.0760   22.6080 C.3   203  VAL203      0.0019
    148  CG2       15.0750    6.1240   21.8070 C.3   203  VAL203      0.0019
    149  N         10.7600    3.7110   25.5840 N.3   205  TRP205     -0.1241
    150  CA        10.3370    2.5090   24.8840 C.3   205  TRP205      0.1605
    151  C          8.9690    2.0780   25.3840 C.2   205  TRP205      0.2264
    152  O          8.7890    2.0550   26.6010 O.2   205  TRP205     -0.2867
    153  CB        11.3630    1.3580   25.0920 C.3   205  TRP205      0.0550
    154  CG        12.4810    1.5190   24.0830 C.ar  205  TRP205      0.0003
    155  CD1       13.6970    2.1110   24.2810 C.ar  205  TRP205      0.0946
    156  CD2       12.4350    1.0790   22.7140 C.ar  205  TRP205      0.0152
    157  NE1       14.3940    2.0530   23.0890 N.ar  205  TRP205     -0.2442
    158  CE2       13.6630    1.4370   22.1290 C.ar  205  TRP205      0.0810
    159  CE3       11.4460    0.4100   21.9570 C.ar  205  TRP205      0.0012
    160  CZ2       13.9470    1.1530   20.7800 C.ar  205  TRP205      0.0191
    161  CZ3       11.7490    0.1430   20.6460 C.ar  205  TRP205      0.0001
    162  CH2       12.9650    0.5020   20.0990 C.ar  205  TRP205      0.0015
@<TRIPOS>BOND
     1    15    16    1
     2    16    17    1
     3    16    19    1
     4    17    18    2
     5    19    20    1
     6    20    21    2
     7    20    22   am
     8     4     3    2
     9    27    24    1
    10    27    28    1
    11    36    33    1
    12    36    37    1
    13    33    32    1
    14    33    34    1
    15    24    25    1
    16    24    23    1
    17     1     2    1
    18     3     2    1
    19    28    29    1
    20    34    35    2
    21    25    26    2
    22    30    29    2
    23    29    31   am
    24     2     5    1
    25    37    38   ar
    26    37    39   ar
    27    12    10   ar
    28    12    14   ar
    29     9    10   ar
    30     9     7   ar
    31    10     8   ar
    32    14    13   ar
    33     7     6   ar
    34     8     6   ar
    35     8    11   ar
    36    13    11   ar
    37    38    40   ar
    38     6     5    1
    39    42    43    1
    40    44    43    1
    41    44    45    2
    42    39    41   ar
    43    43    46    1
    44    40    41   ar
    45    55    54    2
    46    46    47    1
    47    48    47   ar
    48    48    50   ar
    49    73    74    1
    50    73    70    1
    51    76    74   ar
    52    76    78   ar
    53    47    49   ar
    54   119   117    1
    55    50    51   ar
    56    74    75   ar
    57   123   122    2
    58    78    79   ar
    59    49    51   ar
    60   118   117    1
    61   117   114    1
    62    69    70    1
    63    65    64    2
    64    52    53    1
    65    80    81    1
    66    80    71   am
    67    54    53    1
    68    68    66    1
    69    75    77   ar
    70    79    77   ar
    71    66    67    1
    72    66    63    1
    73    81    82    1
    74    62    63    1
    75    70    71    1
    76   124   125    1
    77   124   121    1
    78   126   125    1
    79   126   120    1
    80   122   121    1
    81   122   127   am
    82    53    56    1
    83   133   127    1
    84   133   132    1
    85    56    57    1
    86    71    72    2
    87    63    64    1
    88   120   121    1
    89   120   115   am
    90   127   128    1
    91   114   115    1
    92   114   113    1
    93   115   116    2
    94   132   131    1
    95    58    57   ar
    96    58    60   ar
    97    57    59   ar
    98    82    83    2
    99   113   108   am
   100   131   128    1
   101   128   129    1
   102    60    61   ar
   103    90    88    1
   104    59    61   ar
   105   111   110    1
   106   104   103    1
   107   109   108    2
   108   108   107    1
   109    89    88    1
   110   105   103    1
   111    88    85    1
   112    96    95    1
   113   129   130    2
   114   103   102    1
   115   102    99    1
   116   110   107    1
   117   110   112    1
   118   140   139    1
   119   107   106    1
   120   106   100   am
   121    97    95    1
   122    84    85    1
   123    95    92    1
   124    99   100    1
   125    99    98    1
   126    85    86    1
   127   100   101    2
   128   139   141    1
   129   139   138    1
   130    92    93    1
   131    92    91    1
   132   162   161   ar
   133   162   160   ar
   134    93    94    2
   135    86    87    2
   136   161   159   ar
   137   134   135    1
   138   160   158   ar
   139   138   135    1
   140   135   136    1
   141   148   146    1
   142   159   156   ar
   143   158   156   ar
   144   158   157   ar
   145   137   136    2
   146   147   146    1
   147   156   154   ar
   148   146   143    1
   149   157   155   ar
   150   143   142    1
   151   143   144    1
   152   154   155   ar
   153   154   153    1
   154   150   153    1
   155   150   151    1
   156   150   149    1
   157   144   145    2
   158   151   152    2
