@<TRIPOS>MOLECULE
tmp/3knxA00.pdb
 157 151 0 0 0
SMALL
GASTEIGER

@<TRIPOS>ATOM
      1  N        207.4990   -5.4330   52.3910 N.3    41  GLN41      -0.1231
      2  CA       206.4680   -4.5100   51.9380 C.3    41  GLN41       0.1698
      3  C        206.2990   -3.2640   52.7990 C.2    41  GLN41       0.2593
      4  O        206.9500   -3.1100   53.8360 O.2    41  GLN41      -0.2718
      5  CB       205.1430   -5.2600   51.8680 C.3    41  GLN41       0.0381
      6  CG       204.7980   -5.9800   53.1560 C.3    41  GLN41       0.0905
      7  CD       203.5550   -6.8160   53.0250 C.2    41  GLN41       0.2608
      8  OE1      202.6510   -6.4680   52.2900 O.2    41  GLN41      -0.2717
      9  NE2      203.5060   -7.9310   53.7390 N.am   41  GLN41      -0.0878
     10  N        205.4030   -2.3850   52.3590 N.am   42  THR42      -0.1939
     11  CA       205.0970   -1.1490   53.0620 C.3    42  THR42       0.2028
     12  C        203.5810   -0.9900   53.1360 C.2    42  THR42       0.2642
     13  O        202.8530   -1.3880   52.2210 O.2    42  THR42      -0.2714
     14  CB       205.7350    0.0790   52.3840 C.3    42  THR42       0.1808
     15  OG1      205.1620    1.2710   52.9280 O.3    42  THR42      -0.2208
     16  CG2      205.4730    0.0630   50.9040 C.3    42  THR42       0.0379
     17  N        203.1110   -0.4230   54.2370 N.am   43  PHE43      -0.1973
     18  CA       201.6910   -0.2450   54.4570 C.3    43  PHE43       0.1639
     19  C        201.4770    0.8200   55.5150 C.2    43  PHE43       0.2290
     20  O        202.3340    1.6850   55.7120 O.2    43  PHE43      -0.2864
     21  CB       200.9970   -1.5880   54.8300 C.3    43  PHE43       0.0560
     22  CG       201.7510   -2.4450   55.8370 C.ar   43  PHE43      -0.0200
     23  CD1      202.9620   -3.0470   55.5050 C.ar   43  PHE43      -0.0042
     24  CD2      201.2560   -2.6240   57.1290 C.ar   43  PHE43      -0.0042
     25  CE1      203.6600   -3.8230   56.4420 C.ar   43  PHE43      -0.0003
     26  CE2      201.9500   -3.4040   58.0740 C.ar   43  PHE43      -0.0003
     27  CZ       203.1560   -3.9920   57.7250 C.ar   43  PHE43      -0.0000
     28  N        197.7730   -4.1210   60.2470 N.3    55  VAL55      -0.1245
     29  CA       197.2620   -5.3990   59.8000 C.3    55  VAL55       0.1561
     30  C        198.3090   -6.5060   60.0150 C.2    55  VAL55       0.2260
     31  O        199.4690   -6.3680   59.6130 O.2    55  VAL55      -0.2867
     32  CB       196.8040   -5.2840   58.3290 C.3    55  VAL55       0.0252
     33  CG1      197.9910   -5.3030   57.3920 C.3    55  VAL55       0.0019
     34  CG2      195.8000   -6.3500   57.9870 C.3    55  VAL55       0.0019
     35  N        198.8380   -9.4540   58.6750 N.3    57  HIS57      -0.1241
     36  CA       199.4480  -10.0200   57.4740 C.3    57  HIS57       0.1621
     37  C        200.4980   -9.0940   56.8460 C.2    57  HIS57       0.2264
     38  O        200.8280   -9.2150   55.6610 O.2    57  HIS57      -0.2867
     39  CB       198.3690  -10.4220   56.4500 C.3    57  HIS57       0.0745
     40  CG       197.6260   -9.2730   55.8390 C.ar   57  HIS57       0.0817
     41  ND1      196.2790   -9.0670   56.0480 N.ar   57  HIS57      -0.2268
     42  CD2      198.0180   -8.3140   54.9670 C.ar   57  HIS57       0.1154
     43  CE1      195.8740   -8.0320   55.3340 C.ar   57  HIS57       0.1986
     44  NE2      196.9110   -7.5600   54.6660 N.ar   57  HIS57      -0.2212
     45  N        193.4240  -10.8110   62.5400 N.3    81  ASP81      -0.1239
     46  CA       194.3650  -10.2380   61.5820 C.3    81  ASP81       0.1674
     47  C        194.8150   -8.8740   62.0730 C.2    81  ASP81       0.2266
     48  O        194.8960   -7.9210   61.2970 O.2    81  ASP81      -0.2867
     49  CB       193.7400  -10.1240   60.1880 C.3    81  ASP81       0.1410
     50  CG       194.7780   -9.9650   59.0900 C.2    81  ASP81       0.3668
     51  OD1      195.8340  -10.6410   59.1380 O.co2  81  ASP81      -0.2456
     52  OD2      194.5290   -9.1780   58.1610 O.co2  81  ASP81      -0.2456
     53  N        182.4740   -4.7550   55.0870 N.3   123  ARG123     -0.1245
     54  CA       182.5190   -4.3740   53.6870 C.3   123  ARG123      0.1563
     55  C        181.9980   -2.9830   53.4630 C.2   123  ARG123      0.2260
     56  O        181.2620   -2.4400   54.2820 O.2   123  ARG123     -0.2867
     57  CB       181.7240   -5.3450   52.8250 C.3   123  ARG123      0.0307
     58  CG       182.2440   -6.7610   52.8130 C.3   123  ARG123      0.0489
     59  CD       183.6750   -6.8480   52.3060 C.3   123  ARG123      0.2205
     60  NE       184.0600   -8.2330   52.0340 N.pl3 123  ARG123     -0.0865
     61  CZ       183.7020   -8.8960   50.9390 C.cat 123  ARG123      0.5346
     62  NH1      182.9560   -8.3050   50.0020 N.pl3 123  ARG123      0.1354
     63  NH2      184.0810  -10.1550   50.7780 N.pl3 123  ARG123      0.1354
     64  N        193.5370   -1.7520   41.8370 N.3   132  ILE132     -0.1245
     65  CA       194.2270   -2.2520   43.0240 C.3   132  ILE132      0.1561
     66  C        195.6310   -1.6980   43.2780 C.2   132  ILE132      0.2260
     67  O        196.0500   -1.5810   44.4280 O.2   132  ILE132     -0.2867
     68  CB       194.2760   -3.7860   43.0370 C.3   132  ILE132      0.0252
     69  CG1      195.0570   -4.3050   41.8290 C.3   132  ILE132      0.0019
     70  CG2      192.8670   -4.3360   43.0240 C.3   132  ILE132      0.0019
     71  CD1      195.2260   -5.8050   41.8020 C.3   132  ILE132      0.0001
     72  N        195.3730    1.1140   45.6900 N.3   135  LEU135     -0.1231
     73  CA       195.1240    0.6700   47.0570 C.3   135  LEU135      0.1693
     74  C        196.3010   -0.0400   47.7220 C.2   135  LEU135      0.2592
     75  O        196.2920   -0.2310   48.9350 O.2   135  LEU135     -0.2718
     76  CB       193.8980   -0.2450   47.0820 C.3   135  LEU135      0.0284
     77  CG       192.5320    0.3060   47.5020 C.3   135  LEU135      0.0019
     78  CD1      192.4950    1.8090   47.5090 C.3   135  LEU135      0.0001
     79  CD2      191.4750   -0.2560   46.5920 C.3   135  LEU135      0.0001
     80  N        197.2970   -0.4510   46.9440 N.am  136  LYS136     -0.1966
     81  CA       198.4550   -1.1230   47.5180 C.3   136  LYS136      0.1728
     82  C        199.1380   -0.2060   48.5220 C.2   136  LYS136      0.2617
     83  O        199.2270    1.0130   48.3180 O.2   136  LYS136     -0.2715
     84  CB       199.4470   -1.5330   46.4390 C.3   136  LYS136      0.0311
     85  CG       198.9980   -2.6890   45.5790 C.3   136  LYS136      0.0038
     86  CD       200.0970   -3.0940   44.6030 C.3   136  LYS136      0.0206
     87  CE       199.7830   -4.4120   43.9170 C.3   136  LYS136      0.1093
     88  NZ       198.5240   -4.3260   43.1270 N.3   136  LYS136     -0.1314
     89  N        199.5620   -0.7980   49.6340 N.am  137  GLY137     -0.1940
     90  CA       200.2140   -0.0410   50.6850 C.3   137  GLY137      0.2014
     91  C        199.2500    0.6390   51.6380 C.2   137  GLY137      0.2640
     92  O        199.6820    1.2730   52.5910 O.2   137  GLY137     -0.2714
     93  N        197.9510    0.4900   51.4120 N.am  138  SER138     -0.1935
     94  CA       196.9580    1.1190   52.2830 C.3   138  SER138      0.2055
     95  C        196.4080    0.2250   53.4060 C.2   138  SER138      0.2643
     96  O        195.5530    0.6600   54.1740 O.2   138  SER138     -0.2714
     97  CB       195.8140    1.7090   51.4470 C.3   138  SER138      0.2130
     98  OG       196.2800    2.7800   50.6220 O.3   138  SER138     -0.2179
     99  N        196.9460   -0.9900   53.5450 N.am  139  SER139     -0.1949
    100  CA       196.4920   -1.9330   54.5730 C.3   139  SER139      0.1924
    101  C        196.8860   -1.4500   55.9510 C.2   139  SER139      0.2314
    102  O        198.0550   -1.1490   56.2060 O.2   139  SER139     -0.2863
    103  CB       197.0770   -3.3220   54.3390 C.3   139  SER139      0.2116
    104  OG       196.5120   -3.8360   53.1650 O.3   139  SER139     -0.2180
    105  N        191.5150   -0.7520   56.9080 N.3   154  PHE154     -0.1227
    106  CA       191.5200   -1.3910   55.5980 C.3   154  PHE154      0.1736
    107  C        192.3320   -2.6790   55.6450 C.2   154  PHE154      0.2595
    108  O        193.5040   -2.6590   56.0120 O.2   154  PHE154     -0.2718
    109  CB       192.1250   -0.4420   54.5630 C.3   154  PHE154      0.0547
    110  CG       192.1730   -1.0010   53.1670 C.ar  154  PHE154     -0.0202
    111  CD1      191.0440   -1.5200   52.5710 C.ar  154  PHE154     -0.0042
    112  CD2      193.3550   -0.9900   52.4410 C.ar  154  PHE154     -0.0042
    113  CE1      191.0910   -1.9960   51.2840 C.ar  154  PHE154     -0.0003
    114  CE2      193.4020   -1.4690   51.1450 C.ar  154  PHE154     -0.0003
    115  CZ       192.2750   -1.9750   50.5720 C.ar  154  PHE154     -0.0000
    116  N        191.7400   -3.7800   55.1920 N.am  155  ARG155     -0.1966
    117  CA       192.4270   -5.0650   55.2150 C.3   155  ARG155      0.1729
    118  C        192.7130   -5.6600   53.8420 C.2   155  ARG155      0.2616
    119  O        193.8470   -6.0400   53.5210 O.2   155  ARG155     -0.2715
    120  CB       191.6320   -6.0700   56.0360 C.3   155  ARG155      0.0348
    121  CG       192.2770   -7.4220   56.0450 C.3   155  ARG155      0.0492
    122  CD       191.4730   -8.4580   56.7750 C.3   155  ARG155      0.2205
    123  NE       192.1550   -9.7380   56.6480 N.pl3 155  ARG155     -0.0865
    124  CZ       191.8440  -10.6740   55.7590 C.cat 155  ARG155      0.5346
    125  NH1      190.8370  -10.4950   54.9110 N.pl3 155  ARG155      0.1354
    126  NH2      192.6000  -11.7610   55.6690 N.pl3 155  ARG155      0.1354
    127  N        191.6690   -5.7600   53.0400 N.am  156  ALA156     -0.1963
    128  CA       191.8040   -6.3380   51.7170 C.3   156  ALA156      0.1728
    129  C        190.9250   -5.5930   50.7410 C.2   156  ALA156      0.2616
    130  O        190.0070   -4.8560   51.1390 O.2   156  ALA156     -0.2715
    131  CB       191.4230   -7.8050   51.7440 C.3   156  ALA156      0.0334
    132  N        191.2070   -5.7860   49.4610 N.am  157  ALA157     -0.1963
    133  CA       190.4360   -5.1360   48.4230 C.3   157  ALA157      0.1728
    134  C        189.5550   -6.1530   47.7160 C.2   157  ALA157      0.2616
    135  O        189.9780   -7.2820   47.4910 O.2   157  ALA157     -0.2715
    136  CB       191.3670   -4.4730   47.4340 C.3   157  ALA157      0.0334
    137  N        188.2990   -5.7900   47.4630 N.am  158  VAL158     -0.1963
    138  CA       187.3760   -6.6610   46.7390 C.3   158  VAL158      0.1727
    139  C        187.5160   -6.2140   45.2850 C.2   158  VAL158      0.2616
    140  O        186.8940   -5.2400   44.8540 O.2   158  VAL158     -0.2715
    141  CB       185.9140   -6.4910   47.2060 C.3   158  VAL158      0.0290
    142  CG1      185.0390   -7.5270   46.5320 C.3   158  VAL158      0.0023
    143  CG2      185.8090   -6.6320   48.7090 C.3   158  VAL158      0.0023
    144  N        188.3740   -6.9150   44.5550 N.am  159  CYS159     -0.1968
    145  CA       188.6850   -6.5910   43.1720 C.3   159  CYS159      0.1712
    146  C        188.4500   -7.6910   42.1440 C.2   159  CYS159      0.2296
    147  O        188.4400   -8.8840   42.4670 O.2   159  CYS159     -0.2864
    148  CB       190.1530   -6.2150   43.1110 C.3   159  CYS159      0.0983
    149  SG       191.1510   -7.4650   43.9470 S.3   159  CYS159     -0.0798
    150  N        187.3490   -4.7720   52.1340 N.3   168  ASP168     -0.1239
    151  CA       187.1050   -5.5390   53.3420 C.3   168  ASP168      0.1674
    152  C        187.9300   -4.8980   54.4620 C.2   168  ASP168      0.2266
    153  O        189.1310   -4.6530   54.2910 O.2   168  ASP168     -0.2867
    154  CB       187.5420   -6.9840   53.1420 C.3   168  ASP168      0.1410
    155  CG       187.4380   -7.7930   54.4090 C.2   168  ASP168      0.3668
    156  OD1      188.4870   -8.1560   54.9840 O.co2 168  ASP168     -0.2456
    157  OD2      186.2980   -8.0570   54.8390 O.co2 168  ASP168     -0.2456
@<TRIPOS>BOND
     1    71    69    1
     2    69    68    1
     3    64    65    1
     4   146   147    2
     5   146   145    1
     6    65    68    1
     7    65    66    1
     8    70    68    1
     9   148   145    1
    10   148   149    1
    11    88    87    1
    12   145   144    1
    13    66    67    2
    14    87    86    1
    15   144   139   am
    16    86    85    1
    17   140   139    2
    18   139   138    1
    19    85    84    1
    20    72    73    1
    21    84    81    1
    22   142   141    1
    23    79    77    1
    24   138   141    1
    25   138   137    1
    26    80    81    1
    27    80    74   am
    28    73    76    1
    29    73    74    1
    30    76    77    1
    31   141   143    1
    32   136   133    1
    33   137   134   am
    34   135   134    2
    35    77    78    1
    36    81    82    1
    37   134   133    1
    38    74    75    2
    39    83    82    2
    40   133   132    1
    41    82    89   am
    42   132   129   am
    43    89    90    1
    44    62    61    1
    45   115   114   ar
    46   115   113   ar
    47    98    97    1
    48    90    91    1
    49   129   130    2
    50   129   128    1
    51    63    61    1
    52    16    14    1
    53    61    60    2
    54   114   112   ar
    55   113   111   ar
    56    93    91   am
    57    93    94    1
    58    97    94    1
    59    91    92    2
    60   128   131    1
    61   128   127    1
    62     5     2    1
    63     5     6    1
    64     2     1    1
    65     2     3    1
    66    60    59    1
    67   150   151    1
    68    13    12    2
    69    94    95    1
    70     8     7    2
    71    59    58    1
    72    10     3   am
    73    10    11    1
    74    14    15    1
    75    14    11    1
    76   112   110   ar
    77   111   110   ar
    78     3     4    2
    79    58    57    1
    80    57    54    1
    81     7     6    1
    82     7     9   am
    83   127   118   am
    84    11    12    1
    85    12    17   am
    86   154   151    1
    87   154   155    1
    88   104   103    1
    89   110   109    1
    90   151   152    1
    91    95    99   am
    92    95    96    2
    93    55    54    1
    94    55    56    2
    95   119   118    2
    96    99   100    1
    97    54    53    1
    98   118   117    1
    99    17    18    1
   100   153   152    2
   101   103   100    1
   102   155   157   ar
   103   155   156   ar
   104    18    21    1
   105    18    19    1
   106   109   106    1
   107   100   101    1
   108    44    42   ar
   109    44    43   ar
   110    21    22    1
   111   125   124    1
   112    42    40   ar
   113   116   117    1
   114   116   107   am
   115   117   120    1
   116    43    41   ar
   117    23    22   ar
   118    23    25   ar
   119    19    20    2
   120   106   107    1
   121   106   105    1
   122   107   108    2
   123    38    37    2
   124   126   124    1
   125   124   123    2
   126    22    24   ar
   127    40    41   ar
   128    40    39    1
   129   101   102    2
   130   120   121    1
   131   121   122    1
   132    25    27   ar
   133    39    36    1
   134   123   122    1
   135    37    36    1
   136    24    26   ar
   137    33    32    1
   138    36    35    1
   139    27    26   ar
   140    34    32    1
   141    52    50   ar
   142    32    29    1
   143    50    51   ar
   144    50    49    1
   145    31    30    2
   146    29    30    1
   147    29    28    1
   148    49    46    1
   149    48    47    2
   150    46    47    1
   151    46    45    1
