@<TRIPOS>MOLECULE
tmp/3ko6A00.pdb
 129 122 0 0 0
SMALL
GASTEIGER

@<TRIPOS>ATOM
      1  N         33.1960    7.0010    0.2000 N.3    63  TRP63      -0.1241
      2  CA        34.3430    7.8910    0.4060 C.3    63  TRP63       0.1605
      3  C         34.3260    8.4720    1.8080 C.2    63  TRP63       0.2264
      4  O         33.2570    8.7870    2.3390 O.2    63  TRP63      -0.2867
      5  CB        34.3400    9.0460   -0.5950 C.3    63  TRP63       0.0550
      6  CG        35.6990    9.4420   -1.0390 C.ar   63  TRP63       0.0003
      7  CD1       36.4820    8.7630   -1.9040 C.ar   63  TRP63       0.0946
      8  CD2       36.4360   10.6130   -0.6570 C.ar   63  TRP63       0.0152
      9  NE1       37.6770    9.4250   -2.0880 N.ar   63  TRP63      -0.2442
     10  CE2       37.6740   10.5640   -1.3280 C.ar   63  TRP63       0.0810
     11  CE3       36.1770   11.6930    0.1970 C.ar   63  TRP63       0.0012
     12  CZ2       38.6470   11.5660   -1.1980 C.ar   63  TRP63       0.0191
     13  CZ3       37.1620   12.6930    0.3380 C.ar   63  TRP63       0.0001
     14  CH2       38.3750   12.6140   -0.3590 C.ar   63  TRP63       0.0015
     15  N         39.9580   17.4350    2.1930 N.3    67  TYR67      -0.1241
     16  CA        40.6540   18.3680    1.2970 C.3    67  TYR67       0.1605
     17  C         41.2800   19.4050    2.2010 C.2    67  TYR67       0.2264
     18  O         40.7660   19.6690    3.2940 O.2    67  TYR67      -0.2867
     19  CB        39.6880   19.0260    0.3050 C.3    67  TYR67       0.0534
     20  CG        39.3110   18.0970   -0.8060 C.ar   67  TYR67      -0.0201
     21  CD1       38.4480   17.0230   -0.5740 C.ar   67  TYR67      -0.0009
     22  CD2       39.8530   18.2590   -2.0840 C.ar   67  TYR67      -0.0009
     23  CE1       38.1280   16.1380   -1.5810 C.ar   67  TYR67       0.0417
     24  CE2       39.5470   17.3860   -3.0970 C.ar   67  TYR67       0.0417
     25  CZ        38.6780   16.3250   -2.8440 C.ar   67  TYR67       0.1957
     26  OH        38.3490   15.4480   -3.8620 O.3    67  TYR67      -0.2866
     27  N         39.9230   10.2060   -6.2710 N.3    87  ALA87      -0.1245
     28  CA        39.0990   11.3980   -6.1360 C.3    87  ALA87       0.1562
     29  C         39.6930   12.6110   -6.8410 C.2    87  ALA87       0.2260
     30  O         40.8580   12.5950   -7.2610 O.2    87  ALA87      -0.2867
     31  CB        38.8690   11.7080   -4.6650 C.3    87  ALA87       0.0290
     32  N         39.8020   21.5030   -5.9040 N.3    91  ILE91      -0.1245
     33  CA        38.4720   22.0900   -5.9040 C.3    91  ILE91       0.1561
     34  C         38.5900   23.5350   -5.4740 C.2    91  ILE91       0.2260
     35  O         39.1470   23.8200   -4.4070 O.2    91  ILE91      -0.2867
     36  CB        37.5130   21.3220   -4.9520 C.3    91  ILE91       0.0252
     37  CG1       37.4410   19.8450   -5.3470 C.3    91  ILE91       0.0019
     38  CG2       36.1400   21.9440   -4.9590 C.3    91  ILE91       0.0019
     39  CD1       36.5350   19.0190   -4.4920 C.3    91  ILE91       0.0001
     40  N         32.9200   26.0950   -5.1370 N.3    95  LYS95      -0.1231
     41  CA        32.5290   25.0610   -6.1030 C.3    95  LYS95       0.1693
     42  C         32.1660   23.7240   -5.4780 C.2    95  LYS95       0.2593
     43  O         32.9520   23.1440   -4.7240 O.2    95  LYS95      -0.2718
     44  CB        33.6280   24.8510   -7.1580 C.3    95  LYS95       0.0285
     45  CG        33.8620   26.0440   -8.0880 C.3    95  LYS95       0.0035
     46  CD        32.6110   26.4260   -8.8760 C.3    95  LYS95       0.0206
     47  CE        32.9000   27.5270   -9.9170 C.3    95  LYS95       0.1093
     48  NZ        33.4160   28.7890   -9.3070 N.3    95  LYS95      -0.1314
     49  N         30.9780   23.2290   -5.8250 N.am   96  GLY96      -0.1942
     50  CA        30.4950   21.9370   -5.3260 C.3    96  GLY96       0.2014
     51  C         30.3150   21.9100   -3.8080 C.2    96  GLY96       0.2639
     52  O         30.5270   22.9130   -3.1260 O.2    96  GLY96      -0.2714
     53  N         29.9300   20.7680   -3.2600 N.am   97  VAL97      -0.1963
     54  CA        29.6820   20.6890   -1.8300 C.3    97  VAL97       0.1727
     55  C         30.9240   21.0630   -1.0200 C.2    97  VAL97       0.2616
     56  O         30.8230   21.8870   -0.1220 O.2    97  VAL97      -0.2715
     57  CB        29.1370   19.3280   -1.4110 C.3    97  VAL97       0.0290
     58  CG1       28.6850   19.3820    0.0450 C.3    97  VAL97       0.0023
     59  CG2       27.9780   18.9190   -2.3210 C.3    97  VAL97       0.0023
     60  N         32.0870   20.5010   -1.3650 N.am   98  CYS98      -0.1968
     61  CA        33.3540   20.8000   -0.6650 C.3    98  CYS98       0.1712
     62  C         33.7460   22.2730   -0.6930 C.2    98  CYS98       0.2296
     63  O         34.0120   22.8590    0.3580 O.2    98  CYS98      -0.2864
     64  CB        34.4980   19.9450   -1.1900 C.3    98  CYS98       0.0983
     65  SG        34.3780   18.2160   -0.6760 S.3    98  CYS98      -0.0798
     66  N         27.3850   20.3220   -8.1980 N.3   119  HIS119     -0.1226
     67  CA        27.9860   19.1310   -7.6190 C.3   119  HIS119      0.1752
     68  C         29.1730   18.6180   -8.4300 C.2   119  HIS119      0.2595
     69  O         29.0810   18.4300   -9.6500 O.2   119  HIS119     -0.2718
     70  CB        26.9490   18.0170   -7.4850 C.3   119  HIS119      0.0759
     71  CG        27.4950   16.7590   -6.8890 C.ar  119  HIS119      0.0818
     72  ND1       27.6550   15.5980   -7.6140 N.ar  119  HIS119     -0.2268
     73  CD2       27.9350   16.4860   -5.6390 C.ar  119  HIS119      0.1154
     74  CE1       28.1640   14.6620   -6.8350 C.ar  119  HIS119      0.1986
     75  NE2       28.3480   15.1760   -5.6320 N.ar  119  HIS119     -0.2212
     76  N         30.2850   18.3900   -7.7370 N.am  120  ILE120     -0.1980
     77  CA        31.4710   17.8300   -8.3520 C.3   120  ILE120      0.1595
     78  C         31.5500   16.3520   -8.0010 C.2   120  ILE120      0.2287
     79  O         31.9750   15.9840   -6.9150 O.2   120  ILE120     -0.2864
     80  CB        32.7590   18.6040   -7.9710 C.3   120  ILE120      0.0276
     81  CG1       32.5720   20.1010   -8.2560 C.3   120  ILE120      0.0022
     82  CG2       33.9840   18.0280   -8.7290 C.3   120  ILE120      0.0022
     83  CD1       33.8450   20.9280   -8.2460 C.3   120  ILE120      0.0001
     84  N         33.1250   13.0240   -7.9500 N.3   122  CYS122     -0.1221
     85  CA        34.3950   12.3340   -8.1280 C.3   122  CYS122      0.1808
     86  C         34.1440   10.8430   -8.2880 C.2   122  CYS122      0.2601
     87  O         34.9150   10.1370   -8.9340 O.2   122  CYS122     -0.2717
     88  CB        35.3550   12.6420   -6.9870 C.3   122  CYS122      0.0970
     89  SG        35.5890   14.3980   -6.7110 S.3   122  CYS122     -0.0800
     90  N         33.0360   10.3890   -7.7080 N.am  123  ASP123     -0.1973
     91  CA        32.5640    9.0210   -7.8410 C.3   123  ASP123      0.1709
     92  C         31.1260    9.0990   -8.3460 C.2   123  ASP123      0.2293
     93  O         30.2600    9.6720   -7.6870 O.2   123  ASP123     -0.2864
     94  CB        32.6580    8.2950   -6.4930 C.3   123  ASP123      0.1436
     95  CG        32.2580    6.8290   -6.5690 C.2   123  ASP123      0.3671
     96  OD1       31.6140    6.3920   -7.5450 O.co2 123  ASP123     -0.2456
     97  OD2       32.5920    6.0930   -5.6210 O.co2 123  ASP123     -0.2456
     98  N         27.9460    7.9850   -6.0760 N.3   126  THR126     -0.1218
     99  CA        27.5830    8.7600   -4.8890 C.3   126  THR126      0.1862
    100  C         26.2040    9.3580   -5.0300 C.2   126  THR126      0.2287
    101  O         25.9530   10.0770   -5.9980 O.2   126  THR126     -0.2866
    102  CB        28.5680    9.9200   -4.6660 C.3   126  THR126      0.1770
    103  OG1       29.8950    9.4070   -4.4800 O.3   126  THR126     -0.2211
    104  CG2       28.1640   10.7280   -3.4560 C.3   126  THR126      0.0375
    105  N         25.9090   13.1250    0.4450 N.3   129  GLU129     -0.1245
    106  CA        27.1920   13.6590    0.9040 C.3   129  GLU129      0.1567
    107  C         27.0670   14.5880    2.1020 C.2   129  GLU129      0.2260
    108  O         26.0970   15.3240    2.2190 O.2   129  GLU129     -0.2867
    109  CB        27.8800   14.4000   -0.2520 C.3   129  GLU129      0.0388
    110  CG        29.3410   14.7450    0.0030 C.3   129  GLU129      0.1160
    111  CD        30.0700   15.3450   -1.1910 C.2   129  GLU129      0.3649
    112  OE1       31.2780   15.6340   -1.0360 O.co2 129  GLU129     -0.2457
    113  OE2       29.4610   15.5290   -2.2710 O.co2 129  GLU129     -0.2457
    114  N         35.0560   15.3740    4.3880 N.3   146  ASP146     -0.1239
    115  CA        34.0810   14.9690    3.3840 C.3   146  ASP146      0.1674
    116  C         33.7610   13.4830    3.4700 C.2   146  ASP146      0.2266
    117  O         34.6680   12.6370    3.6100 O.2   146  ASP146     -0.2867
    118  CB        34.6540   15.2880    2.0130 C.3   146  ASP146      0.1410
    119  CG        33.6640   15.0550    0.8920 C.2   146  ASP146      0.3668
    120  OD1       32.4780   14.7860    1.1810 O.co2 146  ASP146     -0.2456
    121  OD2       34.0750   15.1490   -0.2790 O.co2 146  ASP146     -0.2456
    122  N         31.0610   10.5560    1.4680 N.3   148  ASP148     -0.1239
    123  CA        30.0660   10.2200    0.4590 C.3   148  ASP148      0.1674
    124  C         29.3340    8.9220    0.7750 C.2   148  ASP148      0.2266
    125  O         29.9380    7.9590    1.2760 O.2   148  ASP148     -0.2867
    126  CB        30.7450   10.0410   -0.8930 C.3   148  ASP148      0.1410
    127  CG        31.3650   11.3110   -1.4190 C.2   148  ASP148      0.3668
    128  OD1       31.1200   12.4030   -0.8790 O.co2 148  ASP148     -0.2456
    129  OD2       32.1020   11.2110   -2.3990 O.co2 148  ASP148     -0.2456
@<TRIPOS>BOND
     1    47    48    1
     2    47    46    1
     3    69    68    2
     4    87    86    2
     5    46    45    1
     6    82    80    1
     7    68    76   am
     8    68    67    1
     9    77    78    1
    10    77    80    1
    11    77    76    1
    12    92    91    1
    13    92    93    2
    14    86    85    1
    15    86    90   am
    16    81    83    1
    17    81    80    1
    18    66    67    1
    19    85    84    1
    20    85    88    1
    21    45    44    1
    22    78    79    2
    23    91    90    1
    24    91    94    1
    25    67    70    1
    26    72    71   ar
    27    72    74   ar
    28    96    95   ar
    29    70    71    1
    30    30    29    2
    31    44    41    1
    32    88    89    1
    33    71    73   ar
    34    29    28    1
    35    74    75   ar
    36    95    94    1
    37    95    97   ar
    38    27    28    1
    39    28    31    1
    40    41    42    1
    41    41    40    1
    42    98    99    1
    43   101   100    2
    44    32    33    1
    45    33    34    1
    46    33    36    1
    47    49    42   am
    48    49    50    1
    49    73    75   ar
    50    42    43    2
    51    34    35    2
    52    37    36    1
    53    37    39    1
    54    50    51    1
    55   100    99    1
    56    38    36    1
    57    99   102    1
    58   102   103    1
    59   102   104    1
    60    26    25    1
    61    51    53   am
    62    51    52    2
    63    53    54    1
    64    24    25   ar
    65    24    22   ar
    66    25    23   ar
    67   129   127   ar
    68    59    57    1
    69   113   111   ar
    70     9     7   ar
    71     9    10   ar
    72    22    20   ar
    73     7     6   ar
    74    54    57    1
    75    54    55    1
    76    23    21   ar
    77   127   126    1
    78   127   128   ar
    79    57    58    1
    80    60    55   am
    81    60    61    1
    82    10    12   ar
    83    10     8   ar
    84    12    14   ar
    85   111   112   ar
    86   111   110    1
    87    64    65    1
    88    64    61    1
    89     6     8   ar
    90     6     5    1
    91    55    56    2
    92   126   123    1
    93    20    21   ar
    94    20    19    1
    95    62    61    1
    96    62    63    2
    97     8    11   ar
    98     5     2    1
    99    14    13   ar
   100   121   119   ar
   101   109   110    1
   102   109   106    1
   103    11    13   ar
   104     1     2    1
   105    19    16    1
   106     2     3    1
   107   105   106    1
   108   123   124    1
   109   123   122    1
   110   124   125    2
   111   119   120   ar
   112   119   118    1
   113   106   107    1
   114    16    15    1
   115    16    17    1
   116     3     4    2
   117   118   115    1
   118   107   108    2
   119    17    18    2
   120   115   116    1
   121   115   114    1
   122   116   117    2
