@<TRIPOS>MOLECULE
tmp/3koaA00.pdb
 200 185 0 0 0
SMALL
GASTEIGER

@<TRIPOS>ATOM
      1  N          4.7250   39.3860   15.2520 N.3    21  LEU21      -0.1245
      2  CA         5.8060   40.2880   14.9080 C.3    21  LEU21       0.1561
      3  C          5.3750   41.2290   13.8120 C.2    21  LEU21       0.2260
      4  O          5.0410   40.7870   12.7200 O.2    21  LEU21      -0.2867
      5  CB         7.0350   39.5000   14.4680 C.3    21  LEU21       0.0270
      6  CG         7.5190   38.5740   15.5780 C.3    21  LEU21       0.0019
      7  CD1        8.5680   37.6140   15.0460 C.3    21  LEU21       0.0001
      8  CD2        8.0440   39.4050   16.7480 C.3    21  LEU21       0.0001
      9  N          7.2390   27.9640   16.6310 N.3   164  LYS164     -0.1245
     10  CA         7.9040   29.1120   17.1920 C.3   164  LYS164      0.1561
     11  C          7.6960   30.3580   16.3420 C.2   164  LYS164      0.2260
     12  O          8.0600   30.3970   15.1830 O.2   164  LYS164     -0.2867
     13  CB         9.3880   28.8310   17.4010 C.3   164  LYS164      0.0271
     14  CG        10.0500   29.8110   18.3350 C.3   164  LYS164      0.0035
     15  CD        11.4580   29.3630   18.6670 C.3   164  LYS164      0.0206
     16  CE        12.1440   30.3680   19.5740 C.3   164  LYS164      0.1093
     17  NZ        11.2500   30.6640   20.7200 N.3   164  LYS164     -0.1314
     18  N         10.6950   26.7150   13.3760 N.3   179  ARG179     -0.1245
     19  CA        11.0920   25.8710   14.5160 C.3   179  ARG179      0.1563
     20  C          9.9000   25.6010   15.4170 C.2   179  ARG179      0.2260
     21  O          8.9880   26.4230   15.4990 O.2   179  ARG179     -0.2867
     22  CB        12.1960   26.5420   15.3160 C.3   179  ARG179      0.0307
     23  CG        13.3980   26.9070   14.4610 C.3   179  ARG179      0.0489
     24  CD        14.6170   27.1910   15.3020 C.3   179  ARG179      0.2205
     25  NE        14.4000   28.3800   16.1120 N.pl3 179  ARG179     -0.0865
     26  CZ        15.1290   28.6880   17.1730 C.cat 179  ARG179      0.5346
     27  NH1       16.1150   27.8850   17.5290 N.pl3 179  ARG179      0.1354
     28  NH2       14.8730   29.7850   17.8740 N.pl3 179  ARG179      0.1354
     29  N         11.9000   20.5540   23.7360 N.3   298  SER298     -0.1217
     30  CA        12.4680   21.8800   24.0020 C.3   298  SER298      0.1889
     31  C         12.0870   22.4950   25.3560 C.2   298  SER298      0.2288
     32  O         12.8450   23.2780   25.9290 O.2   298  SER298     -0.2866
     33  CB        12.0890   22.8500   22.8850 C.3   298  SER298      0.2089
     34  OG        10.6800   22.9340   22.7760 O.3   298  SER298     -0.2183
     35  N         16.2360   21.4570   29.6990 N.3   303  THR303     -0.1203
     36  CA        16.6900   21.2290   28.3330 C.3   303  THR303      0.1994
     37  C         18.0930   21.7790   28.1210 C.2   303  THR303      0.2618
     38  O         18.9820   21.0560   27.6530 O.2   303  THR303     -0.2717
     39  CB        15.6970   21.7830   27.2790 C.3   303  THR303      0.1784
     40  OG1       14.4140   21.1600   27.4590 O.3   303  THR303     -0.2211
     41  CG2       16.1620   21.4700   25.8720 C.3   303  THR303      0.0376
     42  N         18.3110   23.0410   28.4910 N.am  304  SER304     -0.1951
     43  CA        19.6240   23.6730   28.3060 C.3   304  SER304      0.1924
     44  C         20.7330   22.9730   29.0610 C.2   304  SER304      0.2314
     45  O         21.8280   22.8120   28.5410 O.2   304  SER304     -0.2863
     46  CB        19.5880   25.1330   28.7120 C.3   304  SER304      0.2116
     47  OG        18.7860   25.8330   27.7980 O.3   304  SER304     -0.2180
     48  N         21.2520   19.3890   27.3680 N.3   307  ASN307     -0.1240
     49  CA        22.0420   19.6580   26.1730 C.3   307  ASN307      0.1653
     50  C         23.5110   19.9570   26.4740 C.2   307  ASN307      0.2266
     51  O         24.4190   19.3630   25.8780 O.2   307  ASN307     -0.2867
     52  CB        21.4170   20.7820   25.3590 C.3   307  ASN307      0.1155
     53  CG        20.2210   20.3080   24.5520 C.2   307  ASN307      0.2627
     54  OD1       20.0670   19.1090   24.3000 O.2   307  ASN307     -0.2716
     55  ND2       19.3770   21.2410   24.1240 N.am  307  ASN307     -0.0877
     56  N         26.5180   26.0800   25.9330 N.3   336  TYR336     -0.1227
     57  CA        25.2050   26.4970   26.3350 C.3   336  TYR336      0.1736
     58  C         24.2330   25.7950   25.3950 C.2   336  TYR336      0.2596
     59  O         23.9760   26.2830   24.2830 O.2   336  TYR336     -0.2718
     60  CB        25.0770   27.9950   26.1330 C.3   336  TYR336      0.0548
     61  CG        23.9670   28.5920   26.9430 C.ar  336  TYR336     -0.0200
     62  CD1       24.2410   29.4650   28.0050 C.ar  336  TYR336     -0.0009
     63  CD2       22.6450   28.2710   26.6700 C.ar  336  TYR336     -0.0009
     64  CE1       23.2260   30.0140   28.7550 C.ar  336  TYR336      0.0417
     65  CE2       21.6030   28.8140   27.4370 C.ar  336  TYR336      0.0417
     66  CZ        21.9090   29.6810   28.4710 C.ar  336  TYR336      0.1957
     67  OH        20.8840   30.1870   29.2280 O.3   336  TYR336     -0.2866
     68  N         23.7060   24.6450   25.8200 N.am  337  GLY337     -0.1942
     69  CA        22.9630   23.7950   24.9100 C.3   337  GLY337      0.2014
     70  C         23.8950   23.3470   23.7990 C.2   337  GLY337      0.2639
     71  O         24.9720   22.8170   24.0620 O.2   337  GLY337     -0.2714
     72  N         23.5020   23.5750   22.5490 N.am  338  ASP338     -0.1957
     73  CA        24.2950   23.1130   21.4190 C.3   338  ASP338      0.1840
     74  C         25.4450   24.0510   21.0830 C.2   338  ASP338      0.2622
     75  O         26.3720   23.6790   20.3780 O.2   338  ASP338     -0.2715
     76  CB        23.4120   22.9420   20.1950 C.3   338  ASP338      0.1450
     77  CG        22.6930   24.2080   19.8320 C.2   338  ASP338      0.3671
     78  OD1       21.4870   24.1520   19.6320 O.co2 338  ASP338     -0.2456
     79  OD2       23.3130   25.2750   19.7530 O.co2 338  ASP338     -0.2456
     80  N         25.3700   25.2730   21.5830 N.am  339  ASP339     -0.1971
     81  CA        26.3730   26.2840   21.3210 C.3   339  ASP339      0.1709
     82  C         27.6360   25.9190   22.0960 C.2   339  ASP339      0.2293
     83  O         27.5650   25.5990   23.2800 O.2   339  ASP339     -0.2864
     84  CB        25.8300   27.6450   21.7510 C.3   339  ASP339      0.1436
     85  CG        26.4520   28.7720   20.9970 C.2   339  ASP339      0.3671
     86  OD1       27.5930   28.5990   20.5860 O.co2 339  ASP339     -0.2456
     87  OD2       25.8200   29.8220   20.7940 O.co2 339  ASP339     -0.2456
     88  N         26.9180   32.2960   21.8440 N.3   386  LEU386     -0.1231
     89  CA        25.6510   32.9790   22.1070 C.3   386  LEU386      0.1693
     90  C         25.4550   34.1890   21.1690 C.2   386  LEU386      0.2592
     91  O         25.0060   35.2370   21.5830 O.2   386  LEU386     -0.2718
     92  CB        25.5530   33.3690   23.5960 C.3   386  LEU386      0.0284
     93  CG        25.8170   32.2630   24.6420 C.3   386  LEU386      0.0019
     94  CD1       25.7670   32.7830   26.0860 C.3   386  LEU386      0.0001
     95  CD2       24.8420   31.1110   24.5050 C.3   386  LEU386      0.0001
     96  N         25.8290   34.0480   19.9020 N.am  387  LYS387     -0.1966
     97  CA        25.6550   35.1300   18.9080 C.3   387  LYS387      0.1728
     98  C         26.4340   36.3910   19.2660 C.2   387  LYS387      0.2616
     99  O         26.1010   37.4870   18.8250 O.2   387  LYS387     -0.2715
    100  CB        24.1640   35.4610   18.7270 C.3   387  LYS387      0.0311
    101  CG        23.3400   34.3030   18.1520 C.3   387  LYS387      0.0038
    102  CD        21.9620   34.2100   18.7840 C.3   387  LYS387      0.0206
    103  CE        20.8970   35.0440   18.0150 C.3   387  LYS387      0.1093
    104  NZ        20.4820   34.4090   16.7420 N.3   387  LYS387     -0.1314
    105  N         27.4720   36.2280   20.0770 N.am  388  ARG388     -0.1977
    106  CA        28.3390   37.3280   20.4030 C.3   388  ARG388      0.1597
    107  C         29.8030   37.0220   20.0820 C.2   388  ARG388      0.2287
    108  O         30.3130   35.8990   20.2990 O.2   388  ARG388     -0.2864
    109  CB        28.2030   37.6720   21.8680 C.3   388  ARG388      0.0334
    110  CG        26.8370   38.2440   22.2400 C.3   388  ARG388      0.0492
    111  CD        26.5220   37.7440   23.5910 C.3   388  ARG388      0.2205
    112  NE        25.3840   38.3880   24.2310 N.pl3 388  ARG388     -0.0865
    113  CZ        24.1980   37.8120   24.3510 C.cat 388  ARG388      0.5346
    114  NH1       23.9680   36.6070   23.8180 N.pl3 388  ARG388      0.1354
    115  NH2       23.2280   38.4570   24.9700 N.pl3 388  ARG388      0.1354
    116  N         27.5700   41.8910   19.2650 N.3   403  MET403     -0.1245
    117  CA        26.6970   41.2300   18.2900 C.3   403  MET403      0.1570
    118  C         26.9230   41.8360   16.9050 C.2   403  MET403      0.2261
    119  O         27.3360   42.9970   16.7900 O.2   403  MET403     -0.2867
    120  CB        25.2140   41.3760   18.6760 C.3   403  MET403      0.0387
    121  CG        24.7670   40.4760   19.8310 C.3   403  MET403      0.0595
    122  SD        22.9890   40.4420   20.2490 S.3   403  MET403     -0.1393
    123  CE        22.3010   39.5180   18.8840 C.3   403  MET403      0.0692
    124  N         22.5980   41.3330   12.6370 N.3   407  THR407     -0.1218
    125  CA        21.7120   40.7110   13.5990 C.3   407  THR407      0.1862
    126  C         20.9000   41.7510   14.3770 C.2   407  THR407      0.2287
    127  O         19.6780   41.6610   14.4580 O.2   407  THR407     -0.2866
    128  CB        22.5220   39.8500   14.5600 C.3   407  THR407      0.1770
    129  OG1       23.1600   38.8160   13.7910 O.3   407  THR407     -0.2211
    130  CG2       21.6330   39.2340   15.6300 C.3   407  THR407      0.0375
    131  N         16.8770   42.2790   14.4700 N.3   411  ILE411     -0.1245
    132  CA        16.2130   42.4160   15.7710 C.3   411  ILE411      0.1561
    133  C         15.3490   43.6830   15.8860 C.2   411  ILE411      0.2260
    134  O         14.1890   43.6100   16.2780 O.2   411  ILE411     -0.2867
    135  CB        17.2390   42.4090   16.9140 C.3   411  ILE411      0.0252
    136  CG1       17.7120   40.9830   17.1620 C.3   411  ILE411      0.0019
    137  CG2       16.6380   42.9880   18.1800 C.3   411  ILE411      0.0019
    138  CD1       18.8290   40.8830   18.1520 C.3   411  ILE411      0.0001
    139  N          8.6960   43.7770   15.8290 N.3   415  ALA415     -0.1231
    140  CA         8.2490   43.9410   17.2020 C.3   415  ALA415      0.1694
    141  C          6.7570   43.7230   17.3260 C.2   415  ALA415      0.2591
    142  O          5.9650   44.1580   16.4680 O.2   415  ALA415     -0.2718
    143  CB         8.5970   45.3330   17.7110 C.3   415  ALA415      0.0304
    144  N          6.3890   43.0670   18.4180 N.am  416  ARG416     -0.1980
    145  CA         5.0050   42.9430   18.8480 C.3   416  ARG416      0.1597
    146  C          4.3880   44.3190   19.0950 C.2   416  ARG416      0.2287
    147  O          5.0400   45.2230   19.6250 O.2   416  ARG416     -0.2864
    148  CB         4.9720   42.1270   20.1270 C.3   416  ARG416      0.0334
    149  CG         3.9120   41.0660   20.1650 C.3   416  ARG416      0.0492
    150  CD         4.5340   39.7620   20.6550 C.3   416  ARG416      0.2205
    151  NE         5.7920   39.4860   19.9620 N.pl3 416  ARG416     -0.0865
    152  CZ         6.2910   38.2650   19.7730 C.cat 416  ARG416      0.5346
    153  NH1        5.6320   37.1970   20.2100 N.pl3 416  ARG416      0.1354
    154  NH2        7.4390   38.1030   19.1390 N.pl3 416  ARG416      0.1354
    155  N          5.0420   46.8510   22.3360 N.3   419  THR419     -0.1218
    156  CA         6.2110   46.4090   23.0810 C.3   419  THR419      0.1862
    157  C          7.4680   47.0770   22.5550 C.2   419  THR419      0.2287
    158  O          8.5590   46.6640   22.8740 O.2   419  THR419     -0.2866
    159  CB         6.4370   44.8920   22.9670 C.3   419  THR419      0.1770
    160  OG1        6.7860   44.5520   21.6120 O.3   419  THR419     -0.2211
    161  CG2        5.1930   44.1300   23.3820 C.3   419  THR419      0.0375
    162  N          9.9840   49.2290   25.2900 N.3   422  GLU422     -0.1231
    163  CA        10.7460   48.2960   26.0940 C.3   422  GLU422      0.1699
    164  C         11.7120   47.4650   25.2500 C.2   422  GLU422      0.2592
    165  O         12.8470   47.2230   25.6540 O.2   422  GLU422     -0.2718
    166  CB         9.8000   47.4120   26.9060 C.3   422  GLU422      0.0402
    167  CG         8.9050   48.2360   27.8420 C.3   422  GLU422      0.1161
    168  CD         9.6970   49.2450   28.7090 C.2   422  GLU422      0.3649
    169  OE1       10.7150   48.8380   29.3230 O.co2 422  GLU422     -0.2457
    170  OE2        9.2960   50.4280   28.7970 O.co2 422  GLU422     -0.2457
    171  N         11.2740   47.0210   24.0800 N.am  423  LYS423     -0.1980
    172  CA        12.1880   46.3080   23.2150 C.3   423  LYS423      0.1596
    173  C         13.4150   47.1680   22.8880 C.2   423  LYS423      0.2287
    174  O         14.5420   46.6690   22.8260 O.2   423  LYS423     -0.2864
    175  CB        11.5050   45.8720   21.9210 C.3   423  LYS423      0.0298
    176  CG        12.4910   45.3020   20.9020 C.3   423  LYS423      0.0038
    177  CD        11.8360   44.2260   20.0810 C.3   423  LYS423      0.0206
    178  CE        12.8250   43.5770   19.1610 C.3   423  LYS423      0.1093
    179  NZ        12.2090   42.3760   18.5530 N.3   423  LYS423     -0.1314
    180  N         15.7760   47.3800   25.8510 N.3   426  SER426     -0.1202
    181  CA        16.4300   46.1120   26.0780 C.3   426  SER426      0.2020
    182  C         17.4970   45.8070   25.0040 C.2   426  SER426      0.2618
    183  O         18.6090   45.3970   25.3370 O.2   426  SER426     -0.2717
    184  CB        15.3810   45.0070   26.2020 C.3   426  SER426      0.2103
    185  OG        15.8630   43.7600   25.7400 O.3   426  SER426     -0.2182
    186  N         17.1790   46.0240   23.7260 N.am  427  VAL427     -0.1979
    187  CA        18.1570   45.8520   22.6480 C.3   427  VAL427      0.1595
    188  C         19.3310   46.8520   22.7250 C.2   427  VAL427      0.2287
    189  O         20.4300   46.5870   22.2320 O.2   427  VAL427     -0.2864
    190  CB        17.4640   45.9310   21.2410 C.3   427  VAL427      0.0276
    191  CG1       18.5010   45.9940   20.0800 C.3   427  VAL427      0.0022
    192  CG2       16.5470   44.7540   21.0540 C.3   427  VAL427      0.0022
    193  N         22.3440   45.5090   24.3430 N.3   430  LEU430     -0.1245
    194  CA        23.1150   44.5810   23.4770 C.3   430  LEU430      0.1561
    195  C         23.9980   45.3760   22.5260 C.2   430  LEU430      0.2260
    196  O         25.1110   44.9840   22.2130 O.2   430  LEU430     -0.2867
    197  CB        22.1870   43.7070   22.6340 C.3   430  LEU430      0.0270
    198  CG        21.1260   42.8540   23.3460 C.3   430  LEU430      0.0019
    199  CD1       20.2810   42.1220   22.2790 C.3   430  LEU430      0.0001
    200  CD2       21.7460   41.8530   24.3640 C.3   430  LEU430      0.0001
@<TRIPOS>BOND
     1   124   125    1
     2     4     3    2
     3    18    19    1
     4   125   126    1
     5   125   128    1
     6   129   128    1
     7     3     2    1
     8   126   127    2
     9    23    24    1
    10    23    22    1
    11     5     2    1
    12     5     6    1
    13   131   132    1
    14    19    22    1
    15    19    20    1
    16   128   130    1
    17     2     1    1
    18     7     6    1
    19    12    11    2
    20    24    25    1
    21    20    21    2
    22     6     8    1
    23   132   133    1
    24   132   135    1
    25   139   140    1
    26   133   134    2
    27    25    26    2
    28    11    10    1
    29   142   141    2
    30     9    10    1
    31   104   103    1
    32   119   118    2
    33   118   117    1
    34   135   136    1
    35   135   137    1
    36   136   138    1
    37    26    27    1
    38    26    28    1
    39    10    13    1
    40   140   141    1
    41   140   143    1
    42   141   144   am
    43    13    14    1
    44   103   102    1
    45   101   100    1
    46   101   102    1
    47   117   120    1
    48   117   116    1
    49    14    15    1
    50   144   145    1
    51   179   178    1
    52    15    16    1
    53   120   121    1
    54   100    97    1
    55    99    98    2
    56   145   146    1
    57   145   148    1
    58   123   122    1
    59    97    98    1
    60    97    96    1
    61   146   147    2
    62   154   152    1
    63   178   177    1
    64    98   105   am
    65    16    17    1
    66    78    77   ar
    67    79    77   ar
    68   152   151    2
    69   152   153    1
    70   121   122    1
    71    77    76    1
    72    96    90   am
    73   151   150    1
    74   105   106    1
    75   191   190    1
    76   177   176    1
    77   107   108    2
    78   107   106    1
    79   148   149    1
    80   149   150    1
    81    76    73    1
    82    75    74    2
    83   106   109    1
    84    86    85   ar
    85    87    85   ar
    86   176   175    1
    87    85    84    1
    88   192   190    1
    89    74    73    1
    90    74    80   am
    91    90    91    2
    92    90    89    1
    93   190   187    1
    94    81    80    1
    95    81    84    1
    96    81    82    1
    97    73    72    1
    98   160   159    1
    99    88    89    1
   100   109   110    1
   101   175   172    1
   102    82    83    2
   103    89    92    1
   104   196   195    2
   105   189   188    2
   106   110   111    1
   107   199   198    1
   108   155   156    1
   109   195   194    1
   110    72    70   am
   111   157   158    2
   112   157   156    1
   113   197   198    1
   114   197   194    1
   115   187   188    1
   116   187   186    1
   117    34    33    1
   118   174   173    2
   119    33    30    1
   120   173   172    1
   121   159   156    1
   122   159   161    1
   123   172   171    1
   124   198   200    1
   125   194   193    1
   126   111   112    1
   127    92    93    1
   128   186   182   am
   129    29    30    1
   130    70    71    2
   131    70    69    1
   132   114   113    1
   133    30    31    1
   134   171   164   am
   135    55    53   am
   136   112   113    2
   137    59    58    2
   138    54    53    2
   139   113   115    1
   140    95    93    1
   141    53    52    1
   142    93    94    1
   143    69    68    1
   144   182   183    2
   145   182   181    1
   146   164   165    2
   147   164   163    1
   148   162   163    1
   149    31    32    2
   150    52    49    1
   151    58    68   am
   152    58    57    1
   153   185   184    1
   154   180   181    1
   155    41    39    1
   156    51    50    2
   157    56    57    1
   158   181   184    1
   159   163   166    1
   160    60    57    1
   161    60    61    1
   162    49    50    1
   163    49    48    1
   164    63    61   ar
   165    63    65   ar
   166   166   167    1
   167    61    62   ar
   168    39    40    1
   169    39    36    1
   170    65    66   ar
   171    38    37    2
   172    47    46    1
   173   167   168    1
   174    62    64   ar
   175    37    36    1
   176    37    42   am
   177    43    42    1
   178    43    46    1
   179    43    44    1
   180    36    35    1
   181    66    64   ar
   182    66    67    1
   183    45    44    2
   184   168   170   ar
   185   168   169   ar
