@<TRIPOS>MOLECULE
tmp/3koaA01.pdb
 95 90 0 0 0
SMALL
GASTEIGER

@<TRIPOS>ATOM
      1  N         15.6060   39.0030    6.9480 N.3    34  PHE34      -0.1241
      2  CA        14.9560   38.1070    7.9060 C.3    34  PHE34       0.1605
      3  C         13.4920   38.4640    7.9580 C.2    34  PHE34       0.2264
      4  O         13.1030   39.5430    7.5330 O.2    34  PHE34      -0.2867
      5  CB        15.5220   38.2700    9.3210 C.3    34  PHE34       0.0534
      6  CG        17.0090   38.2550    9.3960 C.ar   34  PHE34      -0.0203
      7  CD1       17.7550   39.2360    8.7650 C.ar   34  PHE34      -0.0042
      8  CD2       17.6580   37.2810   10.1250 C.ar   34  PHE34      -0.0042
      9  CE1       19.1330   39.2320    8.8450 C.ar   34  PHE34      -0.0003
     10  CE2       19.0420   37.2550   10.2130 C.ar   34  PHE34      -0.0003
     11  CZ        19.7850   38.2340    9.5790 C.ar   34  PHE34      -0.0000
     12  N          9.0120   33.5590   15.5350 N.3   166  GLU166     -0.1231
     13  CA        10.2320   34.3370   15.6990 C.3   166  GLU166      0.1699
     14  C         10.7410   34.8660   14.3750 C.2   166  GLU166      0.2592
     15  O         10.2740   34.4810   13.3120 O.2   166  GLU166     -0.2718
     16  CB        11.3260   33.4780   16.3380 C.3   166  GLU166      0.0402
     17  CG        11.8610   32.3770   15.4360 C.3   166  GLU166      0.1161
     18  CD        12.8040   31.4290   16.1610 C.2   166  GLU166      0.3649
     19  OE1       13.6080   31.9120   16.9970 O.co2 166  GLU166     -0.2457
     20  OE2       12.7540   30.2060   15.8970 O.co2 166  GLU166     -0.2457
     21  N         11.7230   35.7450   14.4320 N.am  167  ILE167     -0.1966
     22  CA        12.3250   36.2410   13.2120 C.3   167  ILE167      0.1727
     23  C         13.3460   35.2420   12.6390 C.2   167  ILE167      0.2616
     24  O         14.0270   34.5370   13.3830 O.2   167  ILE167     -0.2715
     25  CB        12.9530   37.6110   13.4710 C.3   167  ILE167      0.0290
     26  CG1       11.8350   38.6260   13.6670 C.3   167  ILE167      0.0022
     27  CG2       13.8650   38.0170   12.3350 C.3   167  ILE167      0.0023
     28  CD1       12.0830   39.9520   12.9550 C.3   167  ILE167      0.0001
     29  N         13.4540   35.1630   11.3170 N.am  168  ARG168     -0.1964
     30  CA        14.4370   34.2520   10.7270 C.3   168  ARG168      0.1714
     31  C         14.9920   34.7390    9.4080 C.2   168  ARG168      0.2458
     32  O         14.3880   35.5750    8.7500 O.2   168  ARG168     -0.2730
     33  CB        13.8480   32.8510   10.5660 C.3   168  ARG168      0.0347
     34  CG        13.2340   32.3120   11.8530 C.3   168  ARG168      0.0492
     35  CD        13.2790   30.8010   11.9140 C.3   168  ARG168      0.2205
     36  NE        14.6550   30.3220   11.7870 N.pl3 168  ARG168     -0.0865
     37  CZ        15.0070   29.0420   11.7490 C.cat 168  ARG168      0.5346
     38  NH1       14.0940   28.0840   11.8420 N.pl3 168  ARG168      0.1354
     39  NH2       16.2790   28.7210   11.6290 N.pl3 168  ARG168      0.1354
     40  N         16.1680   34.2270    9.0290 N.am  169  PRO169     -0.2727
     41  CA        16.7110   34.4950    7.6970 C.3   169  PRO169      0.1402
     42  C         15.7000   34.1020    6.6410 C.2   169  PRO169      0.2269
     43  O         15.1940   32.9810    6.6400 O.2   169  PRO169     -0.2865
     44  CB        17.9340   33.5810    7.6180 C.3   169  PRO169      0.0296
     45  CG        18.3300   33.3750    9.0590 C.3   169  PRO169      0.0237
     46  CD        17.0600   33.3800    9.8410 C.3   169  PRO169      0.0939
     47  N         15.3570   30.6510    5.1530 N.3   172  LYS172     -0.1245
     48  CA        14.7440   29.6230    5.9850 C.3   172  LYS172      0.1561
     49  C         13.2210   29.8100    6.0500 C.2   172  LYS172      0.2260
     50  O         12.4570   28.8410    6.0630 O.2   172  LYS172     -0.2867
     51  CB        15.3790   29.6180    7.3760 C.3   172  LYS172      0.0271
     52  CG        16.8860   29.3700    7.3680 C.3   172  LYS172      0.0035
     53  CD        17.5260   30.0700    8.5630 C.3   172  LYS172      0.0206
     54  CE        19.0410   29.8130    8.6750 C.3   172  LYS172      0.1093
     55  NZ        19.6010   30.4450    9.9370 N.3   172  LYS172     -0.1314
     56  N         10.6950   26.7150   13.3760 N.3   179  ARG179     -0.1245
     57  CA        11.0920   25.8710   14.5160 C.3   179  ARG179      0.1563
     58  C          9.9000   25.6010   15.4170 C.2   179  ARG179      0.2260
     59  O          8.9880   26.4230   15.4990 O.2   179  ARG179     -0.2867
     60  CB        12.1960   26.5420   15.3160 C.3   179  ARG179      0.0307
     61  CG        13.3980   26.9070   14.4610 C.3   179  ARG179      0.0489
     62  CD        14.6170   27.1910   15.3020 C.3   179  ARG179      0.2205
     63  NE        14.4000   28.3800   16.1120 N.pl3 179  ARG179     -0.0865
     64  CZ        15.1290   28.6880   17.1730 C.cat 179  ARG179      0.5346
     65  NH1       16.1150   27.8850   17.5290 N.pl3 179  ARG179      0.1354
     66  NH2       14.8730   29.7850   17.8740 N.pl3 179  ARG179      0.1354
     67  N         25.8290   34.0480   19.9020 N.3   387  LYS387     -0.1245
     68  CA        25.6550   35.1300   18.9080 C.3   387  LYS387      0.1561
     69  C         26.4340   36.3910   19.2660 C.2   387  LYS387      0.2260
     70  O         26.1010   37.4870   18.8250 O.2   387  LYS387     -0.2867
     71  CB        24.1640   35.4610   18.7270 C.3   387  LYS387      0.0271
     72  CG        23.3400   34.3030   18.1520 C.3   387  LYS387      0.0035
     73  CD        21.9620   34.2100   18.7840 C.3   387  LYS387      0.0206
     74  CE        20.8970   35.0440   18.0150 C.3   387  LYS387      0.1093
     75  NZ        20.4820   34.4090   16.7420 N.3   387  LYS387     -0.1314
     76  N         22.5980   41.3330   12.6370 N.3   407  THR407     -0.1218
     77  CA        21.7120   40.7110   13.5990 C.3   407  THR407      0.1862
     78  C         20.9000   41.7510   14.3770 C.2   407  THR407      0.2287
     79  O         19.6780   41.6610   14.4580 O.2   407  THR407     -0.2866
     80  CB        22.5220   39.8500   14.5600 C.3   407  THR407      0.1770
     81  OG1       23.1600   38.8160   13.7910 O.3   407  THR407     -0.2211
     82  CG2       21.6330   39.2340   15.6300 C.3   407  THR407      0.0375
     83  N         18.1420   43.1710   12.0890 N.3   410  ALA410     -0.1231
     84  CA        17.0060   42.2600   12.0300 C.3   410  ALA410      0.1694
     85  C         16.1930   42.3050   13.3330 C.2   410  ALA410      0.2591
     86  O         14.9680   42.3460   13.3080 O.2   410  ALA410     -0.2718
     87  CB        17.4900   40.8310   11.7400 C.3   410  ALA410      0.0304
     88  N         16.8770   42.2790   14.4700 N.am  411  ILE411     -0.1980
     89  CA        16.2130   42.4160   15.7710 C.3   411  ILE411      0.1595
     90  C         15.3490   43.6830   15.8860 C.2   411  ILE411      0.2287
     91  O         14.1890   43.6100   16.2780 O.2   411  ILE411     -0.2864
     92  CB        17.2390   42.4090   16.9140 C.3   411  ILE411      0.0276
     93  CG1       17.7120   40.9830   17.1620 C.3   411  ILE411      0.0022
     94  CG2       16.6380   42.9880   18.1800 C.3   411  ILE411      0.0022
     95  CD1       18.8290   40.8830   18.1520 C.3   411  ILE411      0.0001
@<TRIPOS>BOND
     1    47    48    1
     2    48    49    1
     3    48    51    1
     4    49    50    2
     5    43    42    2
     6    42    41    1
     7     1     2    1
     8    52    51    1
     9    52    53    1
    10     4     3    2
    11    44    41    1
    12    44    45    1
    13    41    40    1
    14     2     3    1
    15     2     5    1
    16    53    54    1
    17    54    55    1
    18    32    31    2
    19     7     9   ar
    20     7     6   ar
    21     9    11   ar
    22    40    31   am
    23    40    46    1
    24    45    46    1
    25     5     6    1
    26     6     8   ar
    27    31    30    1
    28    11    10   ar
    29     8    10   ar
    30    33    30    1
    31    33    34    1
    32    30    29    1
    33    29    23   am
    34    39    37    1
    35    87    84    1
    36    37    36    2
    37    37    38    1
    38    36    35    1
    39    34    35    1
    40    84    83    1
    41    84    85    1
    42    27    25    1
    43    76    77    1
    44    23    22    1
    45    23    24    2
    46    28    26    1
    47    22    25    1
    48    22    21    1
    49    86    85    2
    50    15    14    2
    51    85    88   am
    52    56    57    1
    53    25    26    1
    54    77    78    1
    55    77    80    1
    56    81    80    1
    57    14    21   am
    58    14    13    1
    59    78    79    2
    60    61    62    1
    61    61    60    1
    62    88    89    1
    63    57    60    1
    64    57    58    1
    65    80    82    1
    66    62    63    1
    67    58    59    2
    68    17    18    1
    69    17    16    1
    70    12    13    1
    71    13    16    1
    72    89    90    1
    73    89    92    1
    74    90    91    2
    75    20    18   ar
    76    63    64    2
    77    18    19   ar
    78    75    74    1
    79    92    93    1
    80    92    94    1
    81    93    95    1
    82    64    65    1
    83    64    66    1
    84    74    73    1
    85    72    71    1
    86    72    73    1
    87    71    68    1
    88    70    69    2
    89    68    69    1
    90    68    67    1
