@<TRIPOS>MOLECULE
tmp/3kogA00.pdb
 74 68 0 0 0
SMALL
GASTEIGER

@<TRIPOS>ATOM
      1  N         20.3340   27.0450   45.1740 N.3    65  PRO65      -0.2102
      2  CA        19.0990   27.4990   44.5910 C.3    65  PRO65       0.1504
      3  C         18.1310   26.3500   44.2870 C.2    65  PRO65       0.2576
      4  O         18.5560   25.2220   44.1020 O.2    65  PRO65      -0.2718
      5  CB        19.5510   28.1580   43.3020 C.3    65  PRO65       0.0282
      6  CG        20.7810   27.2820   42.8760 C.3    65  PRO65       0.0208
      7  CD        21.4450   26.9590   44.1820 C.3    65  PRO65       0.0893
      8  N         16.8360   26.6790   44.1900 N.am   66  ALA66      -0.1966
      9  CA        15.8400   25.7390   43.7440 C.3    66  ALA66       0.1728
     10  C         16.0810   25.4600   42.2620 C.2    66  ALA66       0.2616
     11  O         16.2010   26.4040   41.4840 O.2    66  ALA66      -0.2715
     12  CB        14.4310   26.3350   43.9560 C.3    66  ALA66       0.0334
     13  N         16.1950   24.1930   41.8880 N.am   67  LEU67      -0.1963
     14  CA        16.5590   23.8230   40.5200 C.3    67  LEU67       0.1728
     15  C         15.5750   22.7910   40.0270 C.2    67  LEU67       0.2616
     16  O         15.2030   21.9000   40.7860 O.2    67  LEU67      -0.2715
     17  CB        17.9740   23.2540   40.4250 C.3    67  LEU67       0.0311
     18  CG        19.1460   24.1990   40.6970 C.3    67  LEU67       0.0022
     19  CD1       20.4230   23.3940   40.4490 C.3    67  LEU67       0.0001
     20  CD2       19.1140   25.4810   39.8380 C.3    67  LEU67       0.0001
     21  N         15.1730   22.9380   38.7590 N.am   68  LYS68      -0.1977
     22  CA        14.2830   22.0410   38.0390 C.3    68  LYS68       0.1596
     23  C         15.1350   20.9650   37.3340 C.2    68  LYS68       0.2287
     24  O         16.3650   21.0330   37.2820 O.2    68  LYS68      -0.2864
     25  CB        13.4840   22.8020   36.9890 C.3    68  LYS68       0.0298
     26  CG        12.7210   24.0320   37.4900 C.3    68  LYS68       0.0038
     27  CD        11.6200   23.6870   38.4720 C.3    68  LYS68       0.0206
     28  CE        10.9030   24.9320   38.9370 C.3    68  LYS68       0.1093
     29  NZ        11.8180   25.8780   39.6360 N.3    68  LYS68      -0.1314
     30  N         18.8150   21.1170   35.3910 N.3    71  GLN71      -0.1245
     31  CA        19.5950   22.2690   35.6460 C.3    71  GLN71       0.1566
     32  C         20.8680   21.8760   36.4060 C.2    71  GLN71       0.2260
     33  O         20.8850   20.9540   37.2210 O.2    71  GLN71      -0.2867
     34  CB        18.8170   23.3260   36.4270 C.3    71  GLN71       0.0367
     35  CG        17.6880   23.9300   35.6710 C.3    71  GLN71       0.0905
     36  CD        17.1290   25.1460   36.3740 C.2    71  GLN71       0.2608
     37  OE1       16.4090   25.0110   37.3790 O.2    71  GLN71      -0.2717
     38  NE2       17.4200   26.3440   35.8370 N.am   71  GLN71      -0.0878
     39  N         20.6710   37.7740   45.0530 N.3    94  SER94      -0.1217
     40  CA        21.0900   37.2550   43.7700 C.3    94  SER94       0.1889
     41  C         20.1550   37.7020   42.6750 C.2    94  SER94       0.2288
     42  O         18.9340   37.7850   42.8810 O.2    94  SER94      -0.2866
     43  CB        21.1570   35.7620   43.7890 C.3    94  SER94       0.2089
     44  OG        21.9570   35.3770   44.8700 O.3    94  SER94      -0.2183
     45  N         19.8380   37.6820   38.1000 N.3    96  ILE96      -0.1245
     46  CA        20.3670   37.1910   36.8330 C.3    96  ILE96       0.1561
     47  C         21.0260   38.3910   36.2200 C.2    96  ILE96       0.2260
     48  O         20.3890   39.4260   36.0040 O.2    96  ILE96      -0.2867
     49  CB        19.2710   36.6350   35.9010 C.3    96  ILE96       0.0252
     50  CG1       18.6420   35.3880   36.5360 C.3    96  ILE96       0.0019
     51  CG2       19.8580   36.3750   34.4930 C.3    96  ILE96       0.0019
     52  CD1       17.2230   35.0340   36.0450 C.3    96  ILE96       0.0001
     53  N         22.7570   31.0000   32.4990 N.3   173  ASP173     -0.1239
     54  CA        22.5140   32.1910   33.2460 C.3   173  ASP173      0.1674
     55  C         23.7140   32.5100   34.1110 C.2   173  ASP173      0.2266
     56  O         24.1470   31.6660   34.8530 O.2   173  ASP173     -0.2867
     57  CB        21.2930   32.0380   34.1270 C.3   173  ASP173      0.1410
     58  CG        19.9840   32.0070   33.3190 C.2   173  ASP173      0.3668
     59  OD1       19.6380   30.9430   32.8120 O.co2 173  ASP173     -0.2456
     60  OD2       19.3170   33.0430   33.1960 O.co2 173  ASP173     -0.2456
     61  N         24.5920   29.0180   36.1300 N.3   203  ILE203     -0.1245
     62  CA        23.6190   27.9190   36.0230 C.3   203  ILE203      0.1561
     63  C         23.2810   27.6070   34.5550 C.2   203  ILE203      0.2260
     64  O         23.0440   28.5240   33.7390 O.2   203  ILE203     -0.2867
     65  CB        22.3330   28.1870   36.7810 C.3   203  ILE203      0.0252
     66  CG1       22.6260   28.8760   38.1200 C.3   203  ILE203      0.0019
     67  CG2       21.6060   26.8500   37.0400 C.3   203  ILE203      0.0019
     68  CD1       23.4940   28.0560   39.0060 C.3   203  ILE203      0.0001
     69  N         20.8430   25.3570   31.9190 N.3   205  SER205     -0.1217
     70  CA        19.4580   24.8680   31.9520 C.3   205  SER205      0.1889
     71  C         19.1170   24.3230   30.5670 C.2   205  SER205      0.2288
     72  O         18.7300   25.1030   29.6960 O.2   205  SER205     -0.2866
     73  CB        18.5450   26.0000   32.2960 C.3   205  SER205      0.2089
     74  OG        18.8720   26.5770   33.5470 O.3   205  SER205     -0.2183
@<TRIPOS>BOND
     1    72    71    2
     2    71    70    1
     3    69    70    1
     4    70    73    1
     5    73    74    1
     6    53    54    1
     7    59    58   ar
     8    60    58   ar
     9    54    55    1
    10    54    57    1
    11    58    57    1
    12    64    63    2
    13    55    56    2
    14    51    49    1
    15    63    62    1
    16    30    31    1
    17    31    32    1
    18    31    34    1
    19    35    36    1
    20    35    34    1
    21    38    36   am
    22    49    50    1
    23    49    46    1
    24    48    47    2
    25    62    61    1
    26    62    65    1
    27    52    50    1
    28    47    46    1
    29    36    37    2
    30    32    33    2
    31    65    67    1
    32    65    66    1
    33    46    45    1
    34    25    26    1
    35    25    22    1
    36    24    23    2
    37    23    22    1
    38    26    27    1
    39    22    21    1
    40    66    68    1
    41    27    28    1
    42    21    15   am
    43    28    29    1
    44    20    18    1
    45    15    14    1
    46    15    16    2
    47    17    14    1
    48    17    18    1
    49    19    18    1
    50    14    13    1
    51    11    10    2
    52    13    10   am
    53    10     9    1
    54    41    42    2
    55    41    40    1
    56     6     5    1
    57     6     7    1
    58     5     2    1
    59     9    12    1
    60     9     8    1
    61    40    43    1
    62    40    39    1
    63    43    44    1
    64     4     3    2
    65     7     1    1
    66     8     3   am
    67     3     2    1
    68     2     1    1
