@<TRIPOS>MOLECULE
tmp/3kohB01.pdb
 135 127 0 0 0
SMALL
GASTEIGER

@<TRIPOS>ATOM
      1  N         20.9950   26.1610  -28.1360 N.3    76  PHE76      -0.1241
      2  CA        21.6570   25.0930  -27.4630 C.3    76  PHE76       0.1605
      3  C         20.7310   24.0090  -27.0000 C.2    76  PHE76       0.2264
      4  O         20.8680   23.5590  -25.8970 O.2    76  PHE76      -0.2867
      5  CB        22.4050   25.6320  -26.2800 C.3    76  PHE76       0.0534
      6  CG        23.7380   26.1790  -26.6130 C.ar   76  PHE76      -0.0203
      7  CD1       24.7960   25.3580  -26.7920 C.ar   76  PHE76      -0.0042
      8  CD2       23.9370   27.5120  -26.7010 C.ar   76  PHE76      -0.0042
      9  CE1       25.9840   25.8480  -27.0740 C.ar   76  PHE76      -0.0003
     10  CE2       25.1320   27.9950  -26.9780 C.ar   76  PHE76      -0.0003
     11  CZ        26.1540   27.1650  -27.1690 C.ar   76  PHE76      -0.0000
     12  N         26.3250   23.4790  -17.8810 N.3    85  ILE85      -0.1245
     13  CA        25.9650   24.8530  -18.1250 C.3    85  ILE85       0.1561
     14  C         24.5010   25.0330  -18.4100 C.2    85  ILE85       0.2260
     15  O         23.8870   25.9620  -17.9450 O.2    85  ILE85      -0.2867
     16  CB        26.6900   25.3700  -19.3600 C.3    85  ILE85       0.0252
     17  CG1       28.1690   25.1530  -19.2380 C.3    85  ILE85       0.0019
     18  CG2       26.4840   26.8100  -19.5500 C.3    85  ILE85       0.0019
     19  CD1       28.9020   25.7720  -20.3070 C.3    85  ILE85       0.0001
     20  N         34.1570   27.5620  -32.0080 N.3   173  PHE173     -0.1241
     21  CA        33.9560   28.2010  -30.7360 C.3   173  PHE173      0.1605
     22  C         33.9860   29.6710  -30.9360 C.2   173  PHE173      0.2264
     23  O         33.2760   30.3880  -30.3150 O.2   173  PHE173     -0.2867
     24  CB        35.0750   27.8790  -29.7910 C.3   173  PHE173      0.0534
     25  CG        35.2510   26.4400  -29.5020 C.ar  173  PHE173     -0.0203
     26  CD1       34.2450   25.5600  -29.6380 C.ar  173  PHE173     -0.0042
     27  CD2       36.4420   25.9790  -29.0330 C.ar  173  PHE173     -0.0042
     28  CE1       34.4440   24.2740  -29.3380 C.ar  173  PHE173     -0.0003
     29  CE2       36.6140   24.7060  -28.7500 C.ar  173  PHE173     -0.0003
     30  CZ        35.6210   23.8610  -28.8990 C.ar  173  PHE173     -0.0000
     31  N         30.7710   30.7820  -32.9090 N.3   176  ASN176     -0.1225
     32  CA        29.5610   30.7440  -32.1200 C.3   176  ASN176      0.1785
     33  C         29.4510   31.8540  -31.1440 C.2   176  ASN176      0.2597
     34  O         28.3910   32.3660  -30.9040 O.2   176  ASN176     -0.2718
     35  CB        29.4910   29.4660  -31.3350 C.3   176  ASN176      0.1169
     36  CG        28.8410   28.3890  -32.0690 C.2   176  ASN176      0.2627
     37  OD1       28.3350   28.5940  -33.1260 O.2   176  ASN176     -0.2716
     38  ND2       28.8670   27.2200  -31.5240 N.am  176  ASN176     -0.0877
     39  N         30.5510   32.1530  -30.5020 N.am  177  PHE177     -0.1976
     40  CA        30.6230   33.2400  -29.5690 C.3   177  PHE177      0.1639
     41  C         30.4060   34.5280  -30.2660 C.2   177  PHE177      0.2290
     42  O         29.8440   35.4220  -29.7330 O.2   177  PHE177     -0.2864
     43  CB        31.9690   33.2410  -28.9060 C.3   177  PHE177      0.0560
     44  CG        31.9670   33.8720  -27.5970 C.ar  177  PHE177     -0.0200
     45  CD1       30.8090   34.0590  -26.9250 C.ar  177  PHE177     -0.0042
     46  CD2       33.1060   34.2690  -27.0320 C.ar  177  PHE177     -0.0042
     47  CE1       30.8070   34.6410  -25.7280 C.ar  177  PHE177     -0.0003
     48  CE2       33.0960   34.8450  -25.8370 C.ar  177  PHE177     -0.0003
     49  CZ        31.9520   35.0290  -25.1810 C.ar  177  PHE177     -0.0000
     50  N         26.7380   34.5870  -31.2140 N.3   180  LEU180     -0.1245
     51  CA        25.8690   34.6310  -30.0760 C.3   180  LEU180      0.1561
     52  C         25.6830   36.0230  -29.5660 C.2   180  LEU180      0.2260
     53  O         24.7940   36.2770  -28.7990 O.2   180  LEU180     -0.2867
     54  CB        26.4000   33.7420  -28.9830 C.3   180  LEU180      0.0270
     55  CG        26.1150   32.2710  -29.1690 C.3   180  LEU180      0.0019
     56  CD1       26.8850   31.5370  -28.1740 C.3   180  LEU180      0.0001
     57  CD2       24.7070   32.0340  -28.9550 C.3   180  LEU180      0.0001
     58  N         27.0500   23.8570  -33.1810 N.3   209  VAL209     -0.1245
     59  CA        27.0300   23.2590  -31.8720 C.3   209  VAL209      0.1561
     60  C         27.0760   21.7820  -31.9810 C.2   209  VAL209      0.2260
     61  O         27.7680   21.1260  -31.2600 O.2   209  VAL209     -0.2867
     62  CB        25.8110   23.6470  -31.0990 C.3   209  VAL209      0.0252
     63  CG1       25.8310   22.9880  -29.7860 C.3   209  VAL209      0.0019
     64  CG2       25.7850   25.1040  -30.9060 C.3   209  VAL209      0.0019
     65  N         30.3870   20.2420  -32.9080 N.3   212  VAL212     -0.1245
     66  CA        31.2150   20.1140  -31.7570 C.3   212  VAL212      0.1561
     67  C         30.8270   18.9090  -30.9800 C.2   212  VAL212      0.2260
     68  O         31.6640   18.2720  -30.4220 O.2   212  VAL212     -0.2867
     69  CB        31.1560   21.2990  -30.8940 C.3   212  VAL212      0.0252
     70  CG1       31.9520   21.0620  -29.6790 C.3   212  VAL212      0.0019
     71  CG2       31.7090   22.4230  -31.6230 C.3   212  VAL212      0.0019
     72  N         34.2650   23.8200  -24.8880 N.3   268  PHE268     -0.1227
     73  CA        34.1470   25.1580  -25.4170 C.3   268  PHE268      0.1736
     74  C         34.3010   26.2750  -24.4240 C.2   268  PHE268      0.2595
     75  O         34.8640   27.2850  -24.7190 O.2   268  PHE268     -0.2718
     76  CB        32.9500   25.3370  -26.3390 C.3   268  PHE268      0.0547
     77  CG        31.6810   25.5870  -25.6510 C.ar  268  PHE268     -0.0202
     78  CD1       31.4770   26.7440  -24.9580 C.ar  268  PHE268     -0.0042
     79  CD2       30.6610   24.6920  -25.7410 C.ar  268  PHE268     -0.0042
     80  CE1       30.2940   26.9800  -24.3330 C.ar  268  PHE268     -0.0003
     81  CE2       29.4910   24.9330  -25.1270 C.ar  268  PHE268     -0.0003
     82  CZ        29.3110   26.0810  -24.4140 C.ar  268  PHE268     -0.0000
     83  N         33.7900   26.1280  -23.2400 N.am  269  ALA269     -0.1980
     84  CA        33.9120   27.2530  -22.3940 C.3   269  ALA269      0.1597
     85  C         35.3450   27.4810  -22.2080 C.2   269  ALA269      0.2287
     86  O         35.8350   28.5570  -22.3640 O.2   269  ALA269     -0.2864
     87  CB        33.3450   26.9310  -21.0990 C.3   269  ALA269      0.0319
     88  N         37.3190   29.0800  -25.1600 N.3   272  GLU272     -0.1231
     89  CA        36.8750   30.3560  -25.6670 C.3   272  GLU272      0.1699
     90  C         36.8450   31.5490  -24.7600 C.2   272  GLU272      0.2592
     91  O         37.1220   32.6370  -25.1640 O.2   272  GLU272     -0.2718
     92  CB        35.5200   30.2110  -26.2850 C.3   272  GLU272      0.0402
     93  CG        35.2800   31.3000  -27.2100 C.3   272  GLU272      0.1161
     94  CD        36.4540   31.4920  -28.0740 C.2   272  GLU272      0.3649
     95  OE1       36.5970   32.5530  -28.6920 O.co2 272  GLU272     -0.2457
     96  OE2       37.2580   30.5610  -28.1230 O.co2 272  GLU272     -0.2457
     97  N         36.3910   31.3700  -23.5540 N.am  273  THR273     -0.1953
     98  CA        36.3180   32.4670  -22.6450 C.3   273  THR273      0.1897
     99  C         37.6610   33.0120  -22.2480 C.2   273  THR273      0.2313
    100  O         37.8520   34.1810  -22.1770 O.2   273  THR273     -0.2863
    101  CB        35.6620   31.9630  -21.4540 C.3   273  THR273      0.1794
    102  OG1       35.8250   30.5660  -21.4770 O.3   273  THR273     -0.2208
    103  CG2       34.2430   32.1920  -21.5460 C.3   273  THR273      0.0378
    104  N         30.9840   38.4570  -20.3260 N.3   334  VAL334     -0.1245
    105  CA        29.5900   38.0950  -20.3500 C.3   334  VAL334      0.1561
    106  C         28.8200   39.0050  -19.4410 C.2   334  VAL334      0.2260
    107  O         28.7250   38.8060  -18.2840 O.2   334  VAL334     -0.2867
    108  CB        29.3930   36.6790  -19.9440 C.3   334  VAL334      0.0252
    109  CG1       30.6440   36.0910  -19.6020 C.3   334  VAL334      0.0019
    110  CG2       28.4560   36.5980  -18.8690 C.3   334  VAL334      0.0019
    111  N         24.8100   34.6520  -17.0620 N.3   338  LEU338     -0.1245
    112  CA        24.1270   33.5930  -17.7670 C.3   338  LEU338      0.1561
    113  C         22.8240   33.4620  -17.0650 C.2   338  LEU338      0.2260
    114  O         22.7510   33.6740  -15.8830 O.2   338  LEU338     -0.2867
    115  CB        24.8720   32.2900  -17.6590 C.3   338  LEU338      0.0270
    116  CG        25.5610   31.6270  -18.8180 C.3   338  LEU338      0.0019
    117  CD1       25.8610   32.5650  -19.8960 C.3   338  LEU338      0.0001
    118  CD2       26.7820   30.9910  -18.3250 C.3   338  LEU338      0.0001
    119  N         30.9620   30.0310  -11.9610 N.3   407  CYS407     -0.1235
    120  CA        31.7940   29.4410  -13.0040 C.3   407  CYS407      0.1677
    121  C         32.5880   28.2520  -12.4720 C.2   407  CYS407      0.2270
    122  O         33.1940   28.3270  -11.4030 O.2   407  CYS407     -0.2867
    123  CB        32.7440   30.4880  -13.5880 C.3   407  CYS407      0.0956
    124  SG        33.8540   29.8580  -14.8690 S.3   407  CYS407     -0.0801
    125  N         25.6850   37.8750  -25.5610 N.3   448  PHE448     -0.1241
    126  CA        26.1640   36.8310  -24.6990 C.3   448  PHE448      0.1605
    127  C         27.5230   37.2130  -24.2010 C.2   448  PHE448      0.2264
    128  O         27.8540   37.0450  -23.0650 O.2   448  PHE448     -0.2867
    129  CB        26.2980   35.6040  -25.5630 C.3   448  PHE448      0.0534
    130  CG        26.4000   34.3260  -24.8260 C.ar  448  PHE448     -0.0203
    131  CD1       25.3350   33.4850  -24.7520 C.ar  448  PHE448     -0.0042
    132  CD2       27.5650   33.9380  -24.2570 C.ar  448  PHE448     -0.0042
    133  CE1       25.4270   32.3100  -24.1120 C.ar  448  PHE448     -0.0003
    134  CE2       27.6520   32.7740  -23.6100 C.ar  448  PHE448     -0.0003
    135  CZ        26.5850   31.9550  -23.5390 C.ar  448  PHE448     -0.0000
@<TRIPOS>BOND
     1    58    59    1
     2    37    36    2
     3    31    32    1
     4    65    66    1
     5    32    35    1
     6    32    33    1
     7    36    38   am
     8    36    35    1
     9    20    21    1
    10    60    59    1
    11    60    61    2
    12    59    62    1
    13    66    67    1
    14    66    69    1
    15    71    69    1
    16    50    51    1
    17    33    34    2
    18    33    39   am
    19    62    64    1
    20    62    63    1
    21    67    68    2
    22    22    21    1
    23    22    23    2
    24    69    70    1
    25    21    24    1
    26    39    40    1
    27    41    42    2
    28    41    40    1
    29    51    52    1
    30    51    54    1
    31    24    25    1
    32    26    25   ar
    33    26    28   ar
    34    40    43    1
    35    52    53    2
    36    25    27   ar
    37    28    30   ar
    38    55    54    1
    39    55    57    1
    40    55    56    1
    41    27    29   ar
    42    43    44    1
    43    30    29   ar
    44    95    94   ar
    45     1     2    1
    46    96    94   ar
    47    94    93    1
    48    44    46   ar
    49    44    45   ar
    50     2     3    1
    51     2     5    1
    52    93    92    1
    53    11     9   ar
    54    11    10   ar
    55     9     7   ar
    56    46    48   ar
    57     3     4    2
    58    10     8   ar
    59    45    47   ar
    60     7     6   ar
    61     8     6   ar
    62     6     5    1
    63    76    77    1
    64    76    73    1
    65    92    89    1
    66    48    49   ar
    67    79    77   ar
    68    79    81   ar
    69    47    49   ar
    70    89    88    1
    71    89    90    1
    72    77    78   ar
    73   129   130    1
    74   129   126    1
    75   125   126    1
    76    73    72    1
    77    73    74    1
    78    91    90    2
    79    81    82   ar
    80    78    80   ar
    81   130   131   ar
    82   130   132   ar
    83    90    97   am
    84   131   133   ar
    85    75    74    2
    86   126   127    1
    87    74    83   am
    88    82    80   ar
    89   132   134   ar
    90   127   128    2
    91   133   135   ar
    92   134   135   ar
    93    97    98    1
    94    83    84    1
    95    98    99    1
    96    98   101    1
    97    84    85    1
    98    84    87    1
    99    86    85    2
   100    99   100    2
   101   103   101    1
   102   102   101    1
   103   105   104    1
   104   105   108    1
   105   105   106    1
   106    19    17    1
   107   108   109    1
   108   108   110    1
   109   117   116    1
   110    18    16    1
   111   106   107    2
   112    16    17    1
   113    16    13    1
   114   116   118    1
   115   116   115    1
   116    14    13    1
   117    14    15    2
   118    13    12    1
   119   112   115    1
   120   112   113    1
   121   112   111    1
   122   113   114    2
   123   124   123    1
   124   123   120    1
   125   120   121    1
   126   120   119    1
   127   121   122    2
