@<TRIPOS>MOLECULE
tmp/3kooA00.pdb
 207 206 0 0 0
SMALL
GASTEIGER

@<TRIPOS>ATOM
      1  N         68.1690   -9.7110   65.0920 N.3   264  PHE264     -0.1228
      2  CA        68.4870  -11.1210   65.1120 C.3   264  PHE264      0.1721
      3  C         68.8680  -11.5230   66.5230 C.2   264  PHE264      0.2437
      4  O         69.6800  -10.8380   67.1490 O.2   264  PHE264     -0.2733
      5  CB        69.6580  -11.3890   64.1780 C.3   264  PHE264      0.0547
      6  CG        70.2740  -12.7080   64.3920 C.ar  264  PHE264     -0.0202
      7  CD1       71.4280  -12.8310   65.1370 C.ar  264  PHE264     -0.0042
      8  CD2       69.6690  -13.8490   63.9040 C.ar  264  PHE264     -0.0042
      9  CE1       71.9920  -14.0790   65.3640 C.ar  264  PHE264     -0.0003
     10  CE2       70.2160  -15.0910   64.1270 C.ar  264  PHE264     -0.0003
     11  CZ        71.3760  -15.2120   64.8590 C.ar  264  PHE264     -0.0000
     12  N         68.2520  -12.6030   67.0580 N.am  265  PRO265     -0.2729
     13  CA        67.1270  -13.3690   66.5280 C.3   265  PRO265      0.1401
     14  C         65.9550  -13.1060   67.4430 C.2   265  PRO265      0.2269
     15  O         65.9100  -13.6670   68.5410 O.2   265  PRO265     -0.2865
     16  CB        67.5740  -14.7960   66.7600 C.3   265  PRO265      0.0296
     17  CG        68.3720  -14.6990   68.0830 C.3   265  PRO265      0.0237
     18  CD        68.7260  -13.2270   68.3010 C.3   265  PRO265      0.0939
     19  N         69.4090   -3.8150   65.3200 N.3   332  ASP332     -0.1225
     20  CA        70.2380   -4.9270   64.8690 C.3   332  ASP332      0.1805
     21  C         70.1080   -5.0040   63.3520 C.2   332  ASP332      0.2597
     22  O         70.1300   -3.9900   62.6700 O.2   332  ASP332     -0.2718
     23  CB        69.7640   -6.2370   65.5070 C.3   332  ASP332      0.1424
     24  CG        70.8630   -7.2820   65.6020 C.2   332  ASP332      0.3668
     25  OD1       70.5830   -8.4870   65.4440 O.co2 332  ASP332     -0.2456
     26  OD2       72.0180   -6.9020   65.8480 O.co2 332  ASP332     -0.2456
     27  N         69.9440   -6.2000   62.8210 N.am  333  TRP333     -0.1976
     28  CA        69.7320   -6.3300   61.3900 C.3   333  TRP333      0.1640
     29  C         68.5670   -5.4850   60.8510 C.2   333  TRP333      0.2290
     30  O         68.5160   -5.1940   59.6490 O.2   333  TRP333     -0.2864
     31  CB        69.5410   -7.7960   61.0010 C.3   333  TRP333      0.0576
     32  CG        70.8170   -8.5410   60.9270 C.ar  333  TRP333      0.0006
     33  CD1       71.3890   -9.2850   61.9160 C.ar  333  TRP333      0.0946
     34  CD2       71.6970   -8.6190   59.8030 C.ar  333  TRP333      0.0152
     35  NE1       72.5740   -9.8240   61.4760 N.ar  333  TRP333     -0.2442
     36  CE2       72.7880   -9.4330   60.1820 C.ar  333  TRP333      0.0810
     37  CE3       71.6740   -8.0780   58.5110 C.ar  333  TRP333      0.0012
     38  CZ2       73.8470   -9.7200   59.3180 C.ar  333  TRP333      0.0191
     39  CZ3       72.7300   -8.3720   57.6480 C.ar  333  TRP333      0.0001
     40  CH2       73.7970   -9.1850   58.0580 C.ar  333  TRP333      0.0015
     41  N         69.7640   -1.9760   60.0790 N.3   336  MET336     -0.1245
     42  CA        70.4140   -2.0150   58.7670 C.3   336  MET336      0.1570
     43  C         69.4160   -1.8690   57.6220 C.2   336  MET336      0.2261
     44  O         69.5740   -1.0280   56.7360 O.2   336  MET336     -0.2867
     45  CB        71.1560   -3.3330   58.5900 C.3   336  MET336      0.0387
     46  CG        71.5710   -3.5940   57.1690 C.3   336  MET336      0.0595
     47  SD        73.1460   -4.4610   57.0670 S.3   336  MET336     -0.1393
     48  CE        74.1840   -3.2520   57.9040 C.3   336  MET336      0.0692
     49  N         72.4750    0.0490   65.3840 N.3   357  THR357     -0.1204
     50  CA        73.0190   -0.1490   64.0430 C.3   357  THR357      0.1979
     51  C         73.3690    1.1570   63.3590 C.2   357  THR357      0.2459
     52  O         72.5360    2.0510   63.2830 O.2   357  THR357     -0.2732
     53  CB        72.0190   -0.9020   63.1710 C.3   357  THR357      0.1783
     54  OG1       71.3980   -1.9370   63.9490 O.3   357  THR357     -0.2211
     55  CG2       72.7100   -1.5000   61.9420 C.3   357  THR357      0.0376
     56  N         74.6080    1.2560   62.8450 N.am  358  PRO358     -0.2728
     57  CA        75.1870    2.4450   62.2160 C.3   358  PRO358      0.1401
     58  C         75.0950    2.4130   60.6920 C.2   358  PRO358      0.2269
     59  O         74.9760    1.3420   60.0890 O.2   358  PRO358     -0.2865
     60  CB        76.6510    2.3390   62.6140 C.3   358  PRO358      0.0296
     61  CG        76.9130    0.8470   62.5960 C.3   358  PRO358      0.0237
     62  CD        75.5740    0.1440   62.8400 C.3   358  PRO358      0.0939
     63  N         76.9810    2.4000   57.5770 N.3   360  ILE360     -0.1245
     64  CA        78.3160    2.1700   57.0450 C.3   360  ILE360      0.1561
     65  C         78.2770    2.0830   55.5160 C.2   360  ILE360      0.2260
     66  O         77.6640    1.1700   54.9380 O.2   360  ILE360     -0.2867
     67  CB        78.9650    0.8930   57.6440 C.3   360  ILE360      0.0252
     68  CG1       79.0150    0.9720   59.1760 C.3   360  ILE360      0.0019
     69  CG2       80.3530    0.6760   57.0740 C.3   360  ILE360      0.0019
     70  CD1       79.9710    2.0020   59.7120 C.3   360  ILE360      0.0001
     71  N         84.0730   -9.9500   65.5040 N.3   378  PHE378     -0.1241
     72  CA        83.1820  -10.3140   64.3950 C.3   378  PHE378      0.1605
     73  C         83.4620  -11.7230   63.9090 C.2   378  PHE378      0.2264
     74  O         83.2710  -12.0220   62.7270 O.2   378  PHE378     -0.2867
     75  CB        83.3240   -9.3480   63.2070 C.3   378  PHE378      0.0534
     76  CG        82.7010   -7.9870   63.4330 C.ar  378  PHE378     -0.0203
     77  CD1       82.0840   -7.6750   64.6370 C.ar  378  PHE378     -0.0042
     78  CD2       82.7320   -7.0220   62.4370 C.ar  378  PHE378     -0.0042
     79  CE1       81.5150   -6.4290   64.8450 C.ar  378  PHE378     -0.0003
     80  CE2       82.1660   -5.7720   62.6420 C.ar  378  PHE378     -0.0003
     81  CZ        81.5560   -5.4770   63.8460 C.ar  378  PHE378     -0.0000
     82  N         82.0430  -14.7460   65.1830 N.3   380  TYR380     -0.1227
     83  CA        80.8340  -15.5620   65.0850 C.3   380  TYR380      0.1736
     84  C         80.1310  -15.3610   63.7500 C.2   380  TYR380      0.2595
     85  O         79.5210  -16.2850   63.2190 O.2   380  TYR380     -0.2718
     86  CB        79.8610  -15.2010   66.1970 C.3   380  TYR380      0.0548
     87  CG        79.3870  -13.7840   66.0660 C.ar  380  TYR380     -0.0200
     88  CD1       78.0710  -13.4930   65.7270 C.ar  380  TYR380     -0.0009
     89  CD2       80.2700  -12.7340   66.2390 C.ar  380  TYR380     -0.0009
     90  CE1       77.6470  -12.1850   65.5870 C.ar  380  TYR380      0.0417
     91  CE2       79.8610  -11.4350   66.1060 C.ar  380  TYR380      0.0417
     92  CZ        78.5540  -11.1580   65.7770 C.ar  380  TYR380      0.1957
     93  OH        78.1820   -9.8440   65.6470 O.3   380  TYR380     -0.2866
     94  N         80.1880  -14.1490   63.2130 N.am  381  GLN381     -0.1979
     95  CA        79.5730  -13.9080   61.9180 C.3   381  GLN381      0.1601
     96  C         80.0560  -14.9890   60.9620 C.2   381  GLN381      0.2287
     97  O         79.2530  -15.6920   60.3640 O.2   381  GLN381     -0.2864
     98  CB        79.8460  -12.4820   61.4180 C.3   381  GLN381      0.0394
     99  CG        79.1970  -11.3880   62.3020 C.3   381  GLN381      0.0908
    100  CD        79.2990   -9.9870   61.7130 C.2   381  GLN381      0.2608
    101  OE1       79.8190   -9.8020   60.6170 O.2   381  GLN381     -0.2717
    102  NE2       78.8050   -8.9910   62.4490 N.am  381  GLN381     -0.0878
    103  N         78.5290  -18.4730   61.2440 N.3   384  PHE384     -0.1241
    104  CA        77.1930  -18.6370   60.6860 C.3   384  PHE384      0.1605
    105  C         77.2540  -19.1060   59.2430 C.2   384  PHE384      0.2264
    106  O         76.6990  -20.1360   58.8950 O.2   384  PHE384     -0.2867
    107  CB        76.4350  -17.3180   60.7720 C.3   384  PHE384      0.0534
    108  CG        76.0990  -16.9160   62.1690 C.ar  384  PHE384     -0.0203
    109  CD1       76.4290  -17.7310   63.2320 C.ar  384  PHE384     -0.0042
    110  CD2       75.4380  -15.7320   62.4240 C.ar  384  PHE384     -0.0042
    111  CE1       76.1120  -17.3640   64.5260 C.ar  384  PHE384     -0.0003
    112  CE2       75.1170  -15.3640   63.7170 C.ar  384  PHE384     -0.0003
    113  CZ        75.4560  -16.1830   64.7650 C.ar  384  PHE384     -0.0000
    114  N         71.6100  -15.4100   75.2030 N.3   405  LEU405     -0.1245
    115  CA        71.8040  -14.1780   74.4300 C.3   405  LEU405      0.1561
    116  C         71.2120  -12.9410   75.1060 C.2   405  LEU405      0.2260
    117  O         71.8640  -11.9110   75.2170 O.2   405  LEU405     -0.2867
    118  CB        71.1960  -14.3310   73.0350 C.3   405  LEU405      0.0270
    119  CG        71.7830  -15.4880   72.2350 C.3   405  LEU405      0.0019
    120  CD1       70.9950  -15.7350   70.9810 C.3   405  LEU405      0.0001
    121  CD2       73.2330  -15.1760   71.9220 C.3   405  LEU405      0.0001
    122  N         82.0830  -13.8330   72.1040 N.3   416  MET416     -0.1245
    123  CA        81.8850  -14.0390   70.6690 C.3   416  MET416      0.1570
    124  C         83.1050  -13.7470   69.7780 C.2   416  MET416      0.2261
    125  O         82.9760  -13.5260   68.5720 O.2   416  MET416     -0.2867
    126  CB        80.6560  -13.2730   70.1960 C.3   416  MET416      0.0387
    127  CG        79.4070  -13.6630   70.9470 C.3   416  MET416      0.0595
    128  SD        78.0390  -12.5910   70.5130 S.3   416  MET416     -0.1393
    129  CE        78.6420  -10.9840   71.0430 C.3   416  MET416      0.0692
    130  N         72.7380  -13.1500   57.4500 N.3   463  TYR463     -0.1241
    131  CA        74.2030  -13.0720   57.5000 C.3   463  TYR463      0.1605
    132  C         74.8780  -13.7130   56.2880 C.2   463  TYR463      0.2264
    133  O         76.0980  -13.6440   56.1650 O.2   463  TYR463     -0.2867
    134  CB        74.7240  -13.8400   58.7090 C.3   463  TYR463      0.0534
    135  CG        74.4730  -13.2740   60.1040 C.ar  463  TYR463     -0.0201
    136  CD1       75.4390  -12.4890   60.7420 C.ar  463  TYR463     -0.0009
    137  CD2       73.3160  -13.5970   60.8150 C.ar  463  TYR463     -0.0009
    138  CE1       75.2430  -12.0060   62.0270 C.ar  463  TYR463      0.0417
    139  CE2       73.1120  -13.1180   62.1050 C.ar  463  TYR463      0.0417
    140  CZ        74.0830  -12.3260   62.7050 C.ar  463  TYR463      0.1957
    141  OH        73.8850  -11.8480   63.9800 O.3   463  TYR463     -0.2866
    142  N         77.3760   -1.9950   74.1320 N.3   493  ASP493     -0.1225
    143  CA        77.1540   -2.9270   73.0370 C.3   493  ASP493      0.1805
    144  C         78.5050   -3.1220   72.3910 C.2   493  ASP493      0.2598
    145  O         78.9650   -2.2870   71.6240 O.2   493  ASP493     -0.2718
    146  CB        76.1280   -2.3840   72.0300 C.3   493  ASP493      0.1424
    147  CG        75.8990   -3.3200   70.8310 C.2   493  ASP493      0.3668
    148  OD1       76.6110   -4.3330   70.6730 O.co2 493  ASP493     -0.2456
    149  OD2       74.9930   -3.0230   70.0360 O.co2 493  ASP493     -0.2456
    150  N         79.1320   -4.2310   72.7510 N.am  494  PHE494     -0.1962
    151  CA        80.4680   -4.6240   72.3330 C.3   494  PHE494      0.1771
    152  C         80.5680   -4.7950   70.8270 C.2   494  PHE494      0.2619
    153  O         81.5720   -4.4270   70.2100 O.2   494  PHE494     -0.2715
    154  CB        80.7450   -5.9320   73.0470 C.3   494  PHE494      0.0574
    155  CG        79.6440   -6.2910   74.0020 C.ar  494  PHE494     -0.0200
    156  CD1       78.5300   -6.9930   73.5650 C.ar  494  PHE494     -0.0042
    157  CD2       79.6670   -5.8370   75.3140 C.ar  494  PHE494     -0.0042
    158  CE1       77.4850   -7.2860   74.4370 C.ar  494  PHE494     -0.0003
    159  CE2       78.6200   -6.1290   76.1930 C.ar  494  PHE494     -0.0003
    160  CZ        77.5320   -6.8520   75.7510 C.ar  494  PHE494     -0.0000
    161  N         79.5220   -5.3410   70.2210 N.am  495  VAL495     -0.1963
    162  CA        79.5430   -5.5910   68.7790 C.3   495  VAL495      0.1727
    163  C         79.3220   -4.3240   67.9790 C.2   495  VAL495      0.2616
    164  O         80.1730   -3.9360   67.1760 O.2   495  VAL495     -0.2715
    165  CB        78.4850   -6.6100   68.3690 C.3   495  VAL495      0.0290
    166  CG1       78.1640   -6.4570   66.9040 C.3   495  VAL495      0.0023
    167  CG2       78.9740   -8.0060   68.6780 C.3   495  VAL495      0.0023
    168  N         78.1610   -3.7060   68.2050 N.am  496  LEU496     -0.1977
    169  CA        77.8090   -2.4130   67.6160 C.3   496  LEU496      0.1596
    170  C         78.1280   -1.2920   68.6160 C.2   496  LEU496      0.2287
    171  O         77.2570   -0.8330   69.3390 O.2   496  LEU496     -0.2864
    172  CB        76.3210   -2.3810   67.2050 C.3   496  LEU496      0.0297
    173  CG        75.7950   -3.4970   66.2770 C.3   496  LEU496      0.0022
    174  CD1       74.2760   -3.4410   66.0440 C.3   496  LEU496      0.0001
    175  CD2       76.5200   -3.4630   64.9490 C.3   496  LEU496      0.0001
    176  N         81.4260    3.2840   65.7340 N.3   500  MET500     -0.1245
    177  CA        81.2990    2.9320   64.3170 C.3   500  MET500      0.1570
    178  C         80.4140    3.9400   63.5940 C.2   500  MET500      0.2261
    179  O         80.5060    4.1170   62.3790 O.2   500  MET500     -0.2867
    180  CB        80.7210    1.5260   64.1510 C.3   500  MET500      0.0387
    181  CG        81.4910    0.4420   64.8880 C.3   500  MET500      0.0595
    182  SD        80.6460   -1.1600   64.8550 S.3   500  MET500     -0.1393
    183  CE        81.0820   -1.7390   63.2170 C.3   500  MET500      0.0692
    184  N         73.0820   -4.4160   74.2180 N.3   521  HIS521     -0.1226
    185  CA        72.6640   -4.5540   72.8230 C.3   521  HIS521      0.1752
    186  C         71.1670   -4.8090   72.6770 C.2   521  HIS521      0.2596
    187  O         70.6010   -4.6220   71.6040 O.2   521  HIS521     -0.2718
    188  CB        73.4430   -5.6780   72.1350 C.3   521  HIS521      0.0759
    189  CG        72.8690   -6.0830   70.8120 C.ar  521  HIS521      0.0818
    190  ND1       73.2290   -5.4770   69.6260 N.ar  521  HIS521     -0.2268
    191  CD2       71.9530   -7.0290   70.4910 C.ar  521  HIS521      0.1154
    192  CE1       72.5570   -6.0320   68.6330 C.ar  521  HIS521      0.1986
    193  NE2       71.7770   -6.9780   69.1310 N.ar  521  HIS521     -0.2212
    194  N         70.5270   -5.2500   73.7530 N.am  522  TRP522     -0.1976
    195  CA        69.0890   -5.4880   73.7360 C.3   522  TRP522      0.1640
    196  C         68.4310   -4.2360   74.2660 C.2   522  TRP522      0.2290
    197  O         67.8410   -4.2240   75.3400 O.2   522  TRP522     -0.2864
    198  CB        68.7520   -6.7310   74.5480 C.3   522  TRP522      0.0576
    199  CG        69.7380   -7.7810   74.2290 C.ar  522  TRP522      0.0006
    200  CD1       70.8690   -8.0850   74.9270 C.ar  522  TRP522      0.0946
    201  CD2       69.7430   -8.6230   73.0700 C.ar  522  TRP522      0.0152
    202  NE1       71.5610   -9.0840   74.2910 N.ar  522  TRP522     -0.2442
    203  CE2       70.8870   -9.4380   73.1520 C.ar  522  TRP522      0.0810
    204  CE3       68.8740   -8.7830   71.9810 C.ar  522  TRP522      0.0012
    205  CZ2       71.1860  -10.3940   72.1930 C.ar  522  TRP522      0.0191
    206  CZ3       69.1720   -9.7280   71.0360 C.ar  522  TRP522      0.0001
    207  CH2       70.3190  -10.5210   71.1410 C.ar  522  TRP522      0.0015
@<TRIPOS>BOND
     1    66    65    2
     2    65    64    1
     3   133   132    2
     4   132   131    1
     5    44    43    2
     6    64    63    1
     7    64    67    1
     8    47    46    1
     9    47    48    1
    10    69    67    1
    11    46    45    1
    12   130   131    1
    13   131   134    1
    14    43    42    1
    15    67    68    1
    16    39    40   ar
    17    39    37   ar
    18    40    38   ar
    19    37    34   ar
    20    45    42    1
    21   134   135    1
    22    42    41    1
    23   106   105    2
    24    68    70    1
    25   105   104    1
    26    38    36   ar
    27    30    29    2
    28    34    36   ar
    29    34    32   ar
    30    59    58    2
    31   135   136   ar
    32   135   137   ar
    33    36    35   ar
    34    97    96    2
    35   101   100    2
    36   104   107    1
    37   104   103    1
    38    58    57    1
    39   136   138   ar
    40   107   108    1
    41   137   139   ar
    42    29    28    1
    43    32    31    1
    44    32    33   ar
    45    96    95    1
    46    31    28    1
    47    28    27    1
    48    98    95    1
    49    98    99    1
    50    35    33   ar
    51   100    99    1
    52   100   102   am
    53    95    94    1
    54    55    53    1
    55   138   140   ar
    56   139   140   ar
    57   108   110   ar
    58   108   109   ar
    59    57    60    1
    60    57    56    1
    61   179   178    2
    62   110   112   ar
    63    78    80   ar
    64    78    76   ar
    65    61    60    1
    66    61    62    1
    67    80    81   ar
    68    22    21    2
    69   140   141    1
    70    74    73    2
    71    27    21   am
    72    62    56    1
    73    56    51   am
    74    53    54    1
    75    53    50    1
    76    75    76    1
    77    75    72    1
    78    94    84   am
    79   183   182    1
    80    85    84    2
    81   109   111   ar
    82    52    51    2
    83    21    20    1
    84    51    50    1
    85    76    77   ar
    86   178   177    1
    87   112   113   ar
    88    84    83    1
    89    81    79   ar
    90     8    10   ar
    91     8     6   ar
    92    73    72    1
    93    50    49    1
    94    10    11   ar
    95   180   177    1
    96   180   181    1
    97     5     6    1
    98     5     2    1
    99   177   176    1
   100     6     7   ar
   101    72    71    1
   102   111   113   ar
   103    77    79   ar
   104   182   181    1
   105    11     9   ar
   106    20    19    1
   107    20    23    1
   108   175   173    1
   109    83    82    1
   110    83    86    1
   111     1     2    1
   112     2     3    1
   113     7     9   ar
   114    25    24   ar
   115    23    24    1
   116    90    88   ar
   117    90    92   ar
   118    24    26   ar
   119    93    92    1
   120    88    87   ar
   121    92    91   ar
   122   174   173    1
   123    87    86    1
   124    87    89   ar
   125    91    89   ar
   126   173   172    1
   127     3    12   am
   128     3     4    2
   129    13    16    1
   130    13    12    1
   131    13    14    1
   132    16    17    1
   133   166   165    1
   134    12    18    1
   135   164   163    2
   136   172   169    1
   137    14    15    2
   138   169   168    1
   139   169   170    1
   140   163   168   am
   141   163   162    1
   142    17    18    1
   143   165   167    1
   144   165   162    1
   145   125   124    2
   146   170   171    2
   147   192   193   ar
   148   192   190   ar
   149   162   161    1
   150   193   191   ar
   151   190   189   ar
   152   124   123    1
   153   149   147   ar
   154   126   123    1
   155   126   127    1
   156   153   152    2
   157   161   152   am
   158   191   189   ar
   159   128   127    1
   160   128   129    1
   161   123   122    1
   162   148   147   ar
   163   189   188    1
   164   152   151    1
   165   147   146    1
   166   120   119    1
   167   206   207   ar
   168   206   204   ar
   169   207   205   ar
   170   187   186    2
   171   145   144    2
   172   121   119    1
   173   204   201   ar
   174   146   143    1
   175   188   185    1
   176   205   203   ar
   177   119   118    1
   178   151   150    1
   179   151   154    1
   180   144   150   am
   181   144   143    1
   182   186   185    1
   183   186   194   am
   184   185   184    1
   185   118   115    1
   186   143   142    1
   187   154   155    1
   188   201   203   ar
   189   201   199   ar
   190   203   202   ar
   191   156   155   ar
   192   156   158   ar
   193   195   194    1
   194   195   196    1
   195   195   198    1
   196   155   157   ar
   197   199   198    1
   198   199   200   ar
   199   196   197    2
   200   202   200   ar
   201   115   116    1
   202   115   114    1
   203   158   160   ar
   204   116   117    2
   205   157   159   ar
   206   160   159   ar
