@<TRIPOS>MOLECULE
tmp/3koqA01.pdb
 84 81 0 0 0
SMALL
GASTEIGER

@<TRIPOS>ATOM
      1  N          6.9850   38.1530   14.2000 N.3    35  ILE35      -0.1245
      2  CA         5.6830   38.6090   14.7250 C.3    35  ILE35       0.1561
      3  C          4.5170   38.1290   13.8640 C.2    35  ILE35       0.2260
      4  O          3.4130   37.8700   14.3970 O.2    35  ILE35      -0.2867
      5  CB         5.6550   40.1500   14.9160 C.3    35  ILE35       0.0252
      6  CG1        6.6590   40.5610   16.0100 C.3    35  ILE35       0.0019
      7  CG2        4.2510   40.6920   15.2630 C.3    35  ILE35       0.0019
      8  CD1        7.0760   42.0520   15.9860 C.3    35  ILE35       0.0001
      9  N          1.7770   36.0340   11.6830 N.3    37  PRO37      -0.2102
     10  CA         1.1290   34.7630   11.9420 C.3    37  PRO37       0.1504
     11  C          1.4050   33.7270   10.8550 C.2    37  PRO37       0.2576
     12  O          1.6120   34.0600    9.6810 O.2    37  PRO37      -0.2718
     13  CB        -0.3360   35.0950   11.8530 C.3    37  PRO37       0.0282
     14  CG        -0.3380   36.1980   10.7870 C.3    37  PRO37       0.0208
     15  CD         0.9050   37.0200   11.0560 C.3    37  PRO37       0.0893
     16  N          1.3250   32.4610   11.2410 N.am   38  THR38      -0.1939
     17  CA         1.4890   31.3710   10.2880 C.3    38  THR38       0.2028
     18  C          0.4390   30.2970   10.6510 C.2    38  THR38       0.2643
     19  O          0.0330   30.2220   11.8230 O.2    38  THR38      -0.2714
     20  CB         2.9130   30.7190   10.3450 C.3    38  THR38       0.1808
     21  OG1        3.1910   30.2060   11.6560 O.3    38  THR38      -0.2208
     22  CG2        4.0250   31.7340    9.9740 C.3    38  THR38       0.0379
     23  N          0.0280   29.4950    9.6770 N.am   39  GLY39      -0.1939
     24  CA        -1.0090   28.4630    9.8770 C.3    39  GLY39       0.2014
     25  C         -0.6190   27.5300   11.0030 C.2    39  GLY39       0.2639
     26  O          0.4920   27.0230   11.0310 O.2    39  GLY39      -0.2714
     27  N         -1.5050   27.3790   11.9730 N.am   40  GLY40      -0.1939
     28  CA        -1.2500   26.4850   13.1090 C.3    40  GLY40       0.2014
     29  C         -0.1530   26.9750   14.0080 C.2    40  GLY40       0.2638
     30  O          0.3230   26.2490   14.8470 O.2    40  GLY40      -0.2714
     31  N          0.2550   28.2410   13.8760 N.am   41  ASN41      -0.1972
     32  CA         1.4760   28.7300   14.5150 C.3    41  ASN41       0.1688
     33  C          2.6840   27.8240   14.2490 C.2    41  ASN41       0.2292
     34  O          3.5940   27.7240   15.1050 O.2    41  ASN41      -0.2864
     35  CB         1.2790   28.9210   16.0240 C.3    41  ASN41       0.1181
     36  CG         2.2700   29.8440   16.6360 C.2    41  ASN41       0.2629
     37  OD1        2.7280   30.8400   16.0280 O.2    41  ASN41      -0.2716
     38  ND2        2.5630   29.5950   17.9260 N.am   41  ASN41      -0.0877
     39  N          1.7310   23.3210    8.1490 N.3    82  TRP82      -0.1241
     40  CA         0.4420   22.6530    8.2350 C.3    82  TRP82       0.1605
     41  C          0.0130   22.1120    6.8740 C.2    82  TRP82       0.2264
     42  O          0.2040   22.7480    5.8390 O.2    82  TRP82      -0.2867
     43  CB        -0.5910   23.6040    8.7860 C.3    82  TRP82       0.0550
     44  CG        -1.9190   22.9610    9.1170 C.ar   82  TRP82       0.0003
     45  CD1       -2.1940   22.1740   10.1830 C.ar   82  TRP82       0.0946
     46  CD2       -3.1250   23.0450    8.3460 C.ar   82  TRP82       0.0152
     47  NE1       -3.5340   21.7720   10.1410 N.ar   82  TRP82      -0.2442
     48  CE2       -4.1210   22.3400    9.0440 C.ar   82  TRP82       0.0810
     49  CE3       -3.4860   23.7150    7.1690 C.ar   82  TRP82       0.0012
     50  CZ2       -5.4420   22.2600    8.5820 C.ar   82  TRP82       0.0191
     51  CZ3       -4.8050   23.6020    6.7140 C.ar   82  TRP82       0.0001
     52  CH2       -5.7530   22.8690    7.4360 C.ar   82  TRP82       0.0015
     53  N          0.4810   24.9640    3.5130 N.3    91  LEU91      -0.1245
     54  CA         0.4980   26.4490    3.6480 C.3    91  LEU91       0.1561
     55  C          1.8610   27.1040    3.3680 C.2    91  LEU91       0.2260
     56  O          2.0730   28.2970    3.6980 O.2    91  LEU91      -0.2867
     57  CB         0.0010   26.8600    5.0000 C.3    91  LEU91       0.0270
     58  CG        -1.3800   26.3000    5.4070 C.3    91  LEU91       0.0019
     59  CD1       -1.7890   26.8490    6.7780 C.3    91  LEU91       0.0001
     60  CD2       -2.5220   26.4170    4.3550 C.3    91  LEU91       0.0001
     61  N          1.7530   30.3740    1.4920 N.3    94  ILE94      -0.1231
     62  CA         0.9250   31.3370    2.1830 C.3    94  ILE94       0.1692
     63  C          1.6950   31.9260    3.3970 C.2    94  ILE94       0.2592
     64  O          1.8210   33.1420    3.5670 O.2    94  ILE94      -0.2718
     65  CB        -0.4660   30.6910    2.5790 C.3    94  ILE94       0.0266
     66  CG1       -1.2400   30.3180    1.3370 C.3    94  ILE94       0.0019
     67  CG2       -1.2410   31.6350    3.4790 C.3    94  ILE94       0.0020
     68  CD1       -2.4320   29.3640    1.6290 C.3    94  ILE94       0.0001
     69  N          2.1590   31.0440    4.2870 N.am   95  ASP95      -0.1974
     70  CA         2.9100   31.4110    5.4490 C.3    95  ASP95       0.1709
     71  C          4.1200   32.2710    5.0910 C.2    95  ASP95       0.2293
     72  O          4.3600   33.3500    5.6990 O.2    95  ASP95      -0.2864
     73  CB         3.3870   30.1300    6.1940 C.3    95  ASP95       0.1436
     74  CG         2.3010   29.4390    6.9810 C.2    95  ASP95       0.3671
     75  OD1        1.2240   30.0340    7.2260 O.co2  95  ASP95      -0.2456
     76  OD2        2.5570   28.2790    7.4150 O.co2  95  ASP95      -0.2456
     77  N          2.9970   35.7890    3.8500 N.3    98  ILE98      -0.1245
     78  CA         2.6050   36.6760    4.9210 C.3    98  ILE98       0.1561
     79  C          3.8850   37.2760    5.5340 C.2    98  ILE98       0.2260
     80  O          3.9900   38.4950    5.7820 O.2    98  ILE98      -0.2867
     81  CB         1.7670   35.9320    6.0110 C.3    98  ILE98       0.0252
     82  CG1        0.4130   35.5130    5.4870 C.3    98  ILE98       0.0019
     83  CG2        1.6080   36.8480    7.1800 C.3    98  ILE98       0.0019
     84  CD1       -0.2490   34.3910    6.3840 C.3    98  ILE98       0.0001
@<TRIPOS>BOND
     1    66    68    1
     2    66    65    1
     3    61    62    1
     4    62    65    1
     5    62    63    1
     6    65    67    1
     7    55    54    1
     8    55    56    2
     9    63    64    2
    10    63    69   am
    11    53    54    1
    12    54    57    1
    13    77    78    1
    14    69    70    1
    15    60    58    1
    16    78    79    1
    17    78    81    1
    18    57    58    1
    19    71    70    1
    20    71    72    2
    21    58    59    1
    22    70    73    1
    23    82    81    1
    24    82    84    1
    25    79    80    2
    26    42    41    2
    27    81    83    1
    28    73    74    1
    29    51    49   ar
    30    51    52   ar
    31    41    40    1
    32    74    75   ar
    33    74    76   ar
    34    49    46   ar
    35    52    50   ar
    36    39    40    1
    37    40    43    1
    38    46    48   ar
    39    46    44   ar
    40    50    48   ar
    41    43    44    1
    42    48    47   ar
    43    44    45   ar
    44    23    24    1
    45    23    18   am
    46    12    11    2
    47    24    25    1
    48    22    20    1
    49    47    45   ar
    50    17    20    1
    51    17    18    1
    52    17    16    1
    53    20    21    1
    54    18    19    2
    55    14    15    1
    56    14    13    1
    57    11    16   am
    58    11    10    1
    59    25    26    2
    60    25    27   am
    61    15     9    1
    62     9    10    1
    63    13    10    1
    64    27    28    1
    65    28    29    1
    66     3     4    2
    67     3     2    1
    68    31    29   am
    69    31    32    1
    70    29    30    2
    71     1     2    1
    72    33    32    1
    73    33    34    2
    74    32    35    1
    75     2     5    1
    76     5     7    1
    77     5     6    1
    78     8     6    1
    79    35    36    1
    80    37    36    2
    81    36    38   am
