@<TRIPOS>MOLECULE
tmp/3koqA00.pdb
 144 141 0 0 0
SMALL
GASTEIGER

@<TRIPOS>ATOM
      1  N          4.7070   52.0360   -0.9800 N.3    10  ARG10      -0.1231
      2  CA         5.4790   50.9120   -1.4590 C.3    10  ARG10       0.1694
      3  C          5.3020   50.7210   -2.9480 C.2    10  ARG10       0.2592
      4  O          4.1550   50.6740   -3.4620 O.2    10  ARG10      -0.2718
      5  CB         4.9930   49.6390   -0.7280 C.3    10  ARG10       0.0321
      6  CG         5.7950   48.3660   -1.1310 C.3    10  ARG10       0.0489
      7  CD         4.9020   47.1760   -1.3250 C.3    10  ARG10       0.2205
      8  NE         3.9160   47.3950   -2.3690 N.pl3  10  ARG10      -0.0865
      9  CZ         4.1570   47.3360   -3.6640 C.cat  10  ARG10       0.5346
     10  NH1        5.3650   46.9540   -4.0690 N.pl3  10  ARG10       0.1354
     11  NH2        3.1880   47.6780   -4.5390 N.pl3  10  ARG10       0.1354
     12  N          6.4240   50.6070   -3.6610 N.am   11  TYR11      -0.1962
     13  CA         6.4220   50.2800   -5.0870 C.3    11  TYR11       0.1771
     14  C          7.5790   49.3140   -5.3520 C.2    11  TYR11       0.2620
     15  O          8.4040   49.0670   -4.4600 O.2    11  TYR11      -0.2715
     16  CB         6.5310   51.5540   -5.9660 C.3    11  TYR11       0.0574
     17  CG         7.8550   52.2410   -5.7990 C.ar   11  TYR11      -0.0198
     18  CD1        8.1010   53.0400   -4.6830 C.ar   11  TYR11      -0.0009
     19  CD2        8.9090   51.9710   -6.6660 C.ar   11  TYR11      -0.0009
     20  CE1        9.3510   53.6500   -4.4790 C.ar   11  TYR11       0.0417
     21  CE2       10.2000   52.5570   -6.4660 C.ar   11  TYR11       0.0417
     22  CZ        10.4050   53.3800   -5.3560 C.ar   11  TYR11       0.1957
     23  OH        11.6570   53.9550   -5.1100 O.3    11  TYR11      -0.2866
     24  N          7.6570   48.8500   -6.5820 N.am   12  SER12      -0.1950
     25  CA         8.7290   47.9720   -6.9870 C.3    12  SER12       0.1924
     26  C          9.9430   48.7720   -7.5240 C.2    12  SER12       0.2314
     27  O          9.8780   49.4120   -8.6240 O.2    12  SER12      -0.2863
     28  CB         8.2920   46.9140   -7.9660 C.3    12  SER12       0.2116
     29  OG         7.4320   45.9060   -7.4190 O.3    12  SER12      -0.2180
     30  N         13.8070   48.8940   -8.9250 N.3    14  ARG14      -0.1245
     31  CA        14.7970   48.1100   -9.6810 C.3    14  ARG14       0.1563
     32  C         16.0560   48.9270  -10.0170 C.2    14  ARG14       0.2260
     33  O         16.8210   48.5830  -10.9150 O.2    14  ARG14      -0.2867
     34  CB        14.1850   47.5100  -10.9360 C.3    14  ARG14       0.0307
     35  CG        12.9250   46.6940  -10.6670 C.3    14  ARG14       0.0489
     36  CD        12.2980   46.2010  -11.9990 C.3    14  ARG14       0.2205
     37  NE        11.1370   45.3880  -11.6650 N.pl3  14  ARG14      -0.0865
     38  CZ         9.8800   45.8210  -11.6010 C.cat  14  ARG14       0.5346
     39  NH1        9.5360   47.0710  -11.9020 N.pl3  14  ARG14       0.1354
     40  NH2        8.9620   44.9780  -11.2030 N.pl3  14  ARG14       0.1354
     41  N         17.8160   38.0890  -11.5520 N.3    64  ASN64      -0.1240
     42  CA        18.3310   39.4460  -11.6140 C.3    64  ASN64       0.1653
     43  C         17.9130   40.1780  -10.3680 C.2    64  ASN64       0.2266
     44  O         16.7360   40.4640  -10.1870 O.2    64  ASN64      -0.2867
     45  CB        17.8170   40.1730  -12.8600 C.3    64  ASN64       0.1155
     46  CG        18.5550   41.4780  -13.1280 C.2    64  ASN64       0.2627
     47  OD1       19.2150   42.0530  -12.2170 O.2    64  ASN64      -0.2716
     48  ND2       18.3950   42.0090  -14.3410 N.am   64  ASN64      -0.0877
     49  N         19.2040   43.2170   -9.5810 N.3    66  TYR66      -0.1241
     50  CA        19.3560   44.6460   -9.8120 C.3    66  TYR66       0.1605
     51  C         20.3680   45.3630   -8.9300 C.2    66  TYR66       0.2264
     52  O         20.1520   46.5100   -8.5220 O.2    66  TYR66      -0.2867
     53  CB        18.0060   45.3070   -9.6520 C.3    66  TYR66       0.0534
     54  CG        16.8560   44.6810  -10.4270 C.ar   66  TYR66      -0.0201
     55  CD1       16.8600   44.6130  -11.8150 C.ar   66  TYR66      -0.0009
     56  CD2       15.7740   44.0770   -9.7640 C.ar   66  TYR66      -0.0009
     57  CE1       15.8350   44.0960  -12.4940 C.ar   66  TYR66       0.0417
     58  CE2       14.7020   43.5350  -10.4620 C.ar   66  TYR66       0.0417
     59  CZ        14.7460   43.5100  -11.8270 C.ar   66  TYR66       0.1957
     60  OH        13.6730   42.9920  -12.5580 O.3    66  TYR66      -0.2866
     61  N         11.8730   45.2530   -3.8680 N.3   113  VAL113     -0.1231
     62  CA        11.1110   44.4820   -4.8770 C.3   113  VAL113      0.1692
     63  C         11.0130   43.0020   -4.4650 C.2   113  VAL113      0.2592
     64  O         11.9460   42.4730   -3.9280 O.2   113  VAL113     -0.2718
     65  CB        11.6240   44.6780   -6.3160 C.3   113  VAL113      0.0266
     66  CG1       13.0410   44.1870   -6.4720 C.3   113  VAL113      0.0020
     67  CG2       10.6870   44.0040   -7.3500 C.3   113  VAL113      0.0020
     68  N          9.8150   42.4320   -4.5970 N.am  114  TRP114     -0.1962
     69  CA         9.5570   41.0170   -4.3850 C.3   114  TRP114      0.1771
     70  C          9.9550   40.2640   -5.6250 C.2   114  TRP114      0.2619
     71  O          9.5720   40.7010   -6.7060 O.2   114  TRP114     -0.2715
     72  CB         8.0500   40.8330   -4.1400 C.3   114  TRP114      0.0590
     73  CG         7.5740   39.5740   -3.6500 C.ar  114  TRP114      0.0006
     74  CD1        7.7830   38.3450   -4.1940 C.ar  114  TRP114      0.0946
     75  CD2        6.7370   39.3710   -2.4740 C.ar  114  TRP114      0.0152
     76  NE1        7.1700   37.3620   -3.4080 N.ar  114  TRP114     -0.2442
     77  CE2        6.5280   37.9560   -2.3590 C.ar  114  TRP114      0.0810
     78  CE3        6.1540   40.2260   -1.5330 C.ar  114  TRP114      0.0012
     79  CZ2        5.7040   37.4110   -1.3680 C.ar  114  TRP114      0.0191
     80  CZ3        5.3340   39.6970   -0.5200 C.ar  114  TRP114      0.0001
     81  CH2        5.1570   38.3060   -0.4230 C.ar  114  TRP114      0.0015
     82  N         10.6820   39.1400   -5.4970 N.am  115  VAL115     -0.1963
     83  CA        11.2260   38.4140   -6.6840 C.3   115  VAL115      0.1727
     84  C         10.8490   36.9770   -6.5840 C.2   115  VAL115      0.2616
     85  O         11.2220   36.3120   -5.5790 O.2   115  VAL115     -0.2715
     86  CB        12.7640   38.5720   -6.8370 C.3   115  VAL115      0.0290
     87  CG1       13.2980   37.6320   -7.9350 C.3   115  VAL115      0.0023
     88  CG2       13.1200   40.0210   -7.0960 C.3   115  VAL115      0.0023
     89  N         10.0130   36.5370   -7.5530 N.am  116  CYS116     -0.1954
     90  CA         9.7400   35.0960   -7.7580 C.3   116  CYS116      0.1843
     91  C         10.2510   34.5920   -9.0870 C.2   116  CYS116      0.2625
     92  O         10.2010   33.3670   -9.3300 O.2   116  CYS116     -0.2714
     93  CB         8.2670   34.7160   -7.5980 C.3   116  CYS116      0.0997
     94  SG         7.6900   34.9140   -5.9150 S.3   116  CYS116     -0.0797
     95  N         10.8170   35.4750   -9.9200 N.am  117  TYR117     -0.1974
     96  CA        11.3710   35.0780  -11.2080 C.3   117  TYR117      0.1639
     97  C         12.8220   34.6000  -10.9760 C.2   117  TYR117      0.2290
     98  O         13.7900   35.3310  -11.2240 O.2   117  TYR117     -0.2864
     99  CB        11.2500   36.2000  -12.2570 C.3   117  TYR117      0.0560
    100  CG        11.3900   35.7440  -13.6950 C.ar  117  TYR117     -0.0198
    101  CD1       12.6180   35.4440  -14.2580 C.ar  117  TYR117     -0.0009
    102  CD2       10.2670   35.5990  -14.4870 C.ar  117  TYR117     -0.0009
    103  CE1       12.7030   34.9890  -15.6120 C.ar  117  TYR117      0.0417
    104  CE2       10.3330   35.1360  -15.8080 C.ar  117  TYR117      0.0417
    105  CZ        11.5270   34.8530  -16.3630 C.ar  117  TYR117      0.1957
    106  OH        11.5170   34.4250  -17.6680 O.3   117  TYR117     -0.2866
    107  N          8.3740   55.7230   -7.5240 N.3   148  GLU148     -0.1245
    108  CA         7.0530   55.7560   -8.1400 C.3   148  GLU148      0.1567
    109  C          6.0730   56.5000   -7.2220 C.2   148  GLU148      0.2260
    110  O          6.2410   56.5510   -5.9830 O.2   148  GLU148     -0.2867
    111  CB         6.5530   54.3290   -8.4490 C.3   148  GLU148      0.0388
    112  CG         7.4280   53.5400   -9.3750 C.3   148  GLU148      0.1160
    113  CD         7.5710   54.2120  -10.7280 C.2   148  GLU148      0.3649
    114  OE1        6.5430   54.6420  -11.2760 O.co2 148  GLU148     -0.2457
    115  OE2        8.7180   54.3500  -11.2030 O.co2 148  GLU148     -0.2457
    116  N         -0.2380   56.3920   -8.0280 N.3   152  ARG152     -0.1245
    117  CA        -0.1380   55.8450   -9.3840 C.3   152  ARG152      0.1563
    118  C         -1.2410   54.8050   -9.7820 C.2   152  ARG152      0.2260
    119  O         -1.3450   54.3580  -10.9560 O.2   152  ARG152     -0.2867
    120  CB         1.2200   55.1780   -9.5380 C.3   152  ARG152      0.0307
    121  CG         1.3880   53.9170   -8.6750 C.3   152  ARG152      0.0489
    122  CD         2.8050   53.3800   -8.6600 C.3   152  ARG152      0.2205
    123  NE         2.9010   52.1620   -7.8880 N.pl3 152  ARG152     -0.0865
    124  CZ         3.0320   52.1020   -6.5750 C.cat 152  ARG152      0.5346
    125  NH1        3.0940   53.1910   -5.8310 N.pl3 152  ARG152      0.1354
    126  NH2        3.0370   50.9110   -5.9960 N.pl3 152  ARG152      0.1354
    127  N         -2.0100   51.9510  -12.6960 N.3   156  THR156     -0.1203
    128  CA        -1.2950   50.6730  -12.5900 C.3   156  THR156      0.1994
    129  C         -2.1110   49.4890  -12.0140 C.2   156  THR156      0.2617
    130  O         -1.5920   48.3630  -11.9030 O.2   156  THR156     -0.2717
    131  CB        -0.0440   50.8340  -11.7310 C.3   156  THR156      0.1784
    132  OG1       -0.4130   51.0270  -10.3730 O.3   156  THR156     -0.2211
    133  CG2        0.8730   51.9860  -12.2700 C.3   156  THR156      0.0376
    134  N         -3.4060   49.7260  -11.7330 N.am  157  ARG157     -0.1979
    135  CA        -4.2850   48.7020  -11.1480 C.3   157  ARG157      0.1597
    136  C         -5.6410   48.6900  -11.9070 C.2   157  ARG157      0.2287
    137  O         -6.1030   49.7160  -12.4060 O.2   157  ARG157     -0.2864
    138  CB        -4.5100   48.9520   -9.6390 C.3   157  ARG157      0.0334
    139  CG        -3.3310   48.7950   -8.7420 C.3   157  ARG157      0.0492
    140  CD        -2.8320   47.3300   -8.7730 C.3   157  ARG157      0.2205
    141  NE        -1.7350   47.2340   -7.8200 N.pl3 157  ARG157     -0.0865
    142  CZ        -0.4690   47.5660   -8.0460 C.cat 157  ARG157      0.5346
    143  NH1       -0.0590   48.0110   -9.2280 N.pl3 157  ARG157      0.1354
    144  NH2        0.3680   47.5690   -7.0550 N.pl3 157  ARG157      0.1354
@<TRIPOS>BOND
     1   106   105    1
     2   105   104   ar
     3   105   103   ar
     4   104   102   ar
     5   103   101   ar
     6   102   100   ar
     7    48    46   am
     8   101   100   ar
     9   100    99    1
    10    46    45    1
    11    46    47    2
    12    45    42    1
    13   127   128    1
    14   128   129    1
    15   128   131    1
    16    60    59    1
    17    57    59   ar
    18    57    55   ar
    19   137   136    2
    20   133   131    1
    21    99    96    1
    22   129   130    2
    23   129   134   am
    24    36    37    1
    25    36    35    1
    26   136   135    1
    27    39    38    1
    28    59    58   ar
    29    55    54   ar
    30   134   135    1
    31   131   132    1
    32    37    38    2
    33    42    41    1
    34    42    43    1
    35    38    40    1
    36   114   113   ar
    37    98    97    2
    38    96    97    1
    39    96    95    1
    40   115   113   ar
    41   135   138    1
    42   119   118    2
    43    34    35    1
    44    34    31    1
    45    33    32    2
    46   113   112    1
    47    58    56   ar
    48    54    56   ar
    49    54    53    1
    50    43    44    2
    51    32    31    1
    52    95    91   am
    53    50    53    1
    54    50    49    1
    55    50    51    1
    56   118   117    1
    57    31    30    1
    58   138   139    1
    59   120   117    1
    60   120   121    1
    61   117   116    1
    62   112   111    1
    63    92    91    2
    64   143   142    1
    65    91    90    1
    66    51    52    2
    67   140   139    1
    68   140   141    1
    69   121   122    1
    70   122   123    1
    71    27    26    2
    72   111   108    1
    73   108   107    1
    74   108   109    1
    75   142   141    2
    76   142   144    1
    77    28    29    1
    78    28    25    1
    79    87    86    1
    80   123   124    2
    81    90    93    1
    82    90    89    1
    83    93    94    1
    84    89    84   am
    85    26    25    1
    86    67    65    1
    87   109   110    2
    88    88    86    1
    89    25    24    1
    90    86    83    1
    91    71    70    2
    92    83    84    1
    93    83    82    1
    94    19    21   ar
    95    19    17   ar
    96    84    85    2
    97    24    14   am
    98   124   126    1
    99   124   125    1
   100    66    65    1
   101    21    22   ar
   102    65    62    1
   103    16    17    1
   104    16    13    1
   105    17    18   ar
   106    70    82   am
   107    70    69    1
   108    22    23    1
   109    22    20   ar
   110    14    13    1
   111    14    15    2
   112    13    12    1
   113    62    63    1
   114    62    61    1
   115    18    20   ar
   116    68    63   am
   117    68    69    1
   118    11     9    1
   119    63    64    2
   120    69    72    1
   121    74    73   ar
   122    74    76   ar
   123    72    73    1
   124    10     9    1
   125     9     8    2
   126    12     3   am
   127    73    75   ar
   128     4     3    2
   129    76    77   ar
   130     3     2    1
   131    75    77   ar
   132    75    78   ar
   133     8     7    1
   134    77    79   ar
   135    78    80   ar
   136     2     1    1
   137     2     5    1
   138    79    81   ar
   139     7     6    1
   140     6     5    1
   141    80    81   ar
