@<TRIPOS>MOLECULE
tmp/3kosA00.pdb
 130 125 0 0 0
SMALL
GASTEIGER

@<TRIPOS>ATOM
      1  N         48.4120   25.5420   27.6120 N.3     9  VAL9       -0.1245
      2  CA        49.7930   25.1440   27.9040 C.3     9  VAL9        0.1561
      3  C         49.9630   23.6740   27.4970 C.2     9  VAL9        0.2260
      4  O         49.1040   22.8390   27.7800 O.2     9  VAL9       -0.2867
      5  CB        50.1800   25.4030   29.3890 C.3     9  VAL9        0.0252
      6  CG1       49.2290   24.6650   30.3640 C.3     9  VAL9        0.0019
      7  CG2       51.6300   25.0220   29.6430 C.3     9  VAL9        0.0019
      8  N         51.6160   21.0640   28.2800 N.3    11  THR11      -0.1218
      9  CA        51.5890   20.0070   29.2780 C.3    11  THR11       0.1862
     10  C         50.1550   19.6040   29.6130 C.2    11  THR11       0.2287
     11  O         49.8350   18.4160   29.7210 O.2    11  THR11      -0.2866
     12  CB        52.3430   20.4360   30.5380 C.3    11  THR11       0.1770
     13  OG1       53.7190   20.6770   30.1900 O.3    11  THR11      -0.2211
     14  CG2       52.2820   19.3460   31.5980 C.3    11  THR11       0.0375
     15  N         53.7980   27.6050   25.7260 N.3    39  ASN39      -0.1225
     16  CA        54.6640   27.1300   26.7990 C.3    39  ASN39       0.1785
     17  C         54.4740   27.9060   28.1020 C.2    39  ASN39       0.2597
     18  O         55.4190   28.0990   28.8770 O.2    39  ASN39      -0.2718
     19  CB        56.1410   27.1080   26.3560 C.3    39  ASN39       0.1169
     20  CG        56.7060   28.4980   26.0920 C.2    39  ASN39       0.2627
     21  OD1       55.9950   29.5010   26.1430 O.2    39  ASN39      -0.2716
     22  ND2       58.0070   28.5590   25.8210 N.am   39  ASN39      -0.0877
     23  N         53.2410   28.3480   28.3290 N.am   40  ASN40      -0.1960
     24  CA        52.8710   29.1020   29.5220 C.3    40  ASN40       0.1819
     25  C         53.2730   30.5700   29.5010 C.2    40  ASN40       0.2621
     26  O         52.8790   31.3250   30.3840 O.2    40  ASN40      -0.2715
     27  CB        53.3870   28.4530   30.8050 C.3    40  ASN40       0.1195
     28  CG        52.3690   28.5210   31.9190 C.2    40  ASN40       0.2630
     29  OD1       51.2250   28.1040   31.7330 O.2    40  ASN40      -0.2716
     30  ND2       52.7660   29.0400   33.0720 N.am   40  ASN40      -0.0877
     31  N         54.0720   30.9560   28.5130 N.am   41  ARG41      -0.1977
     32  CA        54.3600   32.3690   28.2600 C.3    41  ARG41       0.1597
     33  C         53.5970   32.7440   27.0250 C.2    41  ARG41       0.2287
     34  O         53.9530   32.3440   25.9060 O.2    41  ARG41      -0.2864
     35  CB        55.8500   32.6220   28.0220 C.3    41  ARG41       0.0334
     36  CG        56.6980   32.4280   29.2400 C.3    41  ARG41       0.0492
     37  CD        56.9390   30.9550   29.4570 C.3    41  ARG41       0.2205
     38  NE        57.9560   30.7220   30.4720 N.pl3  41  ARG41      -0.0865
     39  CZ        58.3440   29.5140   30.8640 C.cat  41  ARG41       0.5346
     40  NH1       57.8100   28.4320   30.3090 N.pl3  41  ARG41       0.1354
     41  NH2       59.2630   29.3880   31.8130 N.pl3  41  ARG41       0.1354
     42  N         49.3850   27.3600   33.7360 N.3    55  TYR55      -0.1241
     43  CA        49.8380   26.9300   35.0490 C.3    55  TYR55       0.1605
     44  C         50.1860   28.1680   35.8580 C.2    55  TYR55       0.2264
     45  O         50.8830   29.0540   35.3650 O.2    55  TYR55      -0.2867
     46  CB        51.0960   26.0720   34.8940 C.3    55  TYR55       0.0534
     47  CG        51.7840   25.6620   36.1860 C.ar   55  TYR55      -0.0201
     48  CD1       52.7700   26.4630   36.7530 C.ar   55  TYR55      -0.0009
     49  CD2       51.4760   24.4580   36.8130 C.ar   55  TYR55      -0.0009
     50  CE1       53.4240   26.0870   37.9180 C.ar   55  TYR55       0.0417
     51  CE2       52.1280   24.0690   37.9840 C.ar   55  TYR55       0.0417
     52  CZ        53.1060   24.8920   38.5220 C.ar   55  TYR55       0.1957
     53  OH        53.7600   24.5310   39.6730 O.3    55  TYR55      -0.2866
     54  N         61.9080   23.4700   35.6750 N.3    98  SER98      -0.1202
     55  CA        61.3120   24.5160   34.8550 C.3    98  SER98       0.2020
     56  C         62.0550   25.8230   35.0960 C.2    98  SER98       0.2619
     57  O         63.0520   25.8530   35.8160 O.2    98  SER98      -0.2717
     58  CB        59.8460   24.7140   35.2330 C.3    98  SER98       0.2103
     59  OG        59.7690   25.4830   36.4260 O.3    98  SER98      -0.2182
     60  N         61.5570   26.9030   34.5050 N.am   99  TYR99      -0.1961
     61  CA        62.1440   28.2250   34.7120 C.3    99  TYR99       0.1771
     62  C         62.0060   28.7500   36.1430 C.2    99  TYR99       0.2619
     63  O         62.5340   29.8140   36.4580 O.2    99  TYR99      -0.2715
     64  CB        61.5360   29.2380   33.7550 C.3    99  TYR99       0.0574
     65  CG        62.1310   29.2470   32.3670 C.ar   99  TYR99      -0.0198
     66  CD1       62.3060   28.0700   31.6500 C.ar   99  TYR99      -0.0009
     67  CD2       62.4850   30.4460   31.7570 C.ar   99  TYR99      -0.0009
     68  CE1       62.8360   28.0820   30.3610 C.ar   99  TYR99       0.0417
     69  CE2       63.0110   30.4720   30.4760 C.ar   99  TYR99       0.0417
     70  CZ        63.1830   29.2870   29.7830 C.ar   99  TYR99       0.1957
     71  OH        63.7010   29.3170   28.5060 O.3    99  TYR99      -0.2866
     72  N         61.2900   28.0210   36.9990 N.am  100  ARG100     -0.1977
     73  CA        61.2540   28.3500   38.4250 C.3   100  ARG100      0.1597
     74  C         62.4700   27.8070   39.1750 C.2   100  ARG100      0.2287
     75  O         62.6280   26.5910   39.3600 O.2   100  ARG100     -0.2864
     76  CB        59.9750   27.8440   39.0770 C.3   100  ARG100      0.0334
     77  CG        60.0470   27.9010   40.5860 C.3   100  ARG100      0.0492
     78  CD        58.7350   28.3410   41.1680 C.3   100  ARG100      0.2205
     79  NE        58.8610   28.6410   42.5900 N.pl3 100  ARG100     -0.0865
     80  CZ        57.8350   28.9920   43.3510 C.cat 100  ARG100      0.5346
     81  NH1       56.6300   29.0760   42.8060 N.pl3 100  ARG100      0.1354
     82  NH2       58.0110   29.2520   44.6420 N.pl3 100  ARG100      0.1354
     83  N         62.4450   25.0600   42.5720 N.3   103  GLU103     -0.1245
     84  CA        61.6310   23.8420   42.6540 C.3   103  GLU103      0.1567
     85  C         62.3410   22.7130   43.4050 C.2   103  GLU103      0.2260
     86  O         61.7510   22.0540   44.2690 O.2   103  GLU103     -0.2867
     87  CB        61.2410   23.3590   41.2560 C.3   103  GLU103      0.0388
     88  CG        60.2270   24.2490   40.5600 C.3   103  GLU103      0.1160
     89  CD        60.0170   23.8600   39.1080 C.2   103  GLU103      0.3649
     90  OE1       60.9170   23.2280   38.5170 O.co2 103  GLU103     -0.2457
     91  OE2       58.9520   24.1970   38.5580 O.co2 103  GLU103     -0.2457
     92  N         61.2950   25.0720   29.3630 N.3   124  ASP124     -0.1225
     93  CA        60.1340   25.9420   29.2190 C.3   124  ASP124      0.1805
     94  C         58.8430   25.1410   29.3310 C.2   124  ASP124      0.2598
     95  O         57.7910   25.6810   29.6840 O.2   124  ASP124     -0.2718
     96  CB        60.1720   26.6720   27.8750 C.3   124  ASP124      0.1424
     97  CG        60.0600   25.7230   26.6820 C.2   124  ASP124      0.3668
     98  OD1       60.6790   24.6310   26.6960 O.co2 124  ASP124     -0.2456
     99  OD2       59.3660   26.0830   25.7070 O.co2 124  ASP124     -0.2456
    100  N         58.9240   23.8470   29.0330 N.am  125  SER125     -0.1938
    101  CA        57.7250   23.0040   29.0120 C.3   125  SER125      0.2055
    102  C         58.0110   21.6700   29.6870 C.2   125  SER125      0.2643
    103  O         59.0390   21.0610   29.4230 O.2   125  SER125     -0.2714
    104  CB        57.3000   22.7520   27.5650 C.3   125  SER125      0.2130
    105  OG        56.3700   21.6690   27.4830 O.3   125  SER125     -0.2179
    106  N         57.1170   21.2160   30.5580 N.am  126  SER126     -0.1949
    107  CA        57.3020   19.9200   31.2130 C.3   126  SER126      0.1924
    108  C         57.2610   18.7840   30.2130 C.2   126  SER126      0.2314
    109  O         57.8060   17.7070   30.4750 O.2   126  SER126     -0.2863
    110  CB        56.2090   19.6800   32.2680 C.3   126  SER126      0.2116
    111  OG        56.4750   20.4390   33.4310 O.3   126  SER126     -0.2180
    112  N         54.4090   18.1520   37.3080 N.3   141  PRO141     -0.2116
    113  CA        53.0810   17.7420   37.7850 C.3   141  PRO141      0.1372
    114  C         52.7680   16.2960   37.4110 C.2   141  PRO141      0.2244
    115  O         52.5590   15.9790   36.2400 O.2   141  PRO141     -0.2868
    116  CB        52.1360   18.6940   37.0540 C.3   141  PRO141      0.0268
    117  CG        52.9580   19.9230   36.8200 C.3   141  PRO141      0.0207
    118  CD        54.3380   19.3650   36.4720 C.3   141  PRO141      0.0892
    119  N         46.4330   24.3320   37.5690 N.3   166  TYR166     -0.1241
    120  CA        45.9890   24.7030   36.2290 C.3   166  TYR166      0.1605
    121  C         44.7150   25.5250   36.3080 C.2   166  TYR166      0.2264
    122  O         43.7920   25.1900   37.0600 O.2   166  TYR166     -0.2867
    123  CB        45.8280   23.4710   35.3240 C.3   166  TYR166      0.0534
    124  CG        47.1760   22.8450   34.9990 C.ar  166  TYR166     -0.0201
    125  CD1       48.0250   23.4230   34.0540 C.ar  166  TYR166     -0.0009
    126  CD2       47.6050   21.7030   35.6560 C.ar  166  TYR166     -0.0009
    127  CE1       49.2700   22.8760   33.7740 C.ar  166  TYR166      0.0417
    128  CE2       48.8560   21.1420   35.3840 C.ar  166  TYR166      0.0417
    129  CZ        49.6780   21.7300   34.4380 C.ar  166  TYR166      0.1957
    130  OH        50.9260   21.1880   34.1670 O.3   166  TYR166     -0.2866
@<TRIPOS>BOND
     1    99    97   ar
     2    15    16    1
     3    22    20   am
     4    34    33    2
     5    20    21    2
     6    20    19    1
     7    19    16    1
     8    97    98   ar
     9    97    96    1
    10    16    17    1
    11    33    32    1
    12   105   104    1
    13     3     4    2
    14     3     2    1
    15   104   101    1
    16     1     2    1
    17    96    93    1
    18     2     5    1
    19    35    32    1
    20    35    36    1
    21    17    23   am
    22    17    18    2
    23    32    31    1
    24     8     9    1
    25    23    24    1
    26    71    70    1
    27    31    25   am
    28   101   100    1
    29   101   102    1
    30   100    94   am
    31    93    94    1
    32    93    92    1
    33    36    37    1
    34     9    10    1
    35     9    12    1
    36    94    95    2
    37     5     7    1
    38     5     6    1
    39   103   102    2
    40    37    38    1
    41    25    24    1
    42    25    26    2
    43    24    27    1
    44    10    11    2
    45   102   106   am
    46    70    68   ar
    47    70    69   ar
    48    13    12    1
    49   108   109    2
    50   108   107    1
    51    40    39    1
    52    68    66   ar
    53    38    39    2
    54    69    67   ar
    55    12    14    1
    56   106   107    1
    57    27    28    1
    58    39    41    1
    59   107   110    1
    60    66    65   ar
    61    29    28    2
    62    67    65   ar
    63    28    30   am
    64   110   111    1
    65    65    64    1
    66    42    43    1
    67    64    61    1
    68   127   125   ar
    69   127   129   ar
    70   125   124   ar
    71   130   129    1
    72   129   128   ar
    73    60    61    1
    74    60    56   am
    75    61    62    1
    76    55    56    1
    77    55    58    1
    78    55    54    1
    79    46    43    1
    80    46    47    1
    81   124   123    1
    82   124   126   ar
    83    43    44    1
    84    56    57    2
    85    58    59    1
    86   123   120    1
    87    45    44    2
    88   128   126   ar
    89    62    63    2
    90    62    72   am
    91    47    48   ar
    92    47    49   ar
    93   120   121    1
    94   120   119    1
    95   115   114    2
    96   121   122    2
    97   118   117    1
    98   118   112    1
    99    48    50   ar
   100    49    51   ar
   101   117   116    1
   102    72    73    1
   103   116   113    1
   104   112   113    1
   105   114   113    1
   106    50    52   ar
   107    51    52   ar
   108    73    76    1
   109    73    74    1
   110    90    89   ar
   111    52    53    1
   112    91    89   ar
   113    76    77    1
   114    89    88    1
   115    74    75    2
   116    88    87    1
   117    77    78    1
   118    78    79    1
   119    87    84    1
   120    83    84    1
   121    79    80    2
   122    84    85    1
   123    81    80    1
   124    80    82    1
   125    85    86    2
