@<TRIPOS>MOLECULE
tmp/3kouA01.pdb
 115 114 0 0 0
SMALL
GASTEIGER

@<TRIPOS>ATOM
      1  N         12.9090   23.1350   23.2240 N.3    76  VAL76      -0.1231
      2  CA        12.5440   22.5370   24.5050 C.3    76  VAL76       0.1692
      3  C         11.9420   23.5830   25.4320 C.2    76  VAL76       0.2592
      4  O         12.5480   24.6280   25.6680 O.2    76  VAL76      -0.2718
      5  CB        13.7710   21.9110   25.1950 C.3    76  VAL76       0.0266
      6  CG1       13.4030   21.4040   26.6020 C.3    76  VAL76       0.0020
      7  CG2       14.3380   20.7980   24.3120 C.3    76  VAL76       0.0020
      8  N         10.7410   23.3010   25.9340 N.am   77  PHE77      -0.1962
      9  CA        10.1030   24.0830   26.9830 C.3    77  PHE77       0.1771
     10  C         10.3230   23.3750   28.3250 C.2    77  PHE77       0.2620
     11  O         10.6280   22.1800   28.3610 O.2    77  PHE77      -0.2715
     12  CB         8.5800   24.2150   26.7130 C.3    77  PHE77       0.0574
     13  CG         8.2530   24.9770   25.4570 C.ar   77  PHE77      -0.0200
     14  CD1        8.1290   26.3610   25.4750 C.ar   77  PHE77      -0.0042
     15  CD2        8.0940   24.3120   24.2540 C.ar   77  PHE77      -0.0042
     16  CE1        7.8400   27.0590   24.3130 C.ar   77  PHE77      -0.0003
     17  CE2        7.7980   25.0100   23.0870 C.ar   77  PHE77      -0.0003
     18  CZ         7.6650   26.3710   23.1180 C.ar   77  PHE77      -0.0000
     19  N         10.1620   24.1110   29.4230 N.am   78  TRP78      -0.1960
     20  CA        10.2760   23.5510   30.7730 C.3    78  TRP78       0.1771
     21  C          9.4150   24.3480   31.7530 C.2    78  TRP78       0.2620
     22  O          9.0970   25.5090   31.5060 O.2    78  TRP78      -0.2715
     23  CB        11.7320   23.5330   31.2520 C.3    78  TRP78       0.0590
     24  CG        12.3690   24.8890   31.3060 C.ar   78  TRP78       0.0006
     25  CD1       13.0850   25.5010   30.3130 C.ar   78  TRP78       0.0946
     26  CD2       12.3610   25.7950   32.4080 C.ar   78  TRP78       0.0152
     27  NE1       13.5200   26.7400   30.7330 N.ar   78  TRP78      -0.2442
     28  CE2       13.0850   26.9420   32.0140 C.ar   78  TRP78       0.0810
     29  CE3       11.8100   25.7500   33.6960 C.ar   78  TRP78       0.0012
     30  CZ2       13.2710   28.0260   32.8550 C.ar   78  TRP78       0.0191
     31  CZ3       12.0010   26.8300   34.5240 C.ar   78  TRP78       0.0001
     32  CH2       12.7290   27.9510   34.1040 C.ar   78  TRP78       0.0015
     33  N          9.0140   23.7140   32.8530 N.am   79  SER79      -0.1936
     34  CA         8.2770   24.4040   33.9180 C.3    79  SER79       0.2055
     35  C          8.5210   23.6350   35.2220 C.2    79  SER79       0.2642
     36  O          8.2070   22.4480   35.2940 O.2    79  SER79      -0.2714
     37  CB         6.7720   24.4400   33.5680 C.3    79  SER79       0.2130
     38  OG         6.0730   25.4260   34.3310 O.3    79  SER79      -0.2179
     39  N          9.1360   24.2980   36.2110 N.am   80  LYS80      -0.1977
     40  CA         9.4420   23.6960   37.5120 C.3    80  LYS80       0.1596
     41  C         10.5270   22.6350   37.4020 C.2    80  LYS80       0.2287
     42  O         10.6840   21.8120   38.3080 O.2    80  LYS80      -0.2864
     43  CB         8.1960   23.0580   38.1650 C.3    80  LYS80       0.0298
     44  CG         6.8720   23.7470   37.8810 C.3    80  LYS80       0.0038
     45  CD         6.8130   25.1180   38.5150 C.3    80  LYS80       0.0206
     46  CE         5.4510   25.7720   38.2410 C.3    80  LYS80       0.1093
     47  NZ         5.4470   27.1730   38.7400 N.3    80  LYS80      -0.1314
     48  N         14.7600   28.2650   26.0480 N.3    97  LEU97      -0.1231
     49  CA        14.7430   29.7150   25.8880 C.3    97  LEU97       0.1693
     50  C         16.0990   30.2810   26.3100 C.2    97  LEU97       0.2591
     51  O         16.6170   31.2000   25.6810 O.2    97  LEU97      -0.2718
     52  CB        13.6000   30.3210   26.7240 C.3    97  LEU97       0.0284
     53  CG        13.3900   31.8270   26.5680 C.3    97  LEU97       0.0019
     54  CD1       13.0910   32.2420   25.0970 C.3    97  LEU97       0.0001
     55  CD2       12.3030   32.3190   27.5230 C.3    97  LEU97       0.0001
     56  N         16.6820   29.6840   27.3450 N.am   98  GLU98      -0.1979
     57  CA        17.9400   30.1600   27.9060 C.3    98  GLU98       0.1602
     58  C         19.1280   29.8890   26.9720 C.2    98  GLU98       0.2287
     59  O         20.2460   30.3810   27.2140 O.2    98  GLU98      -0.2864
     60  CB        18.1640   29.5730   29.3280 C.3    98  GLU98       0.0415
     61  CG        17.2400   30.1370   30.4050 C.3    98  GLU98       0.1163
     62  CD        15.7840   29.5880   30.3250 C.2    98  GLU98       0.3649
     63  OE1       15.5770   28.5130   29.7360 O.co2  98  GLU98      -0.2457
     64  OE2       14.8690   30.2520   30.8430 O.co2  98  GLU98      -0.2457
     65  N          9.3070   34.8470   25.9660 N.3   145  SER145     -0.1217
     66  CA         8.6320   33.5510   26.0270 C.3   145  SER145      0.1889
     67  C          7.5360   33.4250   24.9940 C.2   145  SER145      0.2288
     68  O          7.3690   32.3650   24.3830 O.2   145  SER145     -0.2866
     69  CB         8.0500   33.3120   27.4270 C.3   145  SER145      0.2089
     70  OG         9.0950   33.1530   28.3990 O.3   145  SER145     -0.2183
     71  N          9.2090   33.0830   21.4230 N.3   148  PHE148     -0.1241
     72  CA         9.7840   31.7250   21.3960 C.3   148  PHE148      0.1605
     73  C          8.6950   30.6760   21.0700 C.2   148  PHE148      0.2264
     74  O          8.8610   29.8150   20.1690 O.2   148  PHE148     -0.2867
     75  CB        10.3970   31.4950   22.7900 C.3   148  PHE148      0.0534
     76  CG        11.0940   30.1690   23.0110 C.ar  148  PHE148     -0.0203
     77  CD1       12.2600   29.8370   22.3430 C.ar  148  PHE148     -0.0042
     78  CD2       10.6330   29.3080   24.0010 C.ar  148  PHE148     -0.0042
     79  CE1       12.9270   28.6300   22.6170 C.ar  148  PHE148     -0.0003
     80  CE2       11.2960   28.1070   24.2930 C.ar  148  PHE148     -0.0003
     81  CZ        12.4470   27.7710   23.6080 C.ar  148  PHE148     -0.0000
     82  N          1.7040   29.4330   35.2970 N.3   172  SER172     -0.1202
     83  CA         3.1360   29.5250   34.9890 C.3   172  SER172      0.2020
     84  C          3.2970   30.2260   33.6590 C.2   172  SER172      0.2619
     85  O          2.3320   30.4040   32.9330 O.2   172  SER172     -0.2717
     86  CB         3.7810   28.1340   34.9110 C.3   172  SER172      0.2103
     87  OG         3.2530   27.3810   33.8210 O.3   172  SER172     -0.2182
     88  N          4.5160   30.6330   33.3300 N.am  173  ILE173     -0.1965
     89  CA         4.7620   31.1540   32.0000 C.3   173  ILE173      0.1727
     90  C          4.4660   30.0930   30.9240 C.2   173  ILE173      0.2616
     91  O          3.9260   30.4130   29.8730 O.2   173  ILE173     -0.2715
     92  CB         6.1850   31.7030   31.8660 C.3   173  ILE173      0.0290
     93  CG1        6.3450   32.9320   32.7730 C.3   173  ILE173      0.0022
     94  CG2        6.5230   32.0440   30.3950 C.3   173  ILE173      0.0023
     95  CD1        7.7570   33.4820   32.7920 C.3   173  ILE173      0.0001
     96  N          4.8310   28.8440   31.1810 N.am  174  PHE174     -0.1974
     97  CA         4.5330   27.7890   30.2200 C.3   174  PHE174      0.1639
     98  C          3.0210   27.6880   30.0090 C.2   174  PHE174      0.2290
     99  O          2.5530   27.5610   28.8730 O.2   174  PHE174     -0.2864
    100  CB         5.1160   26.4250   30.6460 C.3   174  PHE174      0.0560
    101  CG         4.7250   25.2910   29.7090 C.ar  174  PHE174     -0.0200
    102  CD1        5.2270   25.2420   28.4230 C.ar  174  PHE174     -0.0042
    103  CD2        3.8170   24.3210   30.1090 C.ar  174  PHE174     -0.0042
    104  CE1        4.8590   24.2370   27.5380 C.ar  174  PHE174     -0.0003
    105  CE2        3.4140   23.3080   29.2140 C.ar  174  PHE174     -0.0003
    106  CZ         3.9610   23.2630   27.9410 C.ar  174  PHE174     -0.0000
    107  N          3.1470   30.3810   26.9740 N.3   178  GLU178     -0.1245
    108  CA         3.7810   29.5510   25.9540 C.3   178  GLU178      0.1567
    109  C          2.8330   28.5930   25.2500 C.2   178  GLU178      0.2260
    110  O          2.6590   28.6910   24.0340 O.2   178  GLU178     -0.2867
    111  CB         5.0310   28.8440   26.4910 C.3   178  GLU178      0.0388
    112  CG         6.1240   29.8620   26.7840 C.3   178  GLU178      0.1160
    113  CD         7.2410   29.3520   27.6580 C.2   178  GLU178      0.3649
    114  OE1        7.1750   28.2190   28.1650 O.co2 178  GLU178     -0.2457
    115  OE2        8.2100   30.1300   27.8390 O.co2 178  GLU178     -0.2457
@<TRIPOS>BOND
     1    74    73    2
     2    73    72    1
     3    72    71    1
     4    72    75    1
     5    77    79   ar
     6    77    76   ar
     7    79    81   ar
     8    75    76    1
     9    76    78   ar
    10    17    18   ar
    11    17    15   ar
    12    18    16   ar
    13     1     2    1
    14    81    80   ar
    15    78    80   ar
    16   110   109    2
    17    15    13   ar
    18     7     5    1
    19    16    14   ar
    20    68    67    2
    21     2     5    1
    22     2     3    1
    23    67    66    1
    24    54    53    1
    25     5     6    1
    26   109   108    1
    27     3     4    2
    28     3     8   am
    29    13    14   ar
    30    13    12    1
    31    51    50    2
    32    49    48    1
    33    49    50    1
    34    49    52    1
    35     8     9    1
    36   108   111    1
    37   108   107    1
    38    65    66    1
    39    66    69    1
    40    50    56   am
    41   111   112    1
    42    53    52    1
    43    53    55    1
    44    12     9    1
    45   112   113    1
    46    58    59    2
    47    58    57    1
    48     9    10    1
    49    56    57    1
    50    69    70    1
    51   104   106   ar
    52   104   102   ar
    53   113   115   ar
    54   113   114   ar
    55    57    60    1
    56   106   105   ar
    57    10    11    2
    58    10    19   am
    59   102   101   ar
    60    99    98    2
    61   105   103   ar
    62    60    61    1
    63    19    20    1
    64   101   103   ar
    65   101   100    1
    66    63    62   ar
    67    91    90    2
    68    98    97    1
    69    97   100    1
    70    97    96    1
    71    25    27   ar
    72    25    24   ar
    73    62    61    1
    74    62    64   ar
    75    94    92    1
    76    27    28   ar
    77    20    23    1
    78    20    21    1
    79    90    96   am
    80    90    89    1
    81    23    24    1
    82    24    26   ar
    83    22    21    2
    84    21    33   am
    85    92    89    1
    86    92    93    1
    87    89    88    1
    88    28    26   ar
    89    28    30   ar
    90    26    29   ar
    91    93    95    1
    92    33    34    1
    93    30    32   ar
    94    85    84    2
    95    88    84   am
    96    37    34    1
    97    37    38    1
    98    84    83    1
    99    29    31   ar
   100    87    86    1
   101    34    35    1
   102    32    31   ar
   103    86    83    1
   104    83    82    1
   105    35    36    2
   106    35    39   am
   107    39    40    1
   108    41    40    1
   109    41    42    2
   110    40    43    1
   111    44    43    1
   112    44    45    1
   113    46    45    1
   114    46    47    1
