@<TRIPOS>MOLECULE
tmp/3kowG02.pdb
 102 98 0 0 0
SMALL
GASTEIGER

@<TRIPOS>ATOM
      1  N          5.0800   35.3240  -13.5300 N.3   106  THR106     -0.1203
      2  CA         6.0050   34.2780  -13.9410 C.3   106  THR106      0.1994
      3  C          7.0990   34.8280  -14.8670 C.2   106  THR106      0.2618
      4  O          6.8900   35.8050  -15.5960 O.2   106  THR106     -0.2717
      5  CB         5.2400   33.1220  -14.6440 C.3   106  THR106      0.1784
      6  OG1        6.1540   32.1090  -15.0810 O.3   106  THR106     -0.2211
      7  CG2        4.4400   33.6350  -15.8410 C.3   106  THR106      0.0376
      8  N          8.2690   34.1960  -14.8290 N.am  107  ALA107     -0.1965
      9  CA         9.3990   34.6070  -15.6500 C.3   107  ALA107      0.1728
     10  C          9.0070   34.8560  -17.0990 C.2   107  ALA107      0.2616
     11  O          8.4470   33.9680  -17.7740 O.2   107  ALA107     -0.2715
     12  CB        10.4910   33.5640  -15.5940 C.3   107  ALA107      0.0334
     13  N          9.3160   36.0650  -17.5660 N.am  108  GLY108     -0.1955
     14  CA         9.1720   36.4210  -18.9660 C.3   108  GLY108      0.1869
     15  C          7.7780   36.5630  -19.5630 C.2   108  GLY108      0.2309
     16  O          7.5990   36.3500  -20.7480 O.2   108  GLY108     -0.2863
     17  N          7.0560   38.6900  -22.6130 N.3   111  HIS111     -0.1226
     18  CA         7.3350   38.1570  -23.9430 C.3   111  HIS111      0.1752
     19  C          6.1710   37.4520  -24.6170 C.2   111  HIS111      0.2596
     20  O          6.2610   37.1280  -25.7980 O.2   111  HIS111     -0.2718
     21  CB         8.5700   37.2570  -23.9090 C.3   111  HIS111      0.0759
     22  CG         9.8540   38.0300  -23.9060 C.ar  111  HIS111      0.0818
     23  ND1       10.2770   38.7690  -24.9940 N.ar  111  HIS111     -0.2268
     24  CD2       10.7850   38.2120  -22.9430 C.ar  111  HIS111      0.1154
     25  CE1       11.4190   39.3620  -24.7020 C.ar  111  HIS111      0.1986
     26  NE2       11.7550   39.0340  -23.4690 N.ar  111  HIS111     -0.2212
     27  N          5.0840   37.2250  -23.8790 N.am  112  TYR112     -0.1962
     28  CA         3.8850   36.5990  -24.4340 C.3   112  TYR112      0.1771
     29  C          3.1540   37.5920  -25.3380 C.2   112  TYR112      0.2619
     30  O          2.6100   38.5660  -24.8490 O.2   112  TYR112     -0.2715
     31  CB         2.9420   36.1730  -23.3160 C.3   112  TYR112      0.0574
     32  CG         3.4730   35.1390  -22.3550 C.ar  112  TYR112     -0.0198
     33  CD1        4.7860   34.7250  -22.4040 C.ar  112  TYR112     -0.0009
     34  CD2        2.6360   34.5720  -21.3790 C.ar  112  TYR112     -0.0009
     35  CE1        5.2680   33.7740  -21.5060 C.ar  112  TYR112      0.0417
     36  CE2        3.1020   33.6080  -20.4800 C.ar  112  TYR112      0.0417
     37  CZ         4.4260   33.2160  -20.5470 C.ar  112  TYR112      0.1957
     38  OH         4.9260   32.2710  -19.6680 O.3   112  TYR112     -0.2866
     39  N          3.1580   37.3400  -26.6460 N.am  113  ASP113     -0.1971
     40  CA         2.6060   38.2570  -27.6580 C.3   113  ASP113      0.1709
     41  C          1.1210   38.0580  -27.6550 C.2   113  ASP113      0.2293
     42  O          0.5500   37.5770  -28.6310 O.2   113  ASP113     -0.2864
     43  CB         3.1910   37.9560  -29.0580 C.3   113  ASP113      0.1436
     44  CG         2.5990   38.8360  -30.1890 C.2   113  ASP113      0.3671
     45  OD1        2.6920   40.0870  -30.1240 O.co2 113  ASP113     -0.2456
     46  OD2        2.0760   38.2600  -31.1820 O.co2 113  ASP113     -0.2456
     47  N         -2.6660   34.9620  -22.2090 N.3   116  ILE116     -0.1245
     48  CA        -2.6830   33.5120  -22.0900 C.3   116  ILE116      0.1561
     49  C         -3.8660   33.1230  -21.1980 C.2   116  ILE116      0.2260
     50  O         -4.3590   33.9250  -20.4190 O.2   116  ILE116     -0.2867
     51  CB        -1.3510   32.9560  -21.5240 C.3   116  ILE116      0.0252
     52  CG1       -1.0310   33.5940  -20.1670 C.3   116  ILE116      0.0019
     53  CG2       -0.2200   33.1930  -22.5100 C.3   116  ILE116      0.0019
     54  CD1       -0.0850   32.7870  -19.3090 C.3   116  ILE116      0.0001
     55  N         -1.7840   27.6480  -15.6430 N.3   120  PRO120     -0.2102
     56  CA        -0.5380   26.8650  -15.5860 C.3   120  PRO120      0.1504
     57  C          0.2940   27.2540  -14.3570 C.2   120  PRO120      0.2575
     58  O          0.0890   28.3310  -13.7980 O.2   120  PRO120     -0.2718
     59  CB         0.1880   27.2870  -16.8650 C.3   120  PRO120      0.0282
     60  CG        -0.3320   28.6740  -17.1340 C.3   120  PRO120      0.0208
     61  CD        -1.7740   28.6540  -16.7200 C.3   120  PRO120      0.0893
     62  N          1.2190   26.4030  -13.9300 N.am  121  GLN121     -0.1980
     63  CA         2.0700   26.7650  -12.7960 C.3   121  GLN121      0.1601
     64  C          3.2500   27.5970  -13.2670 C.2   121  GLN121      0.2287
     65  O          3.9300   27.2280  -14.2150 O.2   121  GLN121     -0.2864
     66  CB         2.5660   25.5260  -12.0570 C.3   121  GLN121      0.0394
     67  CG         3.3740   25.8370  -10.8090 C.3   121  GLN121      0.0908
     68  CD         4.1540   24.6390  -10.3120 C.2   121  GLN121      0.2608
     69  OE1        3.6550   23.8420   -9.5160 O.2   121  GLN121     -0.2717
     70  NE2        5.3900   24.5020  -10.7860 N.am  121  GLN121     -0.0878
     71  N          6.8420   30.2220  -12.9600 N.3   123  ILE123     -0.1245
     72  CA         8.2280   30.0910  -12.5320 C.3   123  ILE123      0.1561
     73  C          8.7040   31.4200  -11.9570 C.2   123  ILE123      0.2260
     74  O          8.7230   32.4310  -12.6410 O.2   123  ILE123     -0.2867
     75  CB         9.1470   29.5710  -13.6840 C.3   123  ILE123      0.0252
     76  CG1       10.4830   29.1070  -13.1470 C.3   123  ILE123      0.0019
     77  CG2        9.4030   30.6160  -14.7440 C.3   123  ILE123      0.0019
     78  CD1       11.3060   28.4560  -14.2180 C.3   123  ILE123      0.0001
     79  N         -5.0780   23.8280  -21.2430 N.3   483  ASP483     -0.1239
     80  CA        -4.2340   22.6530  -21.0670 C.3   483  ASP483      0.1674
     81  C         -4.9270   21.6960  -20.1070 C.2   483  ASP483      0.2266
     82  O         -5.5780   22.1300  -19.1540 O.2   483  ASP483     -0.2867
     83  CB        -2.8630   23.0750  -20.5100 C.3   483  ASP483      0.1410
     84  CG        -1.7710   22.0200  -20.7300 C.2   483  ASP483      0.3668
     85  OD1       -1.8800   20.9220  -20.1340 O.co2 483  ASP483     -0.2456
     86  OD2       -0.7970   22.2980  -21.4860 O.co2 483  ASP483     -0.2456
     87  N         -3.4390   19.1050  -18.3330 N.3   485  ASN485     -0.1225
     88  CA        -2.6250   18.6540  -17.2070 C.3   485  ASN485      0.1785
     89  C         -2.0290   19.8050  -16.4210 C.2   485  ASN485      0.2597
     90  O         -1.7140   19.6670  -15.2430 O.2   485  ASN485     -0.2718
     91  CB        -1.5030   17.7110  -17.6660 C.3   485  ASN485      0.1169
     92  CG        -2.0070   16.5990  -18.5790 C.2   485  ASN485      0.2627
     93  OD1       -1.6000   16.5090  -19.7400 O.2   485  ASN485     -0.2716
     94  ND2       -2.9040   15.7510  -18.0590 N.am  485  ASN485     -0.0877
     95  N         -1.8620   20.9540  -17.0520 N.am  486  ASP486     -0.1974
     96  CA        -1.2650   22.0510  -16.3130 C.3   486  ASP486      0.1709
     97  C         -2.3120   23.0570  -15.8700 C.2   486  ASP486      0.2293
     98  O         -2.5960   24.0370  -16.5740 O.2   486  ASP486     -0.2864
     99  CB        -0.1360   22.7120  -17.1020 C.3   486  ASP486      0.1436
    100  CG         0.8690   23.4010  -16.1980 C.2   486  ASP486      0.3671
    101  OD1        0.5880   23.5320  -14.9730 O.co2 486  ASP486     -0.2456
    102  OD2        1.9400   23.8090  -16.7090 O.co2 486  ASP486     -0.2456
@<TRIPOS>BOND
     1    46    44   ar
     2    44    45   ar
     3    44    43    1
     4    43    40    1
     5    42    41    2
     6    40    41    1
     7    40    39    1
     8    39    29   am
     9    20    19    2
    10    29    30    2
    11    29    28    1
    12    23    25   ar
    13    23    22   ar
    14    25    26   ar
    15    19    18    1
    16    19    27   am
    17    28    27    1
    18    28    31    1
    19    18    21    1
    20    18    17    1
    21    21    22    1
    22    22    24   ar
    23    26    24   ar
    24    31    32    1
    25    53    51    1
    26    33    32   ar
    27    33    35   ar
    28    32    34   ar
    29    47    48    1
    30    48    51    1
    31    48    49    1
    32    51    52    1
    33    35    37   ar
    34    86    84   ar
    35    34    36   ar
    36    79    80    1
    37    49    50    2
    38    80    83    1
    39    80    81    1
    40    16    15    2
    41    84    83    1
    42    84    85   ar
    43    37    36   ar
    44    37    38    1
    45    52    54    1
    46    81    82    2
    47    93    92    2
    48    15    14    1
    49    14    13    1
    50    92    94   am
    51    92    91    1
    52    87    88    1
    53    11    10    2
    54    91    88    1
    55    13    10   am
    56    88    89    1
    57    60    59    1
    58    60    61    1
    59    99    96    1
    60    99   100    1
    61    10     9    1
    62    95    89   am
    63    95    96    1
    64    59    56    1
    65    61    55    1
    66   102   100   ar
    67    98    97    2
    68    89    90    2
    69    96    97    1
    70   100   101   ar
    71     7     5    1
    72     9    12    1
    73     9     8    1
    74    55    56    1
    75     4     3    2
    76    56    57    1
    77     6     5    1
    78     3     8   am
    79     3     2    1
    80    77    75    1
    81     5     2    1
    82    57    62   am
    83    57    58    2
    84    78    76    1
    85    65    64    2
    86     2     1    1
    87    62    63    1
    88    75    76    1
    89    75    72    1
    90    64    63    1
    91    71    72    1
    92    63    66    1
    93    74    73    2
    94    72    73    1
    95    66    67    1
    96    67    68    1
    97    70    68   am
    98    68    69    2
