@<TRIPOS>MOLECULE
tmp/3kowC01.pdb
 197 192 0 0 0
SMALL
GASTEIGER

@<TRIPOS>ATOM
      1  N          9.8120   23.9600  -35.1360 N.3   603  GLU603     -0.1245
      2  CA         8.4860   24.5420  -35.1810 C.3   603  GLU603      0.1567
      3  C          8.1500   25.1670  -33.8310 C.2   603  GLU603      0.2260
      4  O          7.0150   25.5720  -33.5860 O.2   603  GLU603     -0.2867
      5  CB         7.4450   23.4690  -35.4950 C.3   603  GLU603      0.0388
      6  CG         7.5170   22.8530  -36.8920 C.3   603  GLU603      0.1160
      7  CD         6.2750   22.0090  -37.2150 C.2   603  GLU603      0.3649
      8  OE1        5.9870   21.0410  -36.4640 O.co2 603  GLU603     -0.2457
      9  OE2        5.5880   22.3170  -38.2210 O.co2 603  GLU603     -0.2457
     10  N          7.6560   27.7160  -30.9740 N.3   605  GLU605     -0.1231
     11  CA         7.3520   29.1360  -30.7900 C.3   605  GLU605      0.1699
     12  C          7.6130   29.6380  -29.3560 C.2   605  GLU605      0.2592
     13  O          7.3670   30.8060  -29.0560 O.2   605  GLU605     -0.2718
     14  CB         5.8920   29.4290  -31.1670 C.3   605  GLU605      0.0402
     15  CG         5.5420   29.1960  -32.6370 C.3   605  GLU605      0.1161
     16  CD         5.7580   30.4260  -33.5420 C.2   605  GLU605      0.3649
     17  OE1        5.9190   31.5560  -33.0150 O.co2 605  GLU605     -0.2457
     18  OE2        5.7510   30.2590  -34.7900 O.co2 605  GLU605     -0.2457
     19  N          8.0910   28.7630  -28.4740 N.am  606  HIS606     -0.1962
     20  CA         8.3850   29.1460  -27.0970 C.3   606  HIS606      0.1787
     21  C          9.6610   29.9570  -27.0380 C.2   606  HIS606      0.2621
     22  O         10.7530   29.4010  -27.1320 O.2   606  HIS606     -0.2715
     23  CB         8.6010   27.9070  -26.2550 C.3   606  HIS606      0.0785
     24  CG         7.4050   27.0270  -26.1380 C.ar  606  HIS606      0.0821
     25  ND1        6.9460   26.2410  -27.1810 N.ar  606  HIS606     -0.2267
     26  CD2        6.5870   26.7570  -25.0920 C.ar  606  HIS606      0.1154
     27  CE1        5.9010   25.5510  -26.7850 C.ar  606  HIS606      0.1986
     28  NE2        5.6580   25.8480  -25.5150 N.ar  606  HIS606     -0.2212
     29  N          9.5430   31.2590  -26.8410 N.am  607  SER607     -0.1936
     30  CA        10.7220   32.1210  -26.8910 C.3   607  SER607      0.2055
     31  C         11.3310   32.5380  -25.5430 C.2   607  SER607      0.2643
     32  O         12.4600   33.0020  -25.4980 O.2   607  SER607     -0.2714
     33  CB        10.3640   33.3780  -27.6550 C.3   607  SER607      0.2130
     34  OG         9.1310   33.8700  -27.1610 O.3   607  SER607     -0.2179
     35  N         10.5800   32.3790  -24.4630 N.am  608  VAL608     -0.1963
     36  CA        10.8900   33.0280  -23.1940 C.3   608  VAL608      0.1727
     37  C         12.1490   32.4890  -22.5240 C.2   608  VAL608      0.2617
     38  O         12.9810   33.2510  -22.0240 O.2   608  VAL608     -0.2715
     39  CB         9.6890   32.9170  -22.2260 C.3   608  VAL608      0.0290
     40  CG1       10.0800   33.2930  -20.7990 C.3   608  VAL608      0.0023
     41  CG2        8.5530   33.7720  -22.7220 C.3   608  VAL608      0.0023
     42  N         12.2740   31.1680  -22.5030 N.am  609  GLY609     -0.1940
     43  CA        13.4360   30.5260  -21.9210 C.3   609  GLY609      0.2014
     44  C         14.7240   31.0980  -22.4750 C.2   609  GLY609      0.2638
     45  O         15.6070   31.4760  -21.7100 O.2   609  GLY609     -0.2714
     46  N         14.8280   31.1680  -23.7980 N.am  610  LEU610     -0.1977
     47  CA        16.0270   31.6930  -24.4350 C.3   610  LEU610      0.1596
     48  C         16.2400   33.1480  -24.0850 C.2   610  LEU610      0.2287
     49  O         17.3590   33.5590  -23.7810 O.2   610  LEU610     -0.2864
     50  CB        15.9520   31.5580  -25.9510 C.3   610  LEU610      0.0297
     51  CG        17.2470   31.9240  -26.6790 C.3   610  LEU610      0.0022
     52  CD1       18.4230   31.2140  -26.0500 C.3   610  LEU610      0.0001
     53  CD2       17.1450   31.5910  -28.1550 C.3   610  LEU610      0.0001
     54  N         15.1980   34.6160  -21.5230 N.3   612  GLU612     -0.1231
     55  CA        15.5250   34.7610  -20.1220 C.3   612  GLU612      0.1699
     56  C         17.0360   34.7360  -19.9040 C.2   612  GLU612      0.2592
     57  O         17.5240   35.3910  -18.9890 O.2   612  GLU612     -0.2718
     58  CB        14.8250   33.7070  -19.2730 C.3   612  GLU612      0.0402
     59  CG        14.8610   34.0200  -17.7770 C.3   612  GLU612      0.1161
     60  CD        14.1970   35.3570  -17.4160 C.2   612  GLU612      0.3649
     61  OE1       14.1880   35.7030  -16.2130 O.co2 612  GLU612     -0.2457
     62  OE2       13.6860   36.0550  -18.3270 O.co2 612  GLU612     -0.2457
     63  N         17.7720   33.9940  -20.7390 N.am  613  VAL613     -0.1980
     64  CA        19.2350   33.9430  -20.6130 C.3   613  VAL613      0.1595
     65  C         19.9690   34.9370  -21.5240 C.2   613  VAL613      0.2287
     66  O         21.1950   34.9460  -21.5960 O.2   613  VAL613     -0.2864
     67  CB        19.8620   32.5020  -20.7520 C.3   613  VAL613      0.0276
     68  CG1       19.4110   31.5820  -19.6210 C.3   613  VAL613      0.0022
     69  CG2       19.5780   31.8880  -22.1150 C.3   613  VAL613      0.0022
     70  N         23.4350   29.6010  -29.8140 N.3   653  LEU653     -0.1231
     71  CA        22.5930   29.1370  -28.7290 C.3   653  LEU653      0.1693
     72  C         21.2520   28.8080  -29.3400 C.2   653  LEU653      0.2592
     73  O         20.6310   29.6690  -29.9580 O.2   653  LEU653     -0.2718
     74  CB        22.4750   30.2160  -27.6530 C.3   653  LEU653      0.0284
     75  CG        23.7990   30.6740  -27.0230 C.3   653  LEU653      0.0019
     76  CD1       23.5720   31.7910  -26.0260 C.3   653  LEU653      0.0001
     77  CD2       24.5470   29.5140  -26.3620 C.3   653  LEU653      0.0001
     78  N         20.8230   27.5540  -29.2170 N.am  654  ALA654     -0.1966
     79  CA        19.5300   27.1650  -29.7820 C.3   654  ALA654      0.1728
     80  C         18.5640   26.7120  -28.7270 C.2   654  ALA654      0.2616
     81  O         18.8630   25.8410  -27.9330 O.2   654  ALA654     -0.2715
     82  CB        19.6730   26.0930  -30.8340 C.3   654  ALA654      0.0334
     83  N         17.3860   27.3090  -28.7320 N.am  655  SER655     -0.1950
     84  CA        16.3510   26.9110  -27.8030 C.3   655  SER655      0.1924
     85  C         15.5950   25.7170  -28.3630 C.2   655  SER655      0.2314
     86  O         15.5190   25.5210  -29.5750 O.2   655  SER655     -0.2863
     87  CB        15.4050   28.0740  -27.5250 C.3   655  SER655      0.2116
     88  OG        14.7420   27.8720  -26.2900 O.3   655  SER655     -0.2180
     89  N         12.3020   23.6660  -26.7610 N.3   657  ILE657     -0.1231
     90  CA        11.3810   23.5840  -25.6050 C.3   657  ILE657      0.1692
     91  C         10.4090   22.4170  -25.6790 C.2   657  ILE657      0.2592
     92  O         10.2380   21.6770  -24.7040 O.2   657  ILE657     -0.2718
     93  CB        10.5740   24.8950  -25.3610 C.3   657  ILE657      0.0266
     94  CG1       11.5010   26.0910  -25.0950 C.3   657  ILE657      0.0019
     95  CG2        9.6450   24.7220  -24.2070 C.3   657  ILE657      0.0020
     96  CD1       12.6700   25.8060  -24.1860 C.3   657  ILE657      0.0001
     97  N          9.7650   22.2710  -26.8310 N.am  658  ILE658     -0.1966
     98  CA         8.9350   21.1050  -27.1140 C.3   658  ILE658      0.1727
     99  C          9.7980   19.8460  -27.0900 C.2   658  ILE658      0.2617
    100  O         10.7910   19.7490  -27.8120 O.2   658  ILE658     -0.2715
    101  CB         8.2380   21.2350  -28.4880 C.3   658  ILE658      0.0290
    102  CG1        7.0700   22.2080  -28.3840 C.3   658  ILE658      0.0022
    103  CG2        7.7420   19.8810  -28.9640 C.3   658  ILE658      0.0023
    104  CD1        6.4620   22.5570  -29.7120 C.3   658  ILE658      0.0001
    105  N          9.4400   18.8880  -26.2470 N.am  659  SER659     -0.1936
    106  CA        10.2450   17.6810  -26.1390 C.3   659  SER659      0.2055
    107  C          9.4230   16.4530  -26.4880 C.2   659  SER659      0.2643
    108  O          9.6610   15.3570  -25.9740 O.2   659  SER659     -0.2714
    109  CB        10.8380   17.5550  -24.7380 C.3   659  SER659      0.2130
    110  OG         9.8470   17.7890  -23.7610 O.3   659  SER659     -0.2179
    111  N          8.4520   16.6360  -27.3690 N.am  660  HIS660     -0.1973
    112  CA         7.5810   15.5380  -27.7340 C.3   660  HIS660      0.1656
    113  C          8.2770   14.6170  -28.7200 C.2   660  HIS660      0.2291
    114  O          8.4460   14.9620  -29.8910 O.2   660  HIS660     -0.2864
    115  CB         6.2830   16.0600  -28.3360 C.3   660  HIS660      0.0771
    116  CG         5.4470   14.9880  -28.9540 C.ar  660  HIS660      0.0820
    117  ND1        4.6330   14.1610  -28.2120 N.ar  660  HIS660     -0.2267
    118  CD2        5.3200   14.5890  -30.2430 C.ar  660  HIS660      0.1154
    119  CE1        4.0310   13.3020  -29.0180 C.ar  660  HIS660      0.1986
    120  NE2        4.4310   13.5420  -30.2540 N.ar  660  HIS660     -0.2212
    121  N         25.8970   25.6100  -28.1170 N.3   687  GLY687     -0.1210
    122  CA        25.2890   25.3050  -26.8310 C.3   687  GLY687      0.1956
    123  C         23.7850   25.2400  -26.9700 C.2   687  GLY687      0.2612
    124  O         23.2030   25.9350  -27.8060 O.2   687  GLY687     -0.2717
    125  N         23.1430   24.4060  -26.1560 N.am  688  CYS688     -0.1956
    126  CA        21.6860   24.2220  -26.2480 C.3   688  CYS688      0.1843
    127  C         20.9140   24.1760  -24.9210 C.2   688  CYS688      0.2626
    128  O         21.4190   23.7060  -23.9050 O.2   688  CYS688     -0.2714
    129  CB        21.3760   22.9970  -27.0910 C.3   688  CYS688      0.0997
    130  SG        21.9680   23.2600  -28.7550 S.3   688  CYS688     -0.0797
    131  N         19.6830   24.6720  -24.9440 N.am  689  GLY689     -0.1940
    132  CA        18.8610   24.6680  -23.7560 C.3   689  GLY689      0.2014
    133  C         17.4070   24.3390  -24.0070 C.2   689  GLY689      0.2639
    134  O         16.9290   24.3940  -25.1330 O.2   689  GLY689     -0.2714
    135  N         16.7050   24.0100  -22.9300 N.am  690  GLY690     -0.1939
    136  CA        15.3210   23.5880  -22.9870 C.3   690  GLY690      0.2014
    137  C         14.9720   22.9010  -21.6780 C.2   690  GLY690      0.2640
    138  O         15.8130   22.2100  -21.0860 O.2   690  GLY690     -0.2714
    139  N         13.7390   23.0880  -21.2130 N.am  691  THR691     -0.1936
    140  CA        13.3500   22.5810  -19.8980 C.3   691  THR691      0.2028
    141  C         13.6960   21.1050  -19.7190 C.2   691  THR691      0.2642
    142  O         14.0220   20.6650  -18.6190 O.2   691  THR691     -0.2714
    143  CB        11.8520   22.7770  -19.6590 C.3   691  THR691      0.1808
    144  OG1       11.3830   23.8630  -20.4720 O.3   691  THR691     -0.2208
    145  CG2       11.5650   23.0510  -18.1780 C.3   691  THR691      0.0379
    146  N         13.6390   20.3550  -20.8150 N.am  692  GLN692     -0.1976
    147  CA        13.7270   18.9020  -20.7630 C.3   692  GLN692      0.1601
    148  C         15.1000   18.4030  -21.1180 C.2   692  GLN692      0.2287
    149  O         15.2970   17.2080  -21.3010 O.2   692  GLN692     -0.2864
    150  CB        12.7330   18.2900  -21.7440 C.3   692  GLN692      0.0394
    151  CG        11.3180   18.6760  -21.4640 C.3   692  GLN692      0.0908
    152  CD        10.9440   18.3690  -20.0500 C.2   692  GLN692      0.2608
    153  OE1       11.4400   17.4040  -19.4710 O.2   692  GLN692     -0.2717
    154  NE2       10.0660   19.1870  -19.4760 N.am  692  GLN692     -0.0878
    155  N         21.8010   22.9390  -21.3860 N.3   707  PHE707     -0.1227
    156  CA        21.3050   23.6860  -20.2400 C.3   707  PHE707      0.1736
    157  C         19.8620   23.3570  -19.9630 C.2   707  PHE707      0.2596
    158  O         19.0570   23.3450  -20.8820 O.2   707  PHE707     -0.2718
    159  CB        21.4710   25.1770  -20.5020 C.3   707  PHE707      0.0547
    160  CG        22.9000   25.5920  -20.6810 C.ar  707  PHE707     -0.0202
    161  CD1       23.6670   25.9820  -19.5820 C.ar  707  PHE707     -0.0042
    162  CD2       23.4940   25.5610  -21.9400 C.ar  707  PHE707     -0.0042
    163  CE1       24.9930   26.3660  -19.7360 C.ar  707  PHE707     -0.0003
    164  CE2       24.8230   25.9380  -22.1050 C.ar  707  PHE707     -0.0003
    165  CZ        25.5710   26.3470  -20.9980 C.ar  707  PHE707     -0.0000
    166  N         19.5460   23.0810  -18.6950 N.am  708  GLY708     -0.1942
    167  CA        18.2090   22.6600  -18.2880 C.3   708  GLY708      0.2014
    168  C         17.5820   23.6440  -17.3240 C.2   708  GLY708      0.2639
    169  O         17.9920   24.8010  -17.2820 O.2   708  GLY708     -0.2714
    170  N         16.5930   23.1970  -16.5510 N.am  709  ARG709     -0.1963
    171  CA        15.8900   24.0920  -15.6260 C.3   709  ARG709      0.1729
    172  C         16.8870   24.8320  -14.7520 C.2   709  ARG709      0.2617
    173  O         17.9410   24.2970  -14.4200 O.2   709  ARG709     -0.2715
    174  CB        14.9220   23.3260  -14.7250 C.3   709  ARG709      0.0348
    175  CG        13.7980   22.6240  -15.4390 C.3   709  ARG709      0.0492
    176  CD        12.9060   21.8920  -14.4470 C.3   709  ARG709      0.2205
    177  NE        11.8980   21.0790  -15.1210 N.pl3 709  ARG709     -0.0865
    178  CZ        12.0570   19.7990  -15.4550 C.cat 709  ARG709      0.5346
    179  NH1       13.1960   19.1650  -15.1770 N.pl3 709  ARG709      0.1354
    180  NH2       11.0690   19.1500  -16.0680 N.pl3 709  ARG709      0.1354
    181  N         16.5540   26.0590  -14.3800 N.am  710  GLY710     -0.1940
    182  CA        17.4240   26.8290  -13.5170 C.3   710  GLY710      0.2014
    183  C         18.6950   27.3610  -14.1670 C.2   710  GLY710      0.2639
    184  O         19.6980   27.5550  -13.4840 O.2   710  GLY710     -0.2714
    185  N         18.6760   27.6090  -15.4740 N.am  711  SER711     -0.1949
    186  CA        19.8450   28.2020  -16.1270 C.3   711  SER711      0.1924
    187  C         19.8030   29.7130  -16.0200 C.2   711  SER711      0.2314
    188  O         18.7840   30.3400  -16.3120 O.2   711  SER711     -0.2863
    189  CB        19.9410   27.8050  -17.6060 C.3   711  SER711      0.2116
    190  OG        20.0220   26.4050  -17.7470 O.3   711  SER711     -0.2180
    191  N         25.7790   30.4180  -18.8020 N.3   716  VAL716     -0.1245
    192  CA        26.0940   30.4520  -20.2150 C.3   716  VAL716      0.1561
    193  C         27.3320   31.2800  -20.5060 C.2   716  VAL716      0.2260
    194  O         28.1650   30.8720  -21.2960 O.2   716  VAL716     -0.2867
    195  CB        24.9120   30.9760  -21.0300 C.3   716  VAL716      0.0252
    196  CG1       25.2920   31.1180  -22.4960 C.3   716  VAL716      0.0019
    197  CG2       23.7430   30.0350  -20.8740 C.3   716  VAL716      0.0019
@<TRIPOS>BOND
     1     9     7   ar
     2     7     6    1
     3     7     8   ar
     4     6     5    1
     5     5     2    1
     6     2     1    1
     7     2     3    1
     8    18    16   ar
     9     3     4    2
    10    16    17   ar
    11    16    15    1
    12    15    14    1
    13    14    11    1
    14    10    11    1
    15    82    79    1
    16    11    12    1
    17   120   118   ar
    18   120   119   ar
    19   118   116   ar
    20    73    72    2
    21   114   113    2
    22    70    71    1
    23    79    78    1
    24    79    80    1
    25   104   102    1
    26    86    85    2
    27    12    13    2
    28    12    19   am
    29    72    78   am
    30    72    71    1
    31   119   117   ar
    32   103   101    1
    33   116   115    1
    34   116   117   ar
    35   130   129    1
    36    83    80   am
    37    83    84    1
    38    71    74    1
    39    80    81    2
    40   113   112    1
    41   101   102    1
    42   101    98    1
    43    19    20    1
    44    85    84    1
    45   115   112    1
    46    53    51    1
    47   121   122    1
    48   100    99    2
    49   124   123    2
    50    84    87    1
    51   112   111    1
    52    33    34    1
    53    33    30    1
    54    74    75    1
    55    87    88    1
    56   111   107   am
    57    25    27   ar
    58    25    24   ar
    59    22    21    2
    60    98    99    1
    61    98    97    1
    62    20    21    1
    63    20    23    1
    64   129   126    1
    65    99   105   am
    66    21    29   am
    67    75    77    1
    68    75    76    1
    69   123   122    1
    70   123   125   am
    71    30    29    1
    72    30    31    1
    73    97    91   am
    74    27    28   ar
    75    89    90    1
    76    51    52    1
    77    51    50    1
    78   107   106    1
    79   107   108    2
    80    23    24    1
    81   126   125    1
    82   126   127    1
    83   105   106    1
    84   106   109    1
    85    24    26   ar
    86    50    47    1
    87    91    90    1
    88    91    92    2
    89    90    93    1
    90    31    32    2
    91    31    35   am
    92    28    26   ar
    93    93    94    1
    94    93    95    1
    95   134   133    2
    96    94    96    1
    97   131   127   am
    98   131   132    1
    99   127   128    2
   100   109   110    1
   101    35    36    1
   102    47    48    1
   103    47    46    1
   104    48    49    2
   105   133   132    1
   106   133   135   am
   107    46    44   am
   108    36    37    1
   109    36    39    1
   110   136   135    1
   111   136   137    1
   112    41    39    1
   113    37    42   am
   114    37    38    2
   115    42    43    1
   116   196   195    1
   117    44    43    1
   118    44    45    2
   119    39    40    1
   120    69    67    1
   121   164   162   ar
   122   164   165   ar
   123   162   160   ar
   124   150   151    1
   125   150   147    1
   126   137   139   am
   127   137   138    2
   128    66    65    2
   129    65    64    1
   130    54    55    1
   131   151   152    1
   132   155   156    1
   133   149   148    2
   134   194   193    2
   135   139   140    1
   136   148   147    1
   137   195   197    1
   138   195   192    1
   139   165   163   ar
   140   158   157    2
   141   146   147    1
   142   146   141   am
   143    67    64    1
   144    67    68    1
   145    63    64    1
   146    63    56   am
   147   160   159    1
   148   160   161   ar
   149   193   192    1
   150   159   156    1
   151   144   143    1
   152   156   157    1
   153   192   191    1
   154    55    56    1
   155    55    58    1
   156   152   154   am
   157   152   153    2
   158   157   166   am
   159    56    57    2
   160   140   141    1
   161   140   143    1
   162   163   161   ar
   163   141   142    2
   164   143   145    1
   165    58    59    1
   166   166   167    1
   167    62    60   ar
   168   167   168    1
   169    59    60    1
   170   190   189    1
   171   189   186    1
   172    60    61   ar
   173   168   169    2
   174   168   170   am
   175   170   171    1
   176   188   187    2
   177   186   187    1
   178   186   185    1
   179   180   178    1
   180   171   172    1
   181   171   174    1
   182   185   183   am
   183   178   179    1
   184   178   177    2
   185   175   174    1
   186   175   176    1
   187   177   176    1
   188   172   173    2
   189   172   181   am
   190   181   182    1
   191   183   182    1
   192   183   184    2
