@<TRIPOS>MOLECULE
tmp/3kowE03.pdb
 140 136 0 0 0
SMALL
GASTEIGER

@<TRIPOS>ATOM
      1  N        -25.1990   98.8820   70.6090 N.3   104  ILE104     -0.1231
      2  CA       -24.2280   99.0690   71.6760 C.3   104  ILE104      0.1692
      3  C        -24.7240  100.1010   72.7040 C.2   104  ILE104      0.2592
      4  O        -25.4840  101.0170   72.3780 O.2   104  ILE104     -0.2718
      5  CB       -22.8290   99.4460   71.1480 C.3   104  ILE104      0.0266
      6  CG1      -22.3740   98.4650   70.0670 C.3   104  ILE104      0.0019
      7  CG2      -21.8210   99.4230   72.2860 C.3   104  ILE104      0.0020
      8  CD1      -23.0320   98.6520   68.7140 C.3   104  ILE104      0.0001
      9  N        -24.2900   99.9290   73.9450 N.am  105  ARG105     -0.1966
     10  CA       -24.7050  100.7700   75.0430 C.3   105  ARG105      0.1729
     11  C        -23.6880  101.8620   75.2910 C.2   105  ARG105      0.2617
     12  O        -22.4920  101.6690   75.0730 O.2   105  ARG105     -0.2715
     13  CB       -24.8460   99.9180   76.2990 C.3   105  ARG105      0.0348
     14  CG       -25.7030   98.6940   76.0840 C.3   105  ARG105      0.0492
     15  CD       -25.8150   97.8510   77.3260 C.3   105  ARG105      0.2205
     16  NE       -24.5200   97.4930   77.8990 N.pl3 105  ARG105     -0.0865
     17  CZ       -24.3860   96.6990   78.9580 C.cat 105  ARG105      0.5346
     18  NH1      -25.4650   96.1850   79.5340 N.pl3 105  ARG105      0.1354
     19  NH2      -23.1840   96.4130   79.4440 N.pl3 105  ARG105      0.1354
     20  N        -24.1720  103.0090   75.7540 N.am  106  THR106     -0.1937
     21  CA       -23.2970  104.1210   76.0710 C.3   106  THR106      0.2028
     22  C        -22.1570  103.5940   76.9160 C.2   106  THR106      0.2642
     23  O        -22.3530  102.7460   77.7700 O.2   106  THR106     -0.2714
     24  CB       -24.0230  105.2520   76.8230 C.3   106  THR106      0.1808
     25  OG1      -23.0510  106.1020   77.4480 O.3   106  THR106     -0.2208
     26  CG2      -24.9340  104.6900   77.8950 C.3   106  THR106      0.0379
     27  N        -20.9620  104.0950   76.6370 N.am  107  ALA107     -0.1963
     28  CA       -19.7560  103.6820   77.3240 C.3   107  ALA107      0.1728
     29  C        -20.0300  103.4160   78.7860 C.2   107  ALA107      0.2617
     30  O        -20.6350  104.2430   79.4770 O.2   107  ALA107     -0.2715
     31  CB       -18.6780  104.7480   77.1740 C.3   107  ALA107      0.0334
     32  N        -19.5930  102.2440   79.2370 N.am  108  GLY108     -0.1940
     33  CA       -19.6760  101.8580   80.6310 C.3   108  GLY108      0.2014
     34  C        -21.0510  101.6930   81.2700 C.2   108  GLY108      0.2639
     35  O        -21.1380  101.6280   82.4880 O.2   108  GLY108     -0.2714
     36  N        -22.1280  101.6190   80.4950 N.am  109  GLN109     -0.1963
     37  CA       -23.4200  101.3290   81.1050 C.3   109  GLN109      0.1733
     38  C        -23.2930  100.0450   81.9460 C.2   109  GLN109      0.2617
     39  O        -24.0770   99.7930   82.8770 O.2   109  GLN109     -0.2715
     40  CB       -24.5380  101.2000   80.0620 C.3   109  GLN109      0.0408
     41  CG       -25.7760  100.5110   80.6270 C.3   109  GLN109      0.0908
     42  CD       -27.0680  100.8930   79.9450 C.2   109  GLN109      0.2608
     43  OE1      -27.0860  101.2870   78.7790 O.2   109  GLN109     -0.2717
     44  NE2      -28.1700  100.7620   80.6720 N.am  109  GLN109     -0.0878
     45  N        -22.2830   99.2450   81.6190 N.am  110  SER110     -0.1950
     46  CA       -21.9970   98.0280   82.3580 C.3   110  SER110      0.1924
     47  C        -21.7820   98.3000   83.8410 C.2   110  SER110      0.2314
     48  O        -21.9840   97.4190   84.6740 O.2   110  SER110     -0.2863
     49  CB       -20.7620   97.3460   81.7850 C.3   110  SER110      0.2116
     50  OG       -20.4110   96.2100   82.5510 O.3   110  SER110     -0.2180
     51  N        -27.1090   94.1400   74.9350 N.3   156  TYR156     -0.1241
     52  CA       -26.0950   93.7170   75.8970 C.3   156  TYR156      0.1605
     53  C        -26.6430   93.6250   77.3250 C.2   156  TYR156      0.2264
     54  O        -27.2940   94.5520   77.8270 O.2   156  TYR156     -0.2867
     55  CB       -24.8820   94.6630   75.8530 C.3   156  TYR156      0.0534
     56  CG       -24.0590   94.5820   74.5810 C.ar  156  TYR156     -0.0201
     57  CD1      -22.7910   94.0090   74.5780 C.ar  156  TYR156     -0.0009
     58  CD2      -24.5530   95.0750   73.3790 C.ar  156  TYR156     -0.0009
     59  CE1      -22.0380   93.9380   73.4240 C.ar  156  TYR156      0.0417
     60  CE2      -23.8080   95.0040   72.2150 C.ar  156  TYR156      0.0417
     61  CZ       -22.5530   94.4340   72.2440 C.ar  156  TYR156      0.1957
     62  OH       -21.8300   94.3650   71.0750 O.3   156  TYR156     -0.2866
     63  N        -24.9570   93.0680   80.5190 N.3   158  SER158     -0.1217
     64  CA       -23.6170   92.9830   81.1120 C.3   158  SER158      0.1889
     65  C        -23.3650   93.8690   82.3420 C.2   158  SER158      0.2288
     66  O        -24.0710   94.8620   82.5920 O.2   158  SER158     -0.2866
     67  CB       -22.5590   93.2950   80.0530 C.3   158  SER158      0.2089
     68  OG       -22.4460   92.2410   79.1100 O.3   158  SER158     -0.2183
     69  N        -25.8040   89.8220   74.1680 N.3   178  HIS178     -0.1226
     70  CA       -24.4860   89.3520   74.5300 C.3   178  HIS178      0.1752
     71  C        -24.5570   89.0940   76.0070 C.2   178  HIS178      0.2596
     72  O        -25.1730   89.8560   76.7300 O.2   178  HIS178     -0.2718
     73  CB       -23.4400   90.4290   74.2890 C.3   178  HIS178      0.0759
     74  CG       -23.0200   90.5710   72.8620 C.ar  178  HIS178      0.0818
     75  ND1      -23.8480   90.2730   71.8040 N.ar  178  HIS178     -0.2268
     76  CD2      -21.8570   91.0110   72.3190 C.ar  178  HIS178      0.1154
     77  CE1      -23.2140   90.5140   70.6700 C.ar  178  HIS178      0.1986
     78  NE2      -22.0020   90.9610   70.9580 N.ar  178  HIS178     -0.2212
     79  N        -23.9450   88.0190   76.4660 N.am  179  GLN179     -0.1965
     80  CA       -23.8240   87.7920   77.8980 C.3   179  GLN179      0.1733
     81  C        -22.7140   86.7970   78.1710 C.2   179  GLN179      0.2616
     82  O        -22.7470   85.6670   77.6890 O.2   179  GLN179     -0.2715
     83  CB       -25.1330   87.3280   78.5340 C.3   179  GLN179      0.0408
     84  CG       -25.1490   87.5010   80.0600 C.3   179  GLN179      0.0908
     85  CD       -24.2610   86.4840   80.8050 C.2   179  GLN179      0.2608
     86  OE1      -24.2500   85.3000   80.4680 O.2   179  GLN179     -0.2717
     87  NE2      -23.5320   86.9460   81.8280 N.am  179  GLN179     -0.0878
     88  N        -21.7180   87.2560   78.9290 N.am  180  ASP180     -0.1971
     89  CA       -20.5630   86.4530   79.2860 C.3   180  ASP180      0.1709
     90  C        -20.0680   86.8920   80.6460 C.2   180  ASP180      0.2293
     91  O        -19.5330   87.9860   80.7900 O.2   180  ASP180     -0.2864
     92  CB       -19.4480   86.5990   78.2480 C.3   180  ASP180      0.1436
     93  CG       -18.4390   85.4470   78.3030 C.2   180  ASP180      0.3671
     94  OD1      -18.1970   84.9030   79.4090 O.co2 180  ASP180     -0.2456
     95  OD2      -17.8890   85.0810   77.2320 O.co2 180  ASP180     -0.2456
     96  N        -16.5370   88.5070   80.4140 N.3   183  TYR183     -0.1241
     97  CA       -16.3630   89.8630   79.9470 C.3   183  TYR183      0.1605
     98  C        -16.3050   90.6850   81.2140 C.2   183  TYR183      0.2264
     99  O        -15.3970   91.4850   81.4050 O.2   183  TYR183     -0.2867
    100  CB       -17.5270   90.3310   79.0890 C.3   183  TYR183      0.0534
    101  CG       -17.4500   91.8080   78.8010 C.ar  183  TYR183     -0.0201
    102  CD1      -16.6680   92.2860   77.7650 C.ar  183  TYR183     -0.0009
    103  CD2      -18.1350   92.7240   79.5830 C.ar  183  TYR183     -0.0009
    104  CE1      -16.5780   93.6300   77.5010 C.ar  183  TYR183      0.0417
    105  CE2      -18.0520   94.0800   79.3340 C.ar  183  TYR183      0.0417
    106  CZ       -17.2720   94.5290   78.2860 C.ar  183  TYR183      0.1957
    107  OH       -17.1830   95.8790   78.0130 O.3   183  TYR183     -0.2866
    108  N        -14.0160   94.2880   82.6980 N.3   188  ARG188     -0.1245
    109  CA       -14.6230   95.4030   83.4360 C.3   188  ARG188      0.1563
    110  C        -14.2720   95.3870   84.9260 C.2   188  ARG188      0.2260
    111  O        -14.7750   96.2030   85.6980 O.2   188  ARG188     -0.2867
    112  CB       -16.1390   95.4360   83.2350 C.3   188  ARG188      0.0307
    113  CG       -16.5660   95.7280   81.7920 C.3   188  ARG188      0.0489
    114  CD       -15.7600   96.8760   81.1960 C.3   188  ARG188      0.2205
    115  NE       -16.6010   97.8330   80.4860 N.pl3 188  ARG188     -0.0865
    116  CZ       -16.2540   99.0960   80.2600 C.cat 188  ARG188      0.5346
    117  NH1      -15.0840   99.5530   80.7010 N.pl3 188  ARG188      0.1354
    118  NH2      -17.0790   99.9060   79.6040 N.pl3 188  ARG188      0.1354
    119  N        -18.5560   86.6590   74.7470 N.3   216  GLY216     -0.1225
    120  CA       -17.6400   87.7840   74.6660 C.3   216  GLY216      0.1811
    121  C        -16.2140   87.5300   74.2180 C.2   216  GLY216      0.2280
    122  O        -15.3510   88.3720   74.4000 O.2   216  GLY216     -0.2866
    123  N        -14.5480   87.3960   71.3400 N.3   218  HIS218     -0.1226
    124  CA       -13.9560   88.3370   70.3930 C.3   218  HIS218      0.1752
    125  C        -13.1370   89.4120   71.1270 C.2   218  HIS218      0.2596
    126  O        -12.0520   89.7680   70.6850 O.2   218  HIS218     -0.2718
    127  CB       -15.0490   88.9820   69.5370 C.3   218  HIS218      0.0759
    128  CG       -16.1540   89.5690   70.3490 C.ar  218  HIS218      0.0818
    129  ND1      -17.1300   88.7930   70.9450 N.ar  218  HIS218     -0.2268
    130  CD2      -16.4220   90.8460   70.7070 C.ar  218  HIS218      0.1154
    131  CE1      -17.9560   89.5690   71.6210 C.ar  218  HIS218      0.1986
    132  NE2      -17.5510   90.8220   71.4930 N.ar  218  HIS218     -0.2212
    133  N        -13.6480   89.9240   72.2440 N.am  219  ASN219     -0.1974
    134  CA       -12.8820   90.8670   73.0620 C.3   219  ASN219      0.1688
    135  C        -11.4640   90.4330   73.3610 C.2   219  ASN219      0.2292
    136  O        -10.6610   91.2410   73.8110 O.2   219  ASN219     -0.2864
    137  CB       -13.5830   91.1580   74.3820 C.3   219  ASN219      0.1181
    138  CG       -14.6940   92.1430   74.2220 C.2   219  ASN219      0.2629
    139  OD1      -14.4590   93.3380   74.0470 O.2   219  ASN219     -0.2716
    140  ND2      -15.9200   91.6500   74.2470 N.am  219  ASN219     -0.0877
@<TRIPOS>BOND
     1     8     6    1
     2   127   128    1
     3   127   124    1
     4     6     5    1
     5   128   130   ar
     6   128   129   ar
     7   124   125    1
     8   124   123    1
     9     1     2    1
    10    77    78   ar
    11    77    75   ar
    12   126   125    2
    13   130   132   ar
    14   129   131   ar
    15    78    76   ar
    16    62    61    1
    17   125   133   am
    18     5     2    1
    19     5     7    1
    20   132   131   ar
    21     2     3    1
    22    75    74   ar
    23    60    61   ar
    24    60    58   ar
    25    61    59   ar
    26   133   134    1
    27    76    74   ar
    28     4     3    2
    29     3     9   am
    30    74    73    1
    31   134   135    1
    32   134   137    1
    33   135   136    2
    34    58    56   ar
    35    59    57   ar
    36     9    10    1
    37   139   138    2
    38    69    70    1
    39   121   122    2
    40   121   120    1
    41   138   140   am
    42   138   137    1
    43    73    70    1
    44    70    71    1
    45    57    56   ar
    46    56    55    1
    47   120   119    1
    48    51    52    1
    49    10    11    1
    50    10    13    1
    51    12    11    2
    52    11    20   am
    53    20    21    1
    54    55    52    1
    55    52    53    1
    56    71    79   am
    57    71    72    2
    58    21    24    1
    59    21    22    1
    60    14    13    1
    61    14    15    1
    62    79    80    1
    63    27    22   am
    64    27    28    1
    65    24    25    1
    66    24    26    1
    67    22    23    2
    68    31    28    1
    69    95    93   ar
    70    28    29    1
    71    53    54    2
    72    15    16    1
    73   104   102   ar
    74   104   106   ar
    75    82    81    2
    76   102   101   ar
    77    80    81    1
    78    80    83    1
    79    16    17    2
    80   107   106    1
    81    81    88   am
    82    92    93    1
    83    92    89    1
    84   106   105   ar
    85    93    94   ar
    86    83    84    1
    87    43    42    2
    88    29    32   am
    89    29    30    2
    90   101   100    1
    91   101   103   ar
    92    88    89    1
    93    17    19    1
    94    17    18    1
    95   100    97    1
    96    68    67    1
    97    32    33    1
    98    89    90    1
    99   105   103   ar
   100   118   116    1
   101    42    41    1
   102    42    44   am
   103    97    96    1
   104    97    98    1
   105    67    64    1
   106    84    85    1
   107    40    41    1
   108    40    37    1
   109   116   115    2
   110   116   117    1
   111    86    85    2
   112   115   114    1
   113    36    37    1
   114    36    34   am
   115    63    64    1
   116    33    34    1
   117    90    91    2
   118    85    87   am
   119    37    38    1
   120    64    65    1
   121   114   113    1
   122    98    99    2
   123    34    35    2
   124    45    38   am
   125    45    46    1
   126    49    46    1
   127    49    50    1
   128   113   112    1
   129    38    39    2
   130    65    66    2
   131    46    47    1
   132   108   109    1
   133   112   109    1
   134   109   110    1
   135    47    48    2
   136   110   111    2
