@<TRIPOS>MOLECULE
tmp/3koxA00.pdb
 205 201 0 0 0
SMALL
GASTEIGER

@<TRIPOS>ATOM
      1  N        -18.7600  115.1770   97.0310 N.3   603  GLU603     -0.1231
      2  CA       -19.9890  114.3780   97.1290 C.3   603  GLU603      0.1699
      3  C        -20.5190  113.9720   95.7230 C.2   603  GLU603      0.2592
      4  O        -21.7340  113.8000   95.5180 O.2   603  GLU603     -0.2718
      5  CB       -21.0540  115.1520   97.9190 C.3   603  GLU603      0.0402
      6  CG       -20.5990  115.5880   99.3320 C.3   603  GLU603      0.1161
      7  CD       -21.7690  115.9660  100.2430 C.2   603  GLU603      0.3649
      8  OE1      -21.8030  117.1210  100.7390 O.co2 603  GLU603     -0.2457
      9  OE2      -22.6550  115.0990  100.4600 O.co2 603  GLU603     -0.2457
     10  N        -19.5930  113.8110   94.7670 N.am  604  ASP604     -0.1960
     11  CA       -19.9150  113.4470   93.3770 C.3   604  ASP604      0.1840
     12  C        -20.0080  111.9230   93.2370 C.2   604  ASP604      0.2622
     13  O        -19.0460  111.2170   93.5120 O.2   604  ASP604     -0.2715
     14  CB       -18.8440  114.0050   92.4130 C.3   604  ASP604      0.1450
     15  CG       -19.3290  114.1000   90.9600 C.2   604  ASP604      0.3671
     16  OD1      -18.7470  114.9280   90.2110 O.co2 604  ASP604     -0.2456
     17  OD2      -20.2860  113.3780   90.5710 O.co2 604  ASP604     -0.2456
     18  N        -21.1640  111.4260   92.7950 N.am  605  GLU605     -0.1963
     19  CA       -21.3380  109.9770   92.5590 C.3   605  GLU605      0.1733
     20  C        -21.0060  109.5040   91.1080 C.2   605  GLU605      0.2616
     21  O        -20.8870  108.3060   90.8650 O.2   605  GLU605     -0.2715
     22  CB       -22.7560  109.5350   92.9620 C.3   605  GLU605      0.0429
     23  CG       -23.0410  109.5380   94.4690 C.3   605  GLU605      0.1163
     24  CD       -22.2550  108.4730   95.1980 C.2   605  GLU605      0.3649
     25  OE1      -22.8210  107.3930   95.4960 O.co2 605  GLU605     -0.2457
     26  OE2      -21.0520  108.7110   95.4430 O.co2 605  GLU605     -0.2457
     27  N        -20.8240  110.4300   90.1700 N.am  606  HIS606     -0.1959
     28  CA       -20.5650  110.0690   88.7680 C.3   606  HIS606      0.1787
     29  C        -19.2440  109.3260   88.5600 C.2   606  HIS606      0.2621
     30  O        -18.1960  109.9670   88.4940 O.2   606  HIS606     -0.2715
     31  CB       -20.5460  111.3340   87.9210 C.3   606  HIS606      0.0785
     32  CG       -21.8600  112.0290   87.8620 C.ar  606  HIS606      0.0821
     33  ND1      -22.2020  113.0310   88.7340 N.ar  606  HIS606     -0.2267
     34  CD2      -22.9220  111.8610   87.0430 C.ar  606  HIS606      0.1154
     35  CE1      -23.4260  113.4550   88.4580 C.ar  606  HIS606      0.1986
     36  NE2      -23.8890  112.7520   87.4390 N.ar  606  HIS606     -0.2212
     37  N        -19.2720  107.9970   88.4330 N.am  607  SER607     -0.1936
     38  CA       -18.0020  107.2190   88.4010 C.3   607  SER607      0.2055
     39  C        -17.2990  106.9940   87.0260 C.2   607  SER607      0.2643
     40  O        -16.1160  106.6750   86.9820 O.2   607  SER607     -0.2714
     41  CB       -18.2260  105.8580   89.0530 C.3   607  SER607      0.2130
     42  OG       -19.0610  105.0310   88.2460 O.3   607  SER607     -0.2179
     43  N        -18.0250  107.1730   85.9270 N.am  608  VAL608     -0.1963
     44  CA       -17.6340  106.6750   84.5980 C.3   608  VAL608      0.1727
     45  C        -16.4180  107.3180   83.9500 C.2   608  VAL608      0.2617
     46  O        -15.5400  106.6230   83.4070 O.2   608  VAL608     -0.2715
     47  CB       -18.8240  106.8340   83.6360 C.3   608  VAL608      0.0290
     48  CG1      -18.4140  106.6160   82.2240 C.3   608  VAL608      0.0023
     49  CG2      -19.9360  105.8700   84.0440 C.3   608  VAL608      0.0023
     50  N        -16.3940  108.6470   83.9710 N.am  609  GLY609     -0.1940
     51  CA       -15.3330  109.4090   83.3330 C.3   609  GLY609      0.2014
     52  C        -13.9720  108.9760   83.8090 C.2   609  GLY609      0.2638
     53  O        -13.0990  108.6460   83.0170 O.2   609  GLY609     -0.2714
     54  N        -13.7950  108.9570   85.1190 N.am  610  LEU610     -0.1977
     55  CA       -12.5530  108.4400   85.7230 C.3   610  LEU610      0.1596
     56  C        -12.2790  106.9830   85.2990 C.2   610  LEU610      0.2287
     57  O        -11.1670  106.6670   84.8630 O.2   610  LEU610     -0.2864
     58  CB       -12.6570  108.5230   87.2460 C.3   610  LEU610      0.0297
     59  CG       -11.4160  108.1240   88.0190 C.3   610  LEU610      0.0022
     60  CD1      -10.1620  108.7220   87.3800 C.3   610  LEU610      0.0001
     61  CD2      -11.5850  108.5770   89.4690 C.3   610  LEU610      0.0001
     62  N        -13.4190  105.4590   82.7090 N.3   612  GLU612     -0.1231
     63  CA       -13.0890  105.4510   81.2770 C.3   612  GLU612      0.1699
     64  C        -11.6120  105.5950   81.0380 C.2   612  GLU612      0.2592
     65  O        -11.0770  104.9200   80.1810 O.2   612  GLU612     -0.2718
     66  CB       -13.8150  106.5510   80.4800 C.3   612  GLU612      0.0402
     67  CG       -15.2230  106.2020   80.0150 C.3   612  GLU612      0.1161
     68  CD       -15.2890  104.9380   79.1660 C.2   612  GLU612      0.3649
     69  OE1      -14.9670  104.9820   77.9530 O.co2 612  GLU612     -0.2457
     70  OE2      -15.6870  103.9040   79.7150 O.co2 612  GLU612     -0.2457
     71  N        -10.9460  106.4600   81.7940 N.am  613  VAL613     -0.1980
     72  CA        -9.5060  106.6720   81.5920 C.3   613  VAL613      0.1595
     73  C         -8.6370  105.6670   82.3500 C.2   613  VAL613      0.2287
     74  O         -7.3990  105.7730   82.2830 O.2   613  VAL613     -0.2864
     75  CB        -9.0430  108.1520   81.9050 C.3   613  VAL613      0.0276
     76  CG1       -9.6320  109.1400   80.8830 C.3   613  VAL613      0.0022
     77  CG2       -9.3990  108.5760   83.3300 C.3   613  VAL613      0.0022
     78  N         -5.2530  111.1440   90.8880 N.3   653  LEU653     -0.1231
     79  CA        -6.1220  111.4230   89.7450 C.3   653  LEU653      0.1693
     80  C         -7.5520  111.4540   90.2310 C.2   653  LEU653      0.2592
     81  O         -8.0820  110.4520   90.6670 O.2   653  LEU653     -0.2718
     82  CB        -5.9520  110.3700   88.6450 C.3   653  LEU653      0.0284
     83  CG        -4.5210  110.0000   88.2310 C.3   653  LEU653      0.0019
     84  CD1       -4.5210  109.0530   87.0400 C.3   653  LEU653      0.0001
     85  CD2       -3.7000  111.2350   87.9140 C.3   653  LEU653      0.0001
     86  N         -8.1720  112.6200   90.1740 N.am  654  ALA654     -0.1966
     87  CA        -9.5260  112.8010   90.6890 C.3   654  ALA654      0.1728
     88  C        -10.4350  113.2650   89.5720 C.2   654  ALA654      0.2616
     89  O         -9.9750  113.8070   88.5670 O.2   654  ALA654     -0.2715
     90  CB        -9.5380  113.8140   91.8250 C.3   654  ALA654      0.0334
     91  N        -11.7310  113.0560   89.7580 N.am  655  SER655     -0.1950
     92  CA       -12.7220  113.4370   88.7720 C.3   655  SER655      0.1924
     93  C        -13.6460  114.4650   89.4020 C.2   655  SER655      0.2314
     94  O        -13.9610  114.3750   90.5910 O.2   655  SER655     -0.2863
     95  CB       -13.5050  112.1910   88.3110 C.3   655  SER655      0.2116
     96  OG       -14.6550  112.4990   87.5210 O.3   655  SER655     -0.2180
     97  N        -17.3430  115.8810   88.1320 N.3   657  ILE657     -0.1231
     98  CA       -18.3710  115.9290   87.1030 C.3   657  ILE657      0.1692
     99  C        -19.3580  117.0190   87.4690 C.2   657  ILE657      0.2592
    100  O        -19.6000  117.9240   86.6720 O.2   657  ILE657     -0.2718
    101  CB       -19.0740  114.5810   86.9080 C.3   657  ILE657      0.0266
    102  CG1      -18.0610  113.4580   86.8440 C.3   657  ILE657      0.0019
    103  CG2      -19.8550  114.5880   85.6170 C.3   657  ILE657      0.0020
    104  CD1      -17.0660  113.6480   85.7440 C.3   657  ILE657      0.0001
    105  N        -19.9000  116.9280   88.6850 N.am  658  ILE658     -0.1966
    106  CA       -20.6990  118.0020   89.2880 C.3   658  ILE658      0.1727
    107  C        -19.8500  119.2690   89.3060 C.2   658  ILE658      0.2617
    108  O        -18.6880  119.2230   89.7300 O.2   658  ILE658     -0.2715
    109  CB       -21.0550  117.6990   90.7640 C.3   658  ILE658      0.0290
    110  CG1      -21.8190  116.3680   90.9220 C.3   658  ILE658      0.0022
    111  CG2      -21.8340  118.8770   91.3780 C.3   658  ILE658      0.0023
    112  CD1      -23.3150  116.5100   91.0840 C.3   658  ILE658      0.0001
    113  N        -20.4280  120.3890   88.8630 N.am  659  SER659     -0.1936
    114  CA       -19.6890  121.6720   88.7590 C.3   659  SER659      0.2055
    115  C        -20.4490  122.9650   89.1830 C.2   659  SER659      0.2643
    116  O        -19.9280  124.0650   88.9880 O.2   659  SER659     -0.2714
    117  CB       -19.0980  121.8320   87.3410 C.3   659  SER659      0.2130
    118  OG       -20.0670  122.2420   86.3870 O.3   659  SER659     -0.2179
    119  N        -21.6390  122.8450   89.7830 N.am  660  HIS660     -0.1973
    120  CA       -22.3760  124.0210   90.3150 C.3   660  HIS660      0.1656
    121  C        -21.4440  124.9170   91.1560 C.2   660  HIS660      0.2291
    122  O        -20.6660  124.4300   91.9780 O.2   660  HIS660     -0.2864
    123  CB       -23.5810  123.5700   91.1740 C.3   660  HIS660      0.0771
    124  CG       -24.6110  124.6390   91.4330 C.ar  660  HIS660      0.0820
    125  ND1      -25.9310  124.3380   91.6980 N.ar  660  HIS660     -0.2267
    126  CD2      -24.5230  125.9950   91.4750 C.ar  660  HIS660      0.1154
    127  CE1      -26.6110  125.4570   91.8910 C.ar  660  HIS660      0.1986
    128  NE2      -25.7800  126.4770   91.7630 N.ar  660  HIS660     -0.2212
    129  N         -2.9620  115.0240   88.5310 N.3   687  GLY687     -0.1210
    130  CA        -3.8730  115.3020   87.4210 C.3   687  GLY687      0.1956
    131  C         -5.3160  115.3480   87.8890 C.2   687  GLY687      0.2612
    132  O         -5.6950  114.6730   88.8330 O.2   687  GLY687     -0.2717
    133  N         -6.1260  116.1600   87.2340 N.am  688  CYS688     -0.1956
    134  CA        -7.5190  116.2830   87.6140 C.3   688  CYS688      0.1843
    135  C         -8.3830  116.3910   86.3630 C.2   688  CYS688      0.2626
    136  O         -7.9900  117.0670   85.4080 O.2   688  CYS688     -0.2714
    137  CB        -7.6960  117.4870   88.5380 C.3   688  CYS688      0.0997
    138  SG        -6.6900  117.3500   90.0190 S.3   688  CYS688     -0.0797
    139  N         -9.5410  115.7140   86.3720 N.am  689  GLY689     -0.1940
    140  CA       -10.3880  115.5860   85.1790 C.3   689  GLY689      0.2014
    141  C        -11.8360  115.8820   85.4650 C.2   689  GLY689      0.2639
    142  O        -12.2400  115.9320   86.6220 O.2   689  GLY689     -0.2714
    143  N        -12.6130  116.1100   84.4130 N.am  690  GLY690     -0.1939
    144  CA       -14.0050  116.5380   84.5730 C.3   690  GLY690      0.2014
    145  C        -14.6750  116.9640   83.2810 C.2   690  GLY690      0.2640
    146  O        -13.9950  117.3350   82.3180 O.2   690  GLY690     -0.2714
    147  N        -16.0050  116.9000   83.2510 N.am  691  THR691     -0.1936
    148  CA       -16.7500  117.3000   82.0600 C.3   691  THR691      0.2028
    149  C        -16.4750  118.7620   81.7640 C.2   691  THR691      0.2642
    150  O        -16.1650  119.1170   80.6280 O.2   691  THR691     -0.2714
    151  CB       -18.2770  117.0830   82.1920 C.3   691  THR691      0.1808
    152  OG1      -18.5530  115.6940   82.3700 O.3   691  THR691     -0.2208
    153  CG2      -18.9990  117.5530   80.9540 C.3   691  THR691      0.0379
    154  N        -16.5540  119.6060   82.7880 N.am  692  GLN692     -0.1976
    155  CA       -16.3860  121.0440   82.5910 C.3   692  GLN692      0.1601
    156  C        -14.9830  121.5440   82.9540 C.2   692  GLN692      0.2287
    157  O        -14.8050  122.7210   83.2730 O.2   692  GLN692     -0.2864
    158  CB       -17.4510  121.7950   83.3890 C.3   692  GLN692      0.0394
    159  CG       -18.8680  121.4670   82.9640 C.3   692  GLN692      0.0908
    160  CD       -19.1370  121.8660   81.5330 C.2   692  GLN692      0.2608
    161  OE1      -19.3300  123.0410   81.2330 O.2   692  GLN692     -0.2717
    162  NE2      -19.1420  120.8880   80.6390 N.am  692  GLN692     -0.0878
    163  N         -7.7530  117.8950   82.5230 N.3   707  PHE707     -0.1227
    164  CA        -8.3440  117.0050   81.4960 C.3   707  PHE707      0.1736
    165  C         -9.8570  117.1520   81.2950 C.2   707  PHE707      0.2596
    166  O        -10.6370  116.8760   82.2030 O.2   707  PHE707     -0.2718
    167  CB        -8.0330  115.5400   81.8210 C.3   707  PHE707      0.0547
    168  CG        -6.5920  115.1860   81.6720 C.ar  707  PHE707     -0.0202
    169  CD1       -6.0360  115.0150   80.4090 C.ar  707  PHE707     -0.0042
    170  CD2       -5.7810  115.0550   82.7840 C.ar  707  PHE707     -0.0042
    171  CE1       -4.7040  114.6990   80.2560 C.ar  707  PHE707     -0.0003
    172  CE2       -4.4380  114.7230   82.6420 C.ar  707  PHE707     -0.0003
    173  CZ        -3.8990  114.5440   81.3700 C.ar  707  PHE707     -0.0000
    174  N        -10.2660  117.5320   80.0870 N.am  708  GLY708     -0.1942
    175  CA       -11.6780  117.7400   79.7780 C.3   708  GLY708      0.2014
    176  C        -12.3380  116.6470   78.9480 C.2   708  GLY708      0.2639
    177  O        -11.8560  115.5150   78.8790 O.2   708  GLY708     -0.2714
    178  N        -13.4610  117.0140   78.3290 N.am  709  ARG709     -0.1963
    179  CA       -14.2040  116.1540   77.4020 C.3   709  ARG709      0.1729
    180  C        -13.2550  115.5260   76.3920 C.2   709  ARG709      0.2617
    181  O        -12.3230  116.1880   75.9110 O.2   709  ARG709     -0.2715
    182  CB       -15.3100  116.9560   76.6750 C.3   709  ARG709      0.0348
    183  CG       -16.6290  117.0660   77.4700 C.3   709  ARG709      0.0492
    184  CD       -17.6410  118.1310   76.9540 C.3   709  ARG709      0.2205
    185  NE       -17.0970  119.4460   76.5740 N.pl3 709  ARG709     -0.0865
    186  CZ       -16.2090  120.1880   77.2570 C.cat 709  ARG709      0.5346
    187  NH1      -15.7020  119.7960   78.4250 N.pl3 709  ARG709      0.1354
    188  NH2      -15.8150  121.3600   76.7600 N.pl3 709  ARG709      0.1354
    189  N        -13.4790  114.2380   76.1150 N.am  710  GLY710     -0.1940
    190  CA       -12.6890  113.4930   75.1460 C.3   710  GLY710      0.2014
    191  C        -11.3740  112.8800   75.6020 C.2   710  GLY710      0.2639
    192  O        -10.7240  112.1890   74.8100 O.2   710  GLY710     -0.2714
    193  N        -10.9660  113.1060   76.8470 N.am  711  SER711     -0.1949
    194  CA        -9.6820  112.5660   77.3200 C.3   711  SER711      0.1924
    195  C         -9.6400  111.0400   77.2350 C.2   711  SER711      0.2314
    196  O        -10.6040  110.3640   77.6070 O.2   711  SER711     -0.2863
    197  CB        -9.3990  112.9760   78.7620 C.3   711  SER711      0.2116
    198  OG        -9.6950  114.3380   78.9670 O.3   711  SER711     -0.2180
    199  N         -3.5120  110.6240   79.4640 N.3   716  VAL716     -0.1245
    200  CA        -3.1710  110.6290   80.8820 C.3   716  VAL716      0.1561
    201  C         -1.9050  109.8220   81.1390 C.2   716  VAL716      0.2260
    202  O         -1.1210  110.1410   82.0340 O.2   716  VAL716     -0.2867
    203  CB        -4.3290  110.0510   81.7130 C.3   716  VAL716      0.0252
    204  CG1       -3.9760  110.0160   83.1850 C.3   716  VAL716      0.0019
    205  CG2       -5.5750  110.8830   81.5080 C.3   716  VAL716      0.0019
@<TRIPOS>BOND
     1   192   191    2
     2   190   191    1
     3   190   189    1
     4   191   193   am
     5   181   180    2
     6   189   180   am
     7   180   179    1
     8   185   184    1
     9   185   186    2
    10   182   179    1
    11   182   183    1
    12   188   186    1
    13   193   194    1
    14   184   183    1
    15   195   194    1
    16   195   196    2
    17   186   187    1
    18   194   197    1
    19   179   178    1
    20    69    68   ar
    21   178   176   am
    22   197   198    1
    23   177   176    2
    24   176   175    1
    25    68    70   ar
    26    68    67    1
    27   199   200    1
    28   175   174    1
    29    67    66    1
    30   174   165   am
    31    65    64    2
    32   171   169   ar
    33   171   173   ar
    34   169   168   ar
    35    66    63    1
    36   150   149    2
    37   162   160   am
    38   200   201    1
    39   200   203    1
    40    76    75    1
    41   153   151    1
    42    64    63    1
    43    64    71   am
    44   201   202    2
    45   161   160    2
    46    63    62    1
    47   165   164    1
    48   165   166    2
    49   173   172   ar
    50   164   167    1
    51   164   163    1
    52   205   203    1
    53   160   159    1
    54    72    71    1
    55    72    75    1
    56    72    73    1
    57   168   167    1
    58   168   170   ar
    59   203   204    1
    60   149   148    1
    61   149   154   am
    62    75    77    1
    63   148   151    1
    64   148   147    1
    65   151   152    1
    66    48    47    1
    67    74    73    2
    68   146   145    2
    69   155   154    1
    70   155   156    1
    71   155   158    1
    72   172   170   ar
    73   156   157    2
    74   159   158    1
    75    53    52    2
    76   147   145   am
    77   145   144    1
    78    51    52    1
    79    51    50    1
    80    46    45    2
    81    47    49    1
    82    47    44    1
    83    52    54   am
    84    45    50   am
    85    45    44    1
    86   143   144    1
    87   143   141   am
    88    44    43    1
    89    57    56    2
    90    54    55    1
    91   140   141    1
    92   140   139    1
    93    56    55    1
    94   136   135    2
    95   141   142    2
    96   103   101    1
    97    55    58    1
    98   104   102    1
    99    43    39   am
   100   135   139   am
   101   135   134    1
   102   118   117    1
   103   100    99    2
   104   102   101    1
   105   101    98    1
   106    40    39    2
   107    39    38    1
   108    84    83    1
   109    34    36   ar
   110    34    32   ar
   111    98    99    1
   112    98    97    1
   113   133   134    1
   114   133   131   am
   115    58    59    1
   116   117   114    1
   117    60    59    1
   118   130   131    1
   119   130   129    1
   120    36    35   ar
   121    99   105   am
   122    96    95    1
   123   134   137    1
   124    32    31    1
   125    32    33   ar
   126   131   132    2
   127    85    83    1
   128    31    28    1
   129    59    61    1
   130    83    82    1
   131    42    41    1
   132    95    92    1
   133    38    37    1
   134    38    41    1
   135    37    29   am
   136    35    33   ar
   137    30    29    2
   138   137   138    1
   139    29    28    1
   140    89    88    2
   141    82    79    1
   142   105   106    1
   143   114   113    1
   144   114   115    1
   145    28    27    1
   146    92    93    1
   147    92    91    1
   148   113   107   am
   149   116   115    2
   150   115   119   am
   151   106   107    1
   152   106   109    1
   153   107   108    2
   154    93    94    2
   155    88    91   am
   156    88    87    1
   157    79    80    1
   158    79    78    1
   159   119   120    1
   160    27    20   am
   161    86    80   am
   162    86    87    1
   163    16    15   ar
   164    80    81    2
   165   120   121    1
   166   120   123    1
   167    17    15   ar
   168    87    90    1
   169   109   110    1
   170   109   111    1
   171    21    20    2
   172   110   112    1
   173    15    14    1
   174    20    19    1
   175   121   122    2
   176   123   124    1
   177   124   126   ar
   178   124   125   ar
   179   126   128   ar
   180   125   127   ar
   181   128   127   ar
   182    14    11    1
   183    19    18    1
   184    19    22    1
   185    18    12   am
   186    22    23    1
   187    12    11    1
   188    12    13    2
   189    11    10    1
   190    23    24    1
   191    10     3   am
   192    24    26   ar
   193    24    25   ar
   194     4     3    2
   195     3     2    1
   196     1     2    1
   197     2     5    1
   198     5     6    1
   199     6     7    1
   200     7     9   ar
   201     7     8   ar
