@<TRIPOS>MOLECULE
tmp/3koxA03.pdb
 98 94 0 0 0
SMALL
GASTEIGER

@<TRIPOS>ATOM
      1  N         -3.9030  107.7080   22.4140 N.3   106  THR106     -0.1203
      2  CA        -4.9150  108.7420   22.1060 C.3   106  THR106      0.1994
      3  C         -5.9120  108.1390   21.1690 C.2   106  THR106      0.2617
      4  O         -5.5510  107.3840   20.2940 O.2   106  THR106     -0.2717
      5  CB        -4.3230  110.0680   21.4900 C.3   106  THR106      0.1784
      6  OG1       -5.3540  111.0640   21.3560 O.3   106  THR106     -0.2211
      7  CG2       -3.6490  109.8640   20.1360 C.3   106  THR106      0.0376
      8  N         -7.1800  108.4390   21.3960 N.am  107  ALA107     -0.1979
      9  CA        -8.2850  107.7870   20.7120 C.3   107  ALA107      0.1597
     10  C         -8.0930  107.6960   19.1660 C.2   107  ALA107      0.2287
     11  O         -7.7490  108.6680   18.4950 O.2   107  ALA107     -0.2864
     12  CB        -9.5790  108.5080   21.0680 C.3   107  ALA107      0.0319
     13  N         -5.9750  104.1170   13.6620 N.3   111  HIS111     -0.1226
     14  CA        -6.1850  104.5770   12.2870 C.3   111  HIS111      0.1752
     15  C         -5.0210  105.3320   11.6420 C.2   111  HIS111      0.2596
     16  O         -5.0370  105.5370   10.4680 O.2   111  HIS111     -0.2718
     17  CB        -7.4770  105.3810   12.1860 C.3   111  HIS111      0.0759
     18  CG        -8.7050  104.5430   12.3500 C.ar  111  HIS111      0.0818
     19  ND1       -8.9340  103.4030   11.6020 N.ar  111  HIS111     -0.2268
     20  CD2       -9.7660  104.6700   13.1760 C.ar  111  HIS111      0.1154
     21  CE1      -10.0920  102.8740   11.9560 C.ar  111  HIS111      0.1986
     22  NE2      -10.6230  103.6340   12.8990 N.ar  111  HIS111     -0.2212
     23  N         -4.0150  105.7430   12.3890 N.am  112  TYR112     -0.1962
     24  CA        -2.8750  106.4370   11.7740 C.3   112  TYR112      0.1771
     25  C         -2.0520  105.4920   10.8580 C.2   112  TYR112      0.2619
     26  O         -1.3580  104.6200   11.3720 O.2   112  TYR112     -0.2715
     27  CB        -1.9410  106.9890   12.8570 C.3   112  TYR112      0.0574
     28  CG        -2.4960  108.0370   13.8200 C.ar  112  TYR112     -0.0198
     29  CD1       -3.7390  108.6420   13.6390 C.ar  112  TYR112     -0.0009
     30  CD2       -1.7330  108.4630   14.8960 C.ar  112  TYR112     -0.0009
     31  CE1       -4.2100  109.6000   14.5370 C.ar  112  TYR112      0.0417
     32  CE2       -2.2080  109.4220   15.7860 C.ar  112  TYR112      0.0417
     33  CZ        -3.4270  109.9800   15.5980 C.ar  112  TYR112      0.1957
     34  OH        -3.8420  110.9030   16.4930 O.3   112  TYR112     -0.2866
     35  N         -2.1160  105.6750    9.5310 N.am  113  ASP113     -0.1971
     36  CA        -1.3850  104.8260    8.5490 C.3   113  ASP113      0.1709
     37  C          0.1430  105.1480    8.4700 C.2   113  ASP113      0.2293
     38  O          0.7300  105.3260    7.4010 O.2   113  ASP113     -0.2864
     39  CB        -2.0440  104.9060    7.1670 C.3   113  ASP113      0.1436
     40  CG        -1.6600  103.7350    6.2520 C.2   113  ASP113      0.3671
     41  OD1       -1.2350  102.6690    6.7490 O.co2 113  ASP113     -0.2456
     42  OD2       -1.7880  103.8620    5.0150 O.co2 113  ASP113     -0.2456
     43  N          3.2990  108.7060   13.9870 N.3   116  ILE116     -0.1245
     44  CA         3.2820  110.1580   14.1710 C.3   116  ILE116      0.1561
     45  C          4.5030  110.5570   15.0040 C.2   116  ILE116      0.2260
     46  O          5.1850  109.7010   15.5660 O.2   116  ILE116     -0.2867
     47  CB         2.0060  110.6430   14.8390 C.3   116  ILE116      0.0252
     48  CG1        1.5980  109.7110   15.9650 C.3   116  ILE116      0.0019
     49  CG2        0.8860  110.7920   13.8050 C.3   116  ILE116      0.0019
     50  CD1        0.7650  110.4270   17.0220 C.3   116  ILE116      0.0001
     51  N          2.1550  115.9280   20.5870 N.3   120  PRO120     -0.2102
     52  CA         0.8870  116.5830   20.5490 C.3   120  PRO120      0.1504
     53  C          0.0860  116.1860   21.7580 C.2   120  PRO120      0.2575
     54  O          0.4290  115.1990   22.4310 O.2   120  PRO120     -0.2718
     55  CB         0.2420  116.0190   19.2820 C.3   120  PRO120      0.0282
     56  CG         0.9360  114.7780   19.0120 C.3   120  PRO120      0.0208
     57  CD         2.3210  114.9830   19.4790 C.3   120  PRO120      0.0893
     58  N         -0.9650  116.9460   22.0440 N.am  121  GLN121     -0.1980
     59  CA        -1.8210  116.5980   23.1540 C.3   121  GLN121      0.1601
     60  C         -2.7400  115.4680   22.7470 C.2   121  GLN121      0.2287
     61  O         -3.2960  115.4900   21.6680 O.2   121  GLN121     -0.2864
     62  CB        -2.6460  117.7860   23.6180 C.3   121  GLN121      0.0394
     63  CG        -3.7070  117.3840   24.6170 C.3   121  GLN121      0.0908
     64  CD        -3.9980  118.4460   25.6480 C.2   121  GLN121      0.2608
     65  OE1       -3.0890  119.0020   26.2550 O.2   121  GLN121     -0.2717
     66  NE2       -5.2820  118.7250   25.8550 N.am  121  GLN121     -0.0878
     67  N         -6.1110  112.6990   23.3700 N.3   123  ILE123     -0.1245
     68  CA        -7.5100  112.7130   23.7700 C.3   123  ILE123      0.1561
     69  C         -7.8720  111.2910   24.2810 C.2   123  ILE123      0.2260
     70  O         -7.7700  110.3120   23.5350 O.2   123  ILE123     -0.2867
     71  CB        -8.4210  113.0900   22.5720 C.3   123  ILE123      0.0252
     72  CG1       -7.8870  114.3330   21.8060 C.3   123  ILE123      0.0019
     73  CG2       -9.8620  113.2910   23.0370 C.3   123  ILE123      0.0019
     74  CD1       -7.7690  115.6730   22.6470 C.3   123  ILE123      0.0001
     75  N          4.9570  120.0510   14.9900 N.3   483  ASP483     -0.1239
     76  CA         4.0380  121.1450   15.2370 C.3   483  ASP483      0.1674
     77  C          4.6770  122.1220   16.1920 C.2   483  ASP483      0.2266
     78  O          4.9660  121.7680   17.3200 O.2   483  ASP483     -0.2867
     79  CB         2.7520  120.6040   15.8630 C.3   483  ASP483      0.1410
     80  CG         1.6170  121.6410   15.9120 C.2   483  ASP483      0.3668
     81  OD1        1.8460  122.8200   16.3350 O.co2 483  ASP483     -0.2456
     82  OD2        0.4770  121.2220   15.5670 O.co2 483  ASP483     -0.2456
     83  N          3.3900  124.6470   17.8060 N.3   485  ASN485     -0.1225
     84  CA         2.5210  125.1520   18.8930 C.3   485  ASN485      0.1785
     85  C          1.9170  124.1100   19.8110 C.2   485  ASN485      0.2597
     86  O          1.6360  124.4080   20.9700 O.2   485  ASN485     -0.2718
     87  CB         1.3650  125.9560   18.3190 C.3   485  ASN485      0.1169
     88  CG         1.7950  126.8330   17.1860 C.2   485  ASN485      0.2627
     89  OD1        1.3400  126.6490   16.0500 O.2   485  ASN485     -0.2716
     90  ND2        2.7250  127.7630   17.4640 N.am  485  ASN485     -0.0877
     91  N          1.6590  122.9170   19.2760 N.am  486  ASP486     -0.1974
     92  CA         0.9890  121.8750   20.0250 C.3   486  ASP486      0.1709
     93  C          2.0260  120.8660   20.4340 C.2   486  ASP486      0.2293
     94  O          2.1960  119.8320   19.7920 O.2   486  ASP486     -0.2864
     95  CB        -0.0990  121.2540   19.1600 C.3   486  ASP486      0.1436
     96  CG        -0.8170  120.0600   19.8330 C.2   486  ASP486      0.3671
     97  OD1       -0.7350  119.8460   21.0740 O.co2 486  ASP486     -0.2456
     98  OD2       -1.4720  119.3270   19.0560 O.co2 486  ASP486     -0.2456
@<TRIPOS>BOND
     1    42    40   ar
     2    40    41   ar
     3    40    39    1
     4    39    36    1
     5    38    37    2
     6    37    36    1
     7    36    35    1
     8    35    25   am
     9    16    15    2
    10    25    26    2
    11    25    24    1
    12    19    21   ar
    13    19    18   ar
    14    15    14    1
    15    15    23   am
    16    24    23    1
    17    24    27    1
    18    21    22   ar
    19    17    14    1
    20    17    18    1
    21    14    13    1
    22    18    20   ar
    23    27    28    1
    24    22    20   ar
    25    29    28   ar
    26    29    31   ar
    27    49    47    1
    28    28    30   ar
    29    43    44    1
    30    44    47    1
    31    44    45    1
    32    31    33   ar
    33    47    48    1
    34    30    32   ar
    35    75    76    1
    36    45    46    2
    37    76    79    1
    38    76    77    1
    39    82    80   ar
    40    33    32   ar
    41    33    34    1
    42    79    80    1
    43    80    81   ar
    44    48    50    1
    45    89    88    2
    46    77    78    2
    47    88    90   am
    48    88    87    1
    49    83    84    1
    50    87    84    1
    51    11    10    2
    52    84    85    1
    53    56    55    1
    54    56    57    1
    55    98    96   ar
    56    95    96    1
    57    95    92    1
    58    10     9    1
    59    91    85   am
    60    91    92    1
    61    55    52    1
    62    57    51    1
    63    94    93    2
    64    85    86    2
    65    96    97   ar
    66    92    93    1
    67     7     5    1
    68     4     3    2
    69    52    51    1
    70    52    53    1
    71     9    12    1
    72     9     8    1
    73     3     8   am
    74     3     2    1
    75     6     5    1
    76     5     2    1
    77    61    60    2
    78    53    58   am
    79    53    54    2
    80    72    71    1
    81    72    74    1
    82    58    59    1
    83     2     1    1
    84    71    73    1
    85    71    68    1
    86    60    59    1
    87    59    62    1
    88    67    68    1
    89    70    69    2
    90    62    63    1
    91    68    69    1
    92    63    64    1
    93    64    66   am
    94    64    65    2
