@<TRIPOS>MOLECULE
tmp/3koxA02.pdb
 176 167 0 0 0
SMALL
GASTEIGER

@<TRIPOS>ATOM
      1  N         -2.7050  101.6260   34.6870 N.3    77  GLU77      -0.1245
      2  CA        -2.8810  102.2520   33.3700 C.3    77  GLU77       0.1567
      3  C         -2.8450  103.7620   33.4740 C.2    77  GLU77       0.2260
      4  O         -3.7760  104.3580   33.9820 O.2    77  GLU77      -0.2867
      5  CB        -4.2460  101.8850   32.7790 C.3    77  GLU77       0.0388
      6  CG        -4.4380  100.3920   32.4980 C.3    77  GLU77       0.1160
      7  CD        -5.8710   99.9900   32.1270 C.2    77  GLU77       0.3649
      8  OE1       -6.8070  100.8260   32.1700 O.co2  77  GLU77      -0.2457
      9  OE2       -6.0510   98.8040   31.7960 O.co2  77  GLU77      -0.2457
     10  N         -2.3840  103.6290   27.3160 N.3   104  ILE104     -0.1231
     11  CA        -3.4700  103.5960   26.3110 C.3   104  ILE104      0.1692
     12  C         -3.1860  104.7260   25.3550 C.2   104  ILE104      0.2592
     13  O         -2.7080  105.7980   25.7720 O.2   104  ILE104     -0.2718
     14  CB        -4.8810  103.8060   26.9920 C.3   104  ILE104      0.0266
     15  CG1       -5.2460  102.5840   27.8600 C.3   104  ILE104      0.0019
     16  CG2       -5.9900  104.0590   25.9760 C.3   104  ILE104      0.0020
     17  CD1       -6.3930  102.8120   28.9020 C.3   104  ILE104      0.0001
     18  N         -3.4690  104.5130   24.0820 N.am  105  ARG105     -0.1966
     19  CA        -3.1350  105.4800   23.0620 C.3   105  ARG105      0.1729
     20  C         -4.2550  106.5080   22.8630 C.2   105  ARG105      0.2617
     21  O         -5.4240  106.2030   23.0810 O.2   105  ARG105     -0.2715
     22  CB        -2.8720  104.7320   21.7650 C.3   105  ARG105      0.0348
     23  CG        -1.9100  103.5650   21.8950 C.3   105  ARG105      0.0492
     24  CD        -1.4480  103.0750   20.5130 C.3   105  ARG105      0.2205
     25  NE        -2.5970  102.6090   19.7530 N.pl3 105  ARG105     -0.0865
     26  CZ        -2.5450  101.8130   18.6950 C.cat 105  ARG105      0.5346
     27  NH1       -1.3800  101.3190   18.2590 N.pl3 105  ARG105      0.1354
     28  NH2       -3.6820  101.4840   18.0890 N.pl3 105  ARG105      0.1354
     29  N         -3.9030  107.7080   22.4140 N.am  106  THR106     -0.1937
     30  CA        -4.9150  108.7420   22.1060 C.3   106  THR106      0.2028
     31  C         -5.9120  108.1390   21.1690 C.2   106  THR106      0.2642
     32  O         -5.5510  107.3840   20.2940 O.2   106  THR106     -0.2714
     33  CB        -4.3230  110.0680   21.4900 C.3   106  THR106      0.1808
     34  OG1       -5.3540  111.0640   21.3560 O.3   106  THR106     -0.2208
     35  CG2       -3.6490  109.8640   20.1360 C.3   106  THR106      0.0379
     36  N         -7.1800  108.4390   21.3960 N.am  107  ALA107     -0.1963
     37  CA        -8.2850  107.7870   20.7120 C.3   107  ALA107      0.1728
     38  C         -8.0930  107.6960   19.1660 C.2   107  ALA107      0.2617
     39  O         -7.7490  108.6680   18.4950 O.2   107  ALA107     -0.2715
     40  CB        -9.5790  108.5080   21.0680 C.3   107  ALA107      0.0334
     41  N         -8.2810  106.5120   18.6230 N.am  108  GLY108     -0.1940
     42  CA        -8.1730  106.2900   17.1930 C.3   108  GLY108      0.2014
     43  C         -6.7640  106.1680   16.6520 C.2   108  GLY108      0.2639
     44  O         -6.5740  106.0950   15.4370 O.2   108  GLY108     -0.2714
     45  N         -5.7590  106.1220   17.5070 N.am  109  GLN109     -0.1963
     46  CA        -4.4260  105.8520   16.9800 C.3   109  GLN109      0.1733
     47  C         -4.3530  104.6040   16.0850 C.2   109  GLN109      0.2617
     48  O         -3.4980  104.5530   15.1970 O.2   109  GLN109     -0.2715
     49  CB        -3.3500  105.7810   18.0690 C.3   109  GLN109      0.0408
     50  CG        -1.8710  105.6640   17.4590 C.3   109  GLN109      0.0908
     51  CD        -0.8230  106.4460   18.2520 C.2   109  GLN109      0.2608
     52  OE1       -1.0650  106.8590   19.3830 O.2   109  GLN109     -0.2717
     53  NE2        0.3240  106.6760   17.6460 N.am  109  GLN109     -0.0878
     54  N         -5.2370  103.6180   16.2750 N.am  110  SER110     -0.1950
     55  CA        -5.2710  102.4890   15.3510 C.3   110  SER110      0.1924
     56  C         -5.3410  102.9640   13.9010 C.2   110  SER110      0.2314
     57  O         -4.8220  102.2760   13.0040 O.2   110  SER110     -0.2863
     58  CB        -6.4400  101.5300   15.6260 C.3   110  SER110      0.2116
     59  OG        -6.1970  100.6990   16.7570 O.3   110  SER110     -0.2180
     60  N          0.5030   99.8440   22.9040 N.3   156  TYR156     -0.1241
     61  CA        -0.3250   99.1400   21.9330 C.3   156  TYR156      0.1605
     62  C          0.2190   99.1690   20.5010 C.2   156  TYR156      0.2264
     63  O          0.5580  100.2010   20.0000 O.2   156  TYR156     -0.2867
     64  CB        -1.7040   99.7820   21.9340 C.3   156  TYR156      0.0534
     65  CG        -2.4340   99.6100   23.2230 C.ar  156  TYR156     -0.0201
     66  CD1       -3.5110   98.7360   23.3190 C.ar  156  TYR156     -0.0009
     67  CD2       -2.0360  100.3060   24.3660 C.ar  156  TYR156     -0.0009
     68  CE1       -4.1610   98.5530   24.5290 C.ar  156  TYR156      0.0417
     69  CE2       -2.6890  100.1580   25.5680 C.ar  156  TYR156      0.0417
     70  CZ        -3.7580   99.2800   25.6430 C.ar  156  TYR156      0.1957
     71  OH        -4.4280   99.1260   26.8280 O.3   156  TYR156     -0.2866
     72  N         -1.6990   97.8780   17.9640 N.3   158  SER158     -0.1217
     73  CA        -2.9380   97.7470   17.2100 C.3   158  SER158      0.1889
     74  C         -3.0090   98.7090   16.0240 C.2   158  SER158      0.2288
     75  O         -2.3870   99.7700   16.0250 O.2   158  SER158     -0.2866
     76  CB        -4.1270   97.9810   18.1630 C.3   158  SER158      0.2089
     77  OG        -4.0860   97.0990   19.3070 O.3   158  SER158     -0.2183
     78  N          0.2220   95.0930   23.3770 N.3   178  HIS178     -0.1241
     79  CA        -0.9280   94.4080   22.8730 C.3   178  HIS178      0.1621
     80  C         -0.8200   94.2750   21.3280 C.2   178  HIS178      0.2264
     81  O         -0.5700   95.2600   20.6500 O.2   178  HIS178     -0.2867
     82  CB        -2.1680   95.2470   23.1000 C.3   178  HIS178      0.0745
     83  CG        -2.6200   95.3360   24.5120 C.ar  178  HIS178      0.0817
     84  ND1       -1.9830   96.1170   25.4480 N.ar  178  HIS178     -0.2268
     85  CD2       -3.7300   94.8590   25.1150 C.ar  178  HIS178      0.1154
     86  CE1       -2.6320   96.0520   26.5900 C.ar  178  HIS178      0.1986
     87  NE2       -3.7080   95.3100   26.4100 N.ar  178  HIS178     -0.2212
     88  N         -3.3210   92.0190   18.3950 N.3   180  ASP180     -0.1239
     89  CA        -4.3170   91.0070   17.9920 C.3   180  ASP180      0.1674
     90  C         -4.9930   91.4270   16.6900 C.2   180  ASP180      0.2266
     91  O         -5.8410   92.3280   16.6540 O.2   180  ASP180     -0.2867
     92  CB        -5.3670   90.7780   19.0690 C.3   180  ASP180      0.1410
     93  CG        -6.1850   89.4510   18.8750 C.2   180  ASP180      0.3668
     94  OD1       -6.5290   89.0400   17.7200 O.co2 180  ASP180     -0.2456
     95  OD2       -6.5360   88.8400   19.9180 O.co2 180  ASP180     -0.2456
     96  N         -8.5570   92.0790   16.7630 N.3   183  TYR183     -0.1241
     97  CA        -9.0440   93.3130   17.3190 C.3   183  TYR183      0.1605
     98  C         -9.3420   94.2860   16.2090 C.2   183  TYR183      0.2264
     99  O        -10.3200   94.9980   16.2650 O.2   183  TYR183     -0.2867
    100  CB        -8.0030   93.9680   18.2060 C.3   183  TYR183      0.0534
    101  CG        -8.3230   95.4080   18.5000 C.ar  183  TYR183     -0.0201
    102  CD1       -9.3300   95.7420   19.3890 C.ar  183  TYR183     -0.0009
    103  CD2       -7.6250   96.4280   17.8900 C.ar  183  TYR183     -0.0009
    104  CE1       -9.6400   97.0490   19.6740 C.ar  183  TYR183      0.0417
    105  CE2       -7.9180   97.7560   18.1780 C.ar  183  TYR183      0.0417
    106  CZ        -8.9260   98.0630   19.0650 C.ar  183  TYR183      0.1957
    107  OH        -9.2420   99.4010   19.3340 O.3   183  TYR183     -0.2866
    108  N        -12.0960   97.7080   14.9260 N.3   188  ARG188     -0.1245
    109  CA       -11.6960   98.9310   14.1960 C.3   188  ARG188      0.1563
    110  C        -12.0090   98.8250   12.7150 C.2   188  ARG188      0.2260
    111  O        -11.7990   99.7830   11.9680 O.2   188  ARG188     -0.2867
    112  CB       -10.2170   99.3320   14.4500 C.3   188  ARG188      0.0307
    113  CG        -9.9550   99.8980   15.8820 C.3   188  ARG188      0.0489
    114  CD       -10.6630  101.2090   16.0520 C.3   188  ARG188      0.2205
    115  NE       -10.3560  101.9600   17.2650 N.pl3 188  ARG188     -0.0865
    116  CZ       -10.9300  103.1230   17.5790 C.cat 188  ARG188      0.5346
    117  NH1      -11.8360  103.6710   16.7800 N.pl3 188  ARG188      0.1354
    118  NH2      -10.6050  103.7460   18.6980 N.pl3 188  ARG188      0.1354
    119  N         -3.3350   89.8470   24.2500 N.3   215  ASP215     -0.1225
    120  CA        -4.2900   89.7230   23.1760 C.3   215  ASP215      0.1805
    121  C         -5.5010   90.6460   23.2910 C.2   215  ASP215      0.2598
    122  O         -5.4720   91.5300   24.0350 O.2   215  ASP215     -0.2718
    123  CB        -4.6050   88.2620   22.8770 C.3   215  ASP215      0.1424
    124  CG        -5.5030   87.6080   23.8620 C.2   215  ASP215      0.3668
    125  OD1       -6.2120   88.2130   24.5960 O.co2 215  ASP215     -0.2456
    126  OD2       -5.5310   86.4230   23.8660 O.co2 215  ASP215     -0.2456
    127  N         -6.5330   90.4740   22.5030 N.am  216  GLY216     -0.1957
    128  CA        -7.5650   91.4710   22.4190 C.3   216  GLY216      0.1869
    129  C         -8.9470   91.0760   22.8400 C.2   216  GLY216      0.2309
    130  O         -9.8970   91.7780   22.6740 O.2   216  GLY216     -0.2863
    131  N        -10.4590   90.8470   25.6330 N.3   218  HIS218     -0.1226
    132  CA       -11.2570   91.6170   26.6330 C.3   218  HIS218      0.1752
    133  C        -12.3310   92.4580   25.9500 C.2   218  HIS218      0.2596
    134  O        -13.3610   92.8130   26.5290 O.2   218  HIS218     -0.2718
    135  CB       -10.3760   92.5350   27.5130 C.3   218  HIS218      0.0759
    136  CG        -9.4100   93.3700   26.7380 C.ar  218  HIS218      0.0818
    137  ND1       -8.1280   92.9410   26.4510 N.ar  218  HIS218     -0.2268
    138  CD2       -9.5530   94.5760   26.1290 C.ar  218  HIS218      0.1154
    139  CE1       -7.5170   93.8600   25.7160 C.ar  218  HIS218      0.1986
    140  NE2       -8.3570   94.8590   25.5010 N.ar  218  HIS218     -0.2212
    141  N        -12.0630   92.7890   24.7020 N.am  219  ASN219     -0.1974
    142  CA       -12.9980   93.5090   23.8840 C.3   219  ASN219      0.1688
    143  C        -14.3640   92.7860   23.7680 C.2   219  ASN219      0.2292
    144  O        -15.3960   93.4340   23.8770 O.2   219  ASN219     -0.2864
    145  CB       -12.3400   93.7720   22.5290 C.3   219  ASN219      0.1181
    146  CG       -11.1750   94.7830   22.6310 C.2   219  ASN219      0.2629
    147  OD1      -11.4100   95.9860   22.6790 O.2   219  ASN219     -0.2716
    148  ND2       -9.9360   94.2950   22.6820 N.am  219  ASN219     -0.0877
    149  N         -2.9860   86.9810   31.5710 N.3   290  ARG290     -0.1245
    150  CA        -3.0900   88.3360   32.0450 C.3   290  ARG290      0.1563
    151  C         -4.5060   88.5680   32.5600 C.2   290  ARG290      0.2260
    152  O         -5.4060   88.8790   31.7880 O.2   290  ARG290     -0.2867
    153  CB        -2.7780   89.3000   30.9290 C.3   290  ARG290      0.0307
    154  CG        -2.7720   90.7800   31.3580 C.3   290  ARG290      0.0489
    155  CD        -4.0560   91.4900   30.9230 C.3   290  ARG290      0.2205
    156  NE        -3.9940   92.9150   31.1960 N.pl3 290  ARG290     -0.0865
    157  CZ        -4.6160   93.8500   30.4900 C.cat 290  ARG290      0.5346
    158  NH1       -5.3660   93.5380   29.4400 N.pl3 290  ARG290      0.1354
    159  NH2       -4.4650   95.1170   30.8320 N.pl3 290  ARG290      0.1354
    160  N         -7.3010   90.7010   34.2940 N.3   292  GLN292     -0.1245
    161  CA        -7.5870   92.1070   34.2860 C.3   292  GLN292      0.1566
    162  C         -8.9470   92.1530   34.9220 C.2   292  GLN292      0.2260
    163  O         -9.6420   91.1360   34.9860 O.2   292  GLN292     -0.2867
    164  CB        -7.5770   92.6480   32.8540 C.3   292  GLN292      0.0367
    165  CG        -8.1260   94.0590   32.6550 C.3   292  GLN292      0.0905
    166  CD        -7.3760   95.1460   33.4420 C.2   292  GLN292      0.2608
    167  OE1       -7.2810   95.1010   34.6720 O.2   292  GLN292     -0.2717
    168  NE2       -6.8850   96.1400   32.7350 N.am  292  GLN292     -0.0878
    169  N         -7.6660   98.0700   37.3780 N.3   327  ILE327     -0.1245
    170  CA        -8.5800   99.0730   36.8660 C.3   327  ILE327      0.1561
    171  C         -8.8600  100.0270   38.0230 C.2   327  ILE327      0.2260
    172  O         -9.0700   99.6130   39.1330 O.2   327  ILE327     -0.2867
    173  CB        -9.8560   98.3420   36.4370 C.3   327  ILE327      0.0252
    174  CG1       -9.5910   97.6090   35.0980 C.3   327  ILE327      0.0019
    175  CG2      -11.1220   99.2640   36.5180 C.3   327  ILE327      0.0019
    176  CD1       -9.9230   98.3950   33.8110 C.3   327  ILE327      0.0001
@<TRIPOS>BOND
     1   111   110    2
     2   110   109    1
     3    57    56    2
     4    56    55    1
     5   109   112    1
     6   109   108    1
     7   112   113    1
     8    48    47    2
     9    55    58    1
    10    55    54    1
    11    44    43    2
    12    58    59    1
    13   113   114    1
    14    74    75    2
    15    74    73    1
    16   114   115    1
    17    47    54   am
    18    47    46    1
    19    98    99    2
    20    98    97    1
    21    43    42    1
    22    43    45   am
    23    91    90    2
    24    90    89    1
    25    96    97    1
    26   117   116    1
    27    46    45    1
    28    46    49    1
    29    42    41    1
    30    73    72    1
    31    73    76    1
    32   115   116    2
    33    97   100    1
    34    50    49    1
    35    50    51    1
    36   116   118    1
    37    53    51   am
    38    94    93   ar
    39   103   105   ar
    40   103   101   ar
    41    89    88    1
    42    89    92    1
    43    28    26    1
    44    76    77    1
    45   105   106   ar
    46   100   101    1
    47    51    52    2
    48    27    26    1
    49    39    38    2
    50   101   102   ar
    51    41    38   am
    52    26    25    2
    53    93    92    1
    54    93    95   ar
    55   106   107    1
    56   106   104   ar
    57    38    37    1
    58   102   104   ar
    59    25    24    1
    60    63    62    2
    61    35    33    1
    62    32    31    2
    63    62    61    1
    64    24    23    1
    65    81    80    2
    66    37    40    1
    67    37    36    1
    68    31    36   am
    69    31    30    1
    70    80    79    1
    71    34    33    1
    72    33    30    1
    73    22    23    1
    74    22    19    1
    75    61    64    1
    76    61    60    1
    77    64    65    1
    78    30    29    1
    79    29    20   am
    80   128   127    1
    81   128   129    1
    82   127   121   am
    83   145   146    1
    84   145   142    1
    85   146   147    2
    86   146   148   am
    87   130   129    2
    88    20    19    1
    89    20    21    2
    90    79    82    1
    91    79    78    1
    92   123   120    1
    93   123   124    1
    94    19    18    1
    95    82    83    1
    96   120   121    1
    97   120   119    1
    98    65    66   ar
    99    65    67   ar
   100   121   122    2
   101    66    68   ar
   102   143   144    2
   103   143   142    1
   104   124   126   ar
   105   124   125   ar
   106   142   141    1
   107    18    12   am
   108    67    69   ar
   109    83    85   ar
   110    83    84   ar
   111    68    70   ar
   112   141   133   am
   113    85    87   ar
   114    12    13    2
   115    12    11    1
   116    84    86   ar
   117   140   139   ar
   118   140   138   ar
   119    69    70   ar
   120   131   132    1
   121    70    71    1
   122   139   137   ar
   123   133   134    2
   124   133   132    1
   125    16    14    1
   126   138   136   ar
   127    11    14    1
   128    11    10    1
   129    87    86   ar
   130   137   136   ar
   131   132   135    1
   132   136   135    1
   133    14    15    1
   134    15    17    1
   135   158   157    1
   136   157   159    1
   137   157   156    2
   138   155   156    1
   139   155   154    1
   140   153   154    1
   141   153   150    1
   142   149   150    1
   143   152   151    2
   144     9     7   ar
   145   150   151    1
   146     7     8   ar
   147     7     6    1
   148     6     5    1
   149   165   164    1
   150   165   166    1
   151   168   166   am
   152     5     2    1
   153   164   161    1
   154     2     3    1
   155     2     1    1
   156   166   167    2
   157     3     4    2
   158   176   174    1
   159   161   160    1
   160   161   162    1
   161   162   163    2
   162   174   173    1
   163   173   175    1
   164   173   170    1
   165   170   169    1
   166   170   171    1
   167   171   172    2
