@<TRIPOS>MOLECULE
tmp/3koyA02.pdb
 102 98 0 0 0
SMALL
GASTEIGER

@<TRIPOS>ATOM
      1  N         -3.3450  108.3200   22.2460 N.3   106  THR106     -0.1203
      2  CA        -4.3120  109.3780   21.9600 C.3   106  THR106      0.1994
      3  C         -5.4260  108.8510   21.0680 C.2   106  THR106      0.2618
      4  O         -5.2090  107.9820   20.2130 O.2   106  THR106     -0.2717
      5  CB        -3.6530  110.6240   21.2880 C.3   106  THR106      0.1784
      6  OG1       -4.5030  111.7740   21.4350 O.3   106  THR106     -0.2211
      7  CG2       -3.3790  110.3680   19.7950 C.3   106  THR106      0.0376
      8  N         -6.6200  109.3930   21.2710 N.am  107  ALA107     -0.1965
      9  CA        -7.8180  108.8700   20.6290 C.3   107  ALA107      0.1728
     10  C         -7.6590  108.7000   19.1190 C.2   107  ALA107      0.2616
     11  O         -7.3810  109.6570   18.3960 O.2   107  ALA107     -0.2715
     12  CB        -9.0030  109.7440   20.9560 C.3   107  ALA107      0.0334
     13  N         -7.8220  107.4630   18.6640 N.am  108  GLY108     -0.1955
     14  CA        -7.8160  107.1400   17.2460 C.3   108  GLY108      0.1869
     15  C         -6.4560  106.9290   16.5790 C.2   108  GLY108      0.2309
     16  O         -6.3600  106.9750   15.3450 O.2   108  GLY108     -0.2863
     17  N         -5.5770  104.8750   13.3130 N.3   111  HIS111     -0.1226
     18  CA        -5.7930  105.3350   11.9470 C.3   111  HIS111      0.1752
     19  C         -4.6470  106.1520   11.3650 C.2   111  HIS111      0.2596
     20  O         -4.6160  106.3870   10.1600 O.2   111  HIS111     -0.2718
     21  CB        -7.1080  106.1000   11.8380 C.3   111  HIS111      0.0759
     22  CG        -8.3020  105.2760   12.1850 C.ar  111  HIS111      0.0818
     23  ND1       -8.8000  104.3010   11.3470 N.ar  111  HIS111     -0.2268
     24  CD2       -9.0990  105.2770   13.2790 C.ar  111  HIS111      0.1154
     25  CE1       -9.8500  103.7340   11.9140 C.ar  111  HIS111      0.1986
     26  NE2      -10.0550  104.3110   13.0860 N.ar  111  HIS111     -0.2212
     27  N         -3.7120  106.5800   12.2130 N.am  112  TYR112     -0.1962
     28  CA        -2.4930  107.2390   11.7380 C.3   112  TYR112      0.1771
     29  C         -1.7010  106.2910   10.8390 C.2   112  TYR112      0.2619
     30  O         -1.0760  105.3600   11.3550 O.2   112  TYR112     -0.2715
     31  CB        -1.5780  107.6440   12.9070 C.3   112  TYR112      0.0574
     32  CG        -2.1050  108.6990   13.8880 C.ar  112  TYR112     -0.0198
     33  CD1       -3.3510  109.3040   13.7140 C.ar  112  TYR112     -0.0009
     34  CD2       -1.3400  109.0780   15.0030 C.ar  112  TYR112     -0.0009
     35  CE1       -3.8150  110.2480   14.6130 C.ar  112  TYR112      0.0417
     36  CE2       -1.8030  110.0230   15.9020 C.ar  112  TYR112      0.0417
     37  CZ        -3.0370  110.6020   15.7020 C.ar  112  TYR112      0.1957
     38  OH        -3.4920  111.5410   16.5920 O.3   112  TYR112     -0.2866
     39  N         -1.7280  106.5240    9.5200 N.am  113  ASP113     -0.1971
     40  CA        -0.9500  105.7240    8.5650 C.3   113  ASP113      0.1709
     41  C          0.5560  106.0600    8.5640 C.2   113  ASP113      0.2293
     42  O          1.1630  106.2860    7.5150 O.2   113  ASP113     -0.2864
     43  CB        -1.5120  105.8570    7.1490 C.3   113  ASP113      0.1436
     44  CG        -1.0990  104.7050    6.2470 C.2   113  ASP113      0.3671
     45  OD1       -0.3860  103.7890    6.7100 O.co2 113  ASP113     -0.2456
     46  OD2       -1.5000  104.6900    5.0720 O.co2 113  ASP113     -0.2456
     47  N          4.1170  109.4600   14.0060 N.3   116  ILE116     -0.1245
     48  CA         4.0260  110.9140   14.1120 C.3   116  ILE116      0.1561
     49  C          5.2330  111.3670   14.9420 C.2   116  ILE116      0.2260
     50  O          6.0260  110.5390   15.3860 O.2   116  ILE116     -0.2867
     51  CB         2.6850  111.3600   14.7330 C.3   116  ILE116      0.0252
     52  CG1        2.5540  110.8400   16.1590 C.3   116  ILE116      0.0019
     53  CG2        1.5350  110.8270   13.9220 C.3   116  ILE116      0.0019
     54  CD1        1.2260  111.1500   16.7940 C.3   116  ILE116      0.0001
     55  N          2.6880  116.6420   20.5640 N.3   120  PRO120     -0.2102
     56  CA         1.3730  117.2800   20.5520 C.3   120  PRO120      0.1504
     57  C          0.6130  116.8540   21.7860 C.2   120  PRO120      0.2575
     58  O          0.9360  115.8230   22.3870 O.2   120  PRO120     -0.2718
     59  CB         0.7010  116.7050   19.3040 C.3   120  PRO120      0.0282
     60  CG         1.4490  115.4850   18.9700 C.3   120  PRO120      0.0208
     61  CD         2.8380  115.6470   19.4910 C.3   120  PRO120      0.0893
     62  N         -0.3690  117.6600   22.1650 N.am  121  GLN121     -0.1980
     63  CA        -1.2440  117.3680   23.2840 C.3   121  GLN121      0.1601
     64  C         -2.1680  116.2520   22.8380 C.2   121  GLN121      0.2287
     65  O         -2.4730  116.1360   21.6520 O.2   121  GLN121     -0.2864
     66  CB        -2.0500  118.6180   23.6200 C.3   121  GLN121      0.0394
     67  CG        -3.3830  118.3670   24.2820 C.3   121  GLN121      0.0908
     68  CD        -3.3650  118.6670   25.7620 C.2   121  GLN121      0.2608
     69  OE1       -3.1120  119.8050   26.1790 O.2   121  GLN121     -0.2717
     70  NE2       -3.6370  117.6410   26.5780 N.am  121  GLN121     -0.0878
     71  N         -5.7590  113.6110   23.5250 N.3   123  ILE123     -0.1245
     72  CA        -7.0500  113.5210   24.1900 C.3   123  ILE123      0.1561
     73  C         -7.3710  112.0600   24.5030 C.2   123  ILE123      0.2260
     74  O         -7.2710  111.1920   23.6470 O.2   123  ILE123     -0.2867
     75  CB        -8.1760  114.2190   23.3820 C.3   123  ILE123      0.0252
     76  CG1       -9.4580  114.3030   24.2170 C.3   123  ILE123      0.0019
     77  CG2       -8.4160  113.5210   22.0550 C.3   123  ILE123      0.0019
     78  CD1       -9.2990  115.0130   25.5720 C.3   123  ILE123      0.0001
     79  N          4.7310  120.5890   14.8850 N.3   483  ASP483     -0.1239
     80  CA         3.9510  121.7550   15.2650 C.3   483  ASP483      0.1674
     81  C          4.8860  122.6270   16.0820 C.2   483  ASP483      0.2266
     82  O          5.8980  122.1330   16.5740 O.2   483  ASP483     -0.2867
     83  CB         2.7320  121.3610   16.0830 C.3   483  ASP483      0.1410
     84  CG         1.5160  122.1720   15.7140 C.2   483  ASP483      0.3668
     85  OD1        1.3820  123.3070   16.2290 O.co2 483  ASP483     -0.2456
     86  OD2        0.7140  121.6810   14.8880 O.co2 483  ASP483     -0.2456
     87  N          3.4760  125.2730   18.2110 N.3   485  ASN485     -0.1225
     88  CA         2.7320  125.7850   19.3480 C.3   485  ASN485      0.1785
     89  C          2.1510  124.6130   20.1210 C.2   485  ASN485      0.2597
     90  O          1.8500  124.7150   21.3220 O.2   485  ASN485     -0.2718
     91  CB         1.6170  126.7120   18.8870 C.3   485  ASN485      0.1169
     92  CG         1.9560  127.4140   17.5980 C.2   485  ASN485      0.2627
     93  OD1        1.4050  127.0860   16.5410 O.2   485  ASN485     -0.2716
     94  ND2        2.8830  128.3760   17.6660 N.am  485  ASN485     -0.0877
     95  N          2.0080  123.4900   19.4230 N.am  486  ASP486     -0.1974
     96  CA         1.4330  122.3040   20.0260 C.3   486  ASP486      0.1709
     97  C          2.5090  121.3760   20.5440 C.2   486  ASP486      0.2293
     98  O          2.5360  120.2100   20.1800 O.2   486  ASP486     -0.2864
     99  CB         0.5610  121.5570   19.0250 C.3   486  ASP486      0.1436
    100  CG        -0.3890  120.6080   19.7010 C.2   486  ASP486      0.3671
    101  OD1       -0.3710  120.5750   20.9490 O.co2 486  ASP486     -0.2456
    102  OD2       -1.1560  119.9070   19.0020 O.co2 486  ASP486     -0.2456
@<TRIPOS>BOND
     1    46    44   ar
     2    44    45   ar
     3    44    43    1
     4    43    40    1
     5    42    41    2
     6    41    40    1
     7    40    39    1
     8    39    29   am
     9    20    19    2
    10    29    30    2
    11    29    28    1
    12    23    25   ar
    13    23    22   ar
    14    19    18    1
    15    19    27   am
    16    28    27    1
    17    28    31    1
    18    21    18    1
    19    21    22    1
    20    25    26   ar
    21    18    17    1
    22    22    24   ar
    23    31    32    1
    24    26    24   ar
    25    33    32   ar
    26    33    35   ar
    27    32    34   ar
    28    53    51    1
    29    47    48    1
    30    48    51    1
    31    48    49    1
    32    35    37   ar
    33    51    52    1
    34    79    80    1
    35    86    84   ar
    36    49    50    2
    37    34    36   ar
    38    80    81    1
    39    80    83    1
    40    16    15    2
    41    37    36   ar
    42    37    38    1
    43    84    83    1
    44    84    85   ar
    45    81    82    2
    46    52    54    1
    47    93    92    2
    48    15    14    1
    49    14    13    1
    50    92    94   am
    51    92    91    1
    52    87    88    1
    53    11    10    2
    54    13    10   am
    55    91    88    1
    56    60    59    1
    57    60    61    1
    58   102   100   ar
    59    99   100    1
    60    99    96    1
    61    10     9    1
    62    59    56    1
    63    88    89    1
    64    95    96    1
    65    95    89   am
    66    61    55    1
    67   100   101   ar
    68     7     5    1
    69    96    97    1
    70    89    90    2
    71    98    97    2
    72     4     3    2
    73    56    55    1
    74    56    57    1
    75     9    12    1
    76     9     8    1
    77     3     8   am
    78     3     2    1
    79     5     6    1
    80     5     2    1
    81    65    64    2
    82    57    62   am
    83    57    58    2
    84     2     1    1
    85    77    75    1
    86    62    63    1
    87    64    63    1
    88    63    66    1
    89    75    72    1
    90    75    76    1
    91    71    72    1
    92    66    67    1
    93    74    73    2
    94    72    73    1
    95    76    78    1
    96    67    68    1
    97    68    69    2
    98    68    70   am
