@<TRIPOS>MOLECULE
tmp/3kozE02.pdb
 191 180 0 0 0
SMALL
GASTEIGER

@<TRIPOS>ATOM
      1  N        -23.4830   99.0580   62.8010 N.3    77  GLU77      -0.1245
      2  CA       -23.4100   99.7100   64.0890 C.3    77  GLU77       0.1567
      3  C        -23.8130  101.1640   63.9750 C.2    77  GLU77       0.2260
      4  O        -23.0880  101.9690   63.3820 O.2    77  GLU77      -0.2867
      5  CB       -21.9930   99.6100   64.6390 C.3    77  GLU77       0.0388
      6  CG       -21.6330   98.2130   65.1240 C.3    77  GLU77       0.1160
      7  CD       -20.1470   98.0240   65.3560 C.2    77  GLU77       0.3649
      8  OE1      -19.3970   99.0390   65.3550 O.co2  77  GLU77      -0.2457
      9  OE2      -19.7450   96.8510   65.5430 O.co2  77  GLU77      -0.2457
     10  N        -27.3130   97.4020   65.6940 N.3   102  MET102     -0.1245
     11  CA       -26.6670   97.2130   66.9730 C.3   102  MET102      0.1570
     12  C        -26.2790   98.5950   67.5220 C.2   102  MET102      0.2261
     13  O        -25.6190   99.3670   66.8340 O.2   102  MET102     -0.2867
     14  CB       -25.4530   96.3200   66.7120 C.3   102  MET102      0.0387
     15  CG       -24.6520   95.9220   67.8940 C.3   102  MET102      0.0595
     16  SD       -23.3330   94.8390   67.3270 S.3   102  MET102     -0.1393
     17  CE       -24.2090   93.3060   67.0200 C.3   102  MET102      0.0692
     18  N        -24.3110  100.5640   70.2830 N.3   104  ILE104     -0.1231
     19  CA       -23.2960  100.7100   71.3270 C.3   104  ILE104      0.1692
     20  C        -23.7770  101.6940   72.3920 C.2   104  ILE104      0.2592
     21  O        -24.3380  102.7230   72.0590 O.2   104  ILE104     -0.2718
     22  CB       -21.9980  101.2650   70.7350 C.3   104  ILE104      0.0266
     23  CG1      -21.2470  100.1950   69.9370 C.3   104  ILE104      0.0019
     24  CG2      -21.1200  101.7930   71.8310 C.3   104  ILE104      0.0020
     25  CD1      -21.8260   99.9340   68.5420 C.3   104  ILE104      0.0001
     26  N        -23.5480  101.3900   73.6630 N.am  105  ARG105     -0.1966
     27  CA       -23.9870  102.2560   74.7640 C.3   105  ARG105      0.1729
     28  C        -23.1720  103.5600   74.9480 C.2   105  ARG105      0.2617
     29  O        -22.0870  103.7140   74.3850 O.2   105  ARG105     -0.2715
     30  CB       -23.9900  101.4600   76.0660 C.3   105  ARG105      0.0348
     31  CG       -24.9930  100.3240   76.0870 C.3   105  ARG105      0.0492
     32  CD       -24.8410   99.5140   77.3610 C.3   105  ARG105      0.2205
     33  NE       -23.4540   99.0920   77.5740 N.pl3 105  ARG105     -0.0865
     34  CZ       -23.0130   98.5300   78.6980 C.cat 105  ARG105      0.5346
     35  NH1      -23.8530   98.3290   79.7140 N.pl3 105  ARG105      0.1354
     36  NH2      -21.7410   98.1640   78.8120 N.pl3 105  ARG105      0.1354
     37  N        -23.7050  104.4980   75.7340 N.am  106  THR106     -0.1937
     38  CA       -22.9830  105.7340   76.0510 C.3   106  THR106      0.2028
     39  C        -21.7370  105.3910   76.8600 C.2   106  THR106      0.2642
     40  O        -21.7400  104.4230   77.6290 O.2   106  THR106     -0.2714
     41  CB       -23.8550  106.7390   76.8530 C.3   106  THR106      0.1808
     42  OG1      -23.0600  107.8600   77.2860 O.3   106  THR106     -0.2208
     43  CG2      -24.4780  106.0560   78.0710 C.3   106  THR106      0.0379
     44  N        -20.6850  106.1920   76.6870 N.am  107  ALA107     -0.1963
     45  CA       -19.3760  105.8990   77.2750 C.3   107  ALA107      0.1728
     46  C        -19.5270  105.4810   78.7110 C.2   107  ALA107      0.2617
     47  O        -20.0570  106.2470   79.5430 O.2   107  ALA107     -0.2715
     48  CB       -18.4460  107.0920   77.1760 C.3   107  ALA107      0.0334
     49  N        -19.0740  104.2550   78.9790 N.am  108  GLY108     -0.1940
     50  CA       -19.1210  103.6680   80.3080 C.3   108  GLY108      0.2014
     51  C        -20.4830  103.6210   80.9940 C.2   108  GLY108      0.2639
     52  O        -20.6000  103.9680   82.1810 O.2   108  GLY108     -0.2714
     53  N        -21.5140  103.2010   80.2570 N.am  109  GLN109     -0.1963
     54  CA       -22.8070  102.9440   80.8770 C.3   109  GLN109      0.1733
     55  C        -22.6920  101.6780   81.7250 C.2   109  GLN109      0.2617
     56  O        -23.5640  101.3880   82.5640 O.2   109  GLN109     -0.2715
     57  CB       -23.9170  102.7860   79.8380 C.3   109  GLN109      0.0408
     58  CG       -25.2150  102.2830   80.4620 C.3   109  GLN109      0.0908
     59  CD       -26.4500  102.6600   79.6800 C.2   109  GLN109      0.2608
     60  OE1      -26.3590  103.2130   78.5810 O.2   109  GLN109     -0.2717
     61  NE2      -27.6220  102.3560   80.2420 N.am  109  GLN109     -0.0878
     62  N        -21.6010  100.9360   81.4940 N.am  110  SER110     -0.1950
     63  CA       -21.2960   99.7210   82.2390 C.3   110  SER110      0.1924
     64  C        -21.1480  100.0260   83.7110 C.2   110  SER110      0.2314
     65  O        -21.3770   99.1630   84.5520 O.2   110  SER110     -0.2863
     66  CB       -20.0140   99.0620   81.7210 C.3   110  SER110      0.2116
     67  OG       -20.3070   97.9680   80.8610 O.3   110  SER110     -0.2180
     68  N        -26.4040   96.2280   74.4760 N.3   156  TYR156     -0.1241
     69  CA       -25.4610   95.6590   75.4480 C.3   156  TYR156      0.1605
     70  C        -25.9760   95.4880   76.8910 C.2   156  TYR156      0.2264
     71  O        -26.1520   96.4640   77.6350 O.2   156  TYR156     -0.2867
     72  CB       -24.1480   96.4630   75.4590 C.3   156  TYR156      0.0534
     73  CG       -23.4030   96.4330   74.1380 C.ar  156  TYR156     -0.0201
     74  CD1      -22.1710   95.7990   74.0150 C.ar  156  TYR156     -0.0009
     75  CD2      -23.9430   97.0300   73.0120 C.ar  156  TYR156     -0.0009
     76  CE1      -21.5070   95.7760   72.8050 C.ar  156  TYR156      0.0417
     77  CE2      -23.2940   97.0060   71.8050 C.ar  156  TYR156      0.0417
     78  CZ       -22.0830   96.3790   71.7010 C.ar  156  TYR156      0.1957
     79  OH       -21.4460   96.3580   70.4790 O.3   156  TYR156     -0.2866
     80  N        -24.4960   94.7180   79.8140 N.3   158  SER158     -0.1217
     81  CA       -23.1890   94.5920   80.4470 C.3   158  SER158      0.1889
     82  C        -23.0510   95.4060   81.7200 C.2   158  SER158      0.2288
     83  O        -23.8860   96.2560   82.0320 O.2   158  SER158     -0.2866
     84  CB       -22.0740   94.9770   79.4710 C.3   158  SER158      0.2089
     85  OG       -21.1520   93.9020   79.3070 O.3   158  SER158     -0.2183
     86  N        -25.3260   91.5940   73.5160 N.3   178  HIS178     -0.1241
     87  CA       -24.0460   91.1360   74.0310 C.3   178  HIS178      0.1621
     88  C        -24.2310   90.7700   75.4960 C.2   178  HIS178      0.2264
     89  O        -24.7710   91.5560   76.2700 O.2   178  HIS178     -0.2867
     90  CB       -23.0020   92.2610   73.9370 C.3   178  HIS178      0.0745
     91  CG       -22.4170   92.4560   72.5670 C.ar  178  HIS178      0.0817
     92  ND1      -23.1610   92.9210   71.4980 N.ar  178  HIS178     -0.2268
     93  CD2      -21.1610   92.2820   72.1050 C.ar  178  HIS178      0.1154
     94  CE1      -22.3820   93.0070   70.4340 C.ar  178  HIS178      0.1986
     95  NE2      -21.1670   92.6260   70.7660 N.ar  178  HIS178     -0.2212
     96  N        -21.5060   88.7760   78.2920 N.3   180  ASP180     -0.1239
     97  CA       -20.3420   87.9780   78.6000 C.3   180  ASP180      0.1674
     98  C        -19.7320   88.5070   79.8880 C.2   180  ASP180      0.2266
     99  O        -19.0790   89.5400   79.8900 O.2   180  ASP180     -0.2867
    100  CB       -19.3390   88.0350   77.4460 C.3   180  ASP180      0.1410
    101  CG       -18.2120   87.0180   77.5880 C.2   180  ASP180      0.3668
    102  OD1      -17.9980   86.5130   78.7090 O.co2 180  ASP180     -0.2456
    103  OD2      -17.5240   86.7330   76.5750 O.co2 180  ASP180     -0.2456
    104  N        -16.2080   89.8620   79.9340 N.3   183  TYR183     -0.1241
    105  CA       -16.0170   91.2380   79.5540 C.3   183  TYR183      0.1605
    106  C        -15.9460   92.1030   80.8070 C.2   183  TYR183      0.2264
    107  O        -14.9480   92.7850   81.0480 O.2   183  TYR183     -0.2867
    108  CB       -17.1560   91.7000   78.6620 C.3   183  TYR183      0.0534
    109  CG       -17.0490   93.1610   78.3450 C.ar  183  TYR183     -0.0201
    110  CD1      -16.1430   93.6170   77.3970 C.ar  183  TYR183     -0.0009
    111  CD2      -17.8290   94.0920   79.0160 C.ar  183  TYR183     -0.0009
    112  CE1      -16.0270   94.9570   77.1180 C.ar  183  TYR183      0.0417
    113  CE2      -17.7240   95.4330   78.7460 C.ar  183  TYR183      0.0417
    114  CZ       -16.8210   95.8610   77.7950 C.ar  183  TYR183      0.1957
    115  OH       -16.7010   97.1980   77.5140 O.3   183  TYR183     -0.2866
    116  N        -13.4700   96.0180   82.0910 N.3   188  ARG188     -0.1245
    117  CA       -14.1610   97.0940   82.8070 C.3   188  ARG188      0.1563
    118  C        -13.8350   97.1130   84.2930 C.2   188  ARG188      0.2260
    119  O        -14.3170   97.9750   85.0270 O.2   188  ARG188     -0.2867
    120  CB       -15.6770   97.0050   82.6090 C.3   188  ARG188      0.0307
    121  CG       -16.1670   97.6030   81.3140 C.3   188  ARG188      0.0489
    122  CD       -15.5100   98.9380   81.0880 C.3   188  ARG188      0.2205
    123  NE       -16.2400   99.7540   80.1240 N.pl3 188  ARG188     -0.0865
    124  CZ       -15.9090  101.0020   79.8020 C.cat 188  ARG188      0.5346
    125  NH1      -14.8480  101.5800   80.3660 N.pl3 188  ARG188      0.1354
    126  NH2      -16.6360  101.6750   78.9140 N.pl3 188  ARG188      0.1354
    127  N        -21.0350   87.2070   72.3650 N.3   215  ASP215     -0.1225
    128  CA       -20.0730   87.2880   73.4470 C.3   215  ASP215      0.1805
    129  C        -19.0010   88.3720   73.2680 C.2   215  ASP215      0.2598
    130  O        -19.1200   89.2500   72.4160 O.2   215  ASP215     -0.2718
    131  CB       -19.4370   85.9150   73.8050 C.3   215  ASP215      0.1424
    132  CG       -18.7420   85.2010   72.6410 C.2   215  ASP215      0.3668
    133  OD1      -18.2380   85.8880   71.7630 O.co2 215  ASP215     -0.2456
    134  OD2      -18.7710   83.9310   72.6340 O.co2 215  ASP215     -0.2456
    135  N        -17.9590   88.3200   74.0920 N.am  216  GLY216     -0.1957
    136  CA       -16.9880   89.3990   74.1830 C.3   216  GLY216      0.1869
    137  C        -15.6100   89.0230   73.6900 C.2   216  GLY216      0.2309
    138  O        -14.6950   89.8300   73.7620 O.2   216  GLY216     -0.2863
    139  N        -13.9910   89.0620   71.0450 N.3   218  HIS218     -0.1226
    140  CA       -13.3200   89.9960   70.1200 C.3   218  HIS218      0.1752
    141  C        -12.5360   91.0950   70.8010 C.2   218  HIS218      0.2596
    142  O        -11.5550   91.5790   70.2490 O.2   218  HIS218     -0.2718
    143  CB       -14.3080   90.6480   69.1540 C.3   218  HIS218      0.0759
    144  CG       -15.5350   91.1790   69.8170 C.ar  218  HIS218      0.0818
    145  ND1      -16.5660   90.3600   70.2320 N.ar  218  HIS218     -0.2268
    146  CD2      -15.9030   92.4380   70.1370 C.ar  218  HIS218      0.1154
    147  CE1      -17.5180   91.0970   70.7740 C.ar  218  HIS218      0.1986
    148  NE2      -17.1470   92.3590   70.7310 N.ar  218  HIS218     -0.2212
    149  N        -12.9790   91.5130   71.9780 N.am  219  ASN219     -0.1974
    150  CA       -12.2330   92.4940   72.7460 C.3   219  ASN219      0.1688
    151  C        -10.8280   92.0200   73.0840 C.2   219  ASN219      0.2292
    152  O         -9.9750   92.8270   73.4490 O.2   219  ASN219     -0.2864
    153  CB       -12.9700   92.8580   74.0310 C.3   219  ASN219      0.1181
    154  CG       -14.3230   93.4570   73.7680 C.2   219  ASN219      0.2629
    155  OD1      -14.4290   94.5960   73.3300 O.2   219  ASN219     -0.2716
    156  ND2      -15.3700   92.6940   74.0380 N.am  219  ASN219     -0.0877
    157  N        -20.9430   84.3270   64.9360 N.3   290  ARG290     -0.1245
    158  CA       -21.1540   85.7210   64.5710 C.3   290  ARG290      0.1563
    159  C        -19.8280   86.2730   64.0800 C.2   290  ARG290      0.2260
    160  O        -18.9250   86.5850   64.8670 O.2   290  ARG290     -0.2867
    161  CB       -21.6730   86.5580   65.7470 C.3   290  ARG290      0.0307
    162  CG       -21.7950   88.0370   65.4200 C.3   290  ARG290      0.0489
    163  CD       -20.8990   88.9110   66.2900 C.3   290  ARG290      0.2205
    164  NE       -21.0280   90.3010   65.8570 N.pl3 290  ARG290     -0.0865
    165  CZ       -20.3820   91.3460   66.3700 C.cat 290  ARG290      0.5346
    166  NH1      -19.5280   91.2040   67.3680 N.pl3 290  ARG290      0.1354
    167  NH2      -20.6160   92.5560   65.8770 N.pl3 290  ARG290      0.1354
    168  N        -17.4320   88.9880   62.8050 N.3   292  GLN292     -0.1245
    169  CA       -17.3090   90.4380   62.7780 C.3   292  GLN292      0.1566
    170  C        -16.0260   90.8380   62.0730 C.2   292  GLN292      0.2260
    171  O        -15.1020   90.0300   61.9400 O.2   292  GLN292     -0.2867
    172  CB       -17.3920   91.0430   64.1800 C.3   292  GLN292      0.0367
    173  CG       -16.9190   92.5080   64.2890 C.3   292  GLN292      0.0905
    174  CD       -17.8830   93.5510   63.6850 C.2   292  GLN292      0.2608
    175  OE1      -18.3900   93.4120   62.5660 O.2   292  GLN292     -0.2717
    176  NE2      -18.1160   94.6110   64.4360 N.am  292  GLN292     -0.0878
    177  N        -11.0310   95.5640   63.1240 N.3   295  THR295     -0.1218
    178  CA       -10.8380   97.0060   63.3660 C.3   295  THR295      0.1862
    179  C         -9.4670   97.3220   63.9270 C.2   295  THR295      0.2287
    180  O         -9.1280   98.4890   64.0610 O.2   295  THR295     -0.2866
    181  CB       -11.8590   97.6500   64.3470 C.3   295  THR295      0.1770
    182  OG1      -11.6670   97.1280   65.6630 O.3   295  THR295     -0.2211
    183  CG2      -13.2970   97.4330   63.9100 C.3   295  THR295      0.0375
    184  N        -18.0760   96.5970   59.6620 N.3   327  ILE327     -0.1245
    185  CA       -17.4090   97.7590   60.2490 C.3   327  ILE327      0.1561
    186  C        -17.4170   98.8290   59.1910 C.2   327  ILE327      0.2260
    187  O        -17.1110   98.5380   58.0430 O.2   327  ILE327     -0.2867
    188  CB       -15.9230   97.4680   60.5970 C.3   327  ILE327      0.0252
    189  CG1      -15.8250   96.5500   61.7990 C.3   327  ILE327      0.0019
    190  CG2      -15.1680   98.7560   60.8590 C.3   327  ILE327      0.0019
    191  CD1      -16.6890   96.9870   62.8820 C.3   327  ILE327      0.0001
@<TRIPOS>BOND
     1   187   186    2
     2   186   185    1
     3   184   185    1
     4   185   188    1
     5   188   190    1
     6   188   189    1
     7   189   191    1
     8   171   170    2
     9   170   169    1
    10   175   174    2
    11   169   168    1
    12   169   172    1
    13     1     2    1
    14   177   178    1
    15   178   179    1
    16   178   181    1
    17     4     3    2
    18   174   173    1
    19   174   176   am
    20   183   181    1
    21   179   180    2
    22     3     2    1
    23   159   158    1
    24   159   160    2
    25     2     5    1
    26   172   173    1
    27   181   182    1
    28   158   157    1
    29   158   161    1
    30     5     6    1
    31     6     7    1
    32     8     7   ar
    33     7     9   ar
    34   162   161    1
    35   162   163    1
    36    10    11    1
    37   164   163    1
    38   164   165    2
    39   167   165    1
    40   165   166    1
    41    14    11    1
    42    14    15    1
    43    13    12    2
    44    11    12    1
    45    17    16    1
    46    16    15    1
    47    25    23    1
    48   143   144    1
    49   143   140    1
    50   144   146   ar
    51   144   145   ar
    52    23    22    1
    53   140   141    1
    54   140   139    1
    55   146   148   ar
    56   145   147   ar
    57   142   141    2
    58    18    19    1
    59    94    95   ar
    60    94    92   ar
    61    79    78    1
    62   148   147   ar
    63    22    19    1
    64    22    24    1
    65    95    93   ar
    66   141   149   am
    67    19    20    1
    68    92    91   ar
    69    78    77   ar
    70    78    76   ar
    71   133   132   ar
    72    77    75   ar
    73   149   150    1
    74    21    20    2
    75    93    91   ar
    76   127   128    1
    77    20    26   am
    78   130   129    2
    79    91    90    1
    80   134   132   ar
    81   132   131    1
    82   150   151    1
    83   150   153    1
    84    76    74   ar
    85    75    73   ar
    86   151   152    2
    87   129   128    1
    88   129   135   am
    89   155   154    2
    90   128   131    1
    91    86    87    1
    92    26    27    1
    93   137   138    2
    94   137   136    1
    95   154   153    1
    96   154   156   am
    97    90    87    1
    98    74    73   ar
    99    87    88    1
   100   135   136    1
   101    73    72    1
   102    29    28    2
   103    68    69    1
   104    27    28    1
   105    27    30    1
   106    28    37   am
   107    69    72    1
   108    69    70    1
   109    88    89    2
   110    37    38    1
   111    38    41    1
   112    38    39    1
   113    30    31    1
   114    31    32    1
   115   103   101   ar
   116    44    39   am
   117    44    45    1
   118    41    42    1
   119    41    43    1
   120    39    40    2
   121    70    71    2
   122   112   110   ar
   123   112   114   ar
   124    48    45    1
   125    45    46    1
   126    32    33    1
   127   110   109   ar
   128   100   101    1
   129   100    97    1
   130   115   114    1
   131    33    34    2
   132   101   102   ar
   133   114   113   ar
   134    96    97    1
   135   109   108    1
   136   109   111   ar
   137    60    59    2
   138    97    98    1
   139   108   105    1
   140    34    36    1
   141    34    35    1
   142    46    49   am
   143    46    47    2
   144   113   111   ar
   145   126   124    1
   146    49    50    1
   147    85    84    1
   148    84    81    1
   149   105   104    1
   150   105   106    1
   151    59    61   am
   152    59    58    1
   153   124   123    2
   154   124   125    1
   155    80    81    1
   156    57    58    1
   157    57    54    1
   158    98    99    2
   159   123   122    1
   160    53    54    1
   161    53    51   am
   162    50    51    1
   163    81    82    1
   164   106   107    2
   165    67    66    1
   166    54    55    1
   167    51    52    2
   168   122   121    1
   169   121   120    1
   170    62    55   am
   171    62    63    1
   172    82    83    2
   173    66    63    1
   174    55    56    2
   175   116   117    1
   176    63    64    1
   177   120   117    1
   178   117   118    1
   179    64    65    2
   180   118   119    2
