@<TRIPOS>MOLECULE
tmp/3kp2A00.pdb
 111 102 0 0 0
SMALL
GASTEIGER

@<TRIPOS>ATOM
      1  N         16.3190  -27.2060    0.6060 N.3    14  ILE14      -0.1231
      2  CA        17.7170  -27.3920    0.2080 C.3    14  ILE14       0.1692
      3  C         17.9580  -28.7920   -0.3600 C.2    14  ILE14       0.2592
      4  O         18.6340  -28.9440   -1.3730 O.2    14  ILE14      -0.2718
      5  CB        18.6360  -27.1090    1.4090 C.3    14  ILE14       0.0266
      6  CG1       18.7680  -25.5990    1.5610 C.3    14  ILE14       0.0019
      7  CG2       19.9810  -27.7680    1.2400 C.3    14  ILE14       0.0020
      8  CD1       19.1370  -25.1120    2.9290 C.3    14  ILE14       0.0001
      9  N         17.3950  -29.8110    0.2870 N.am   15  ASN15      -0.1974
     10  CA        17.5250  -31.1760   -0.2180 C.3    15  ASN15       0.1688
     11  C         16.8530  -31.2840   -1.6150 C.2    15  ASN15       0.2292
     12  O         17.3740  -31.9160   -2.5310 O.2    15  ASN15      -0.2864
     13  CB        16.8760  -32.1740    0.7500 C.3    15  ASN15       0.1181
     14  CG        16.7670  -33.5700    0.1660 C.2    15  ASN15       0.2629
     15  OD1       17.7700  -34.2950    0.0450 O.2    15  ASN15      -0.2716
     16  ND2       15.5370  -33.9560   -0.2110 N.am   15  ASN15      -0.0877
     17  N         19.1490  -29.6850   -4.2320 N.3    18  ASN18      -0.1240
     18  CA        20.2890  -30.5370   -4.5100 C.3    18  ASN18       0.1653
     19  C         19.8890  -31.7660   -5.3420 C.2    18  ASN18       0.2266
     20  O         20.5780  -32.1490   -6.2870 O.2    18  ASN18      -0.2867
     21  CB        21.0040  -30.9040   -3.1940 C.3    18  ASN18       0.1155
     22  CG        21.8000  -29.7160   -2.6000 C.2    18  ASN18       0.2627
     23  OD1       22.1290  -28.7520   -3.3040 O.2    18  ASN18      -0.2716
     24  ND2       22.1270  -29.8020   -1.3090 N.am   18  ASN18      -0.0877
     25  N         19.2490  -30.5780   -9.0680 N.3    21  THR21      -0.1203
     26  CA        20.5350  -30.2780   -9.6590 C.3    21  THR21       0.1994
     27  C         21.2480  -31.5530  -10.1010 C.2    21  THR21       0.2617
     28  O         21.6750  -31.6450  -11.2400 O.2    21  THR21      -0.2717
     29  CB        21.3950  -29.5290   -8.6410 C.3    21  THR21       0.1784
     30  OG1       20.7120  -28.3230   -8.2690 O.3    21  THR21      -0.2211
     31  CG2       22.7680  -29.2030   -9.2060 C.3    21  THR21       0.0376
     32  N         21.3490  -32.5270   -9.1960 N.am   22  ALA22      -0.1979
     33  CA        22.0040  -33.8010   -9.4700 C.3    22  ALA22       0.1597
     34  C         21.4080  -34.5140  -10.6830 C.2    22  ALA22       0.2287
     35  O         22.1270  -35.0290  -11.5290 O.2    22  ALA22      -0.2864
     36  CB        21.9110  -34.6810   -8.2690 C.3    22  ALA22       0.0319
     37  N         22.1570  -32.3800  -13.8550 N.3    25  LEU25      -0.1245
     38  CA        23.5420  -32.3990  -14.2950 C.3    25  LEU25       0.1561
     39  C         24.2390  -33.7610  -14.4230 C.2    25  LEU25       0.2260
     40  O         25.4140  -33.8130  -14.7560 O.2    25  LEU25      -0.2867
     41  CB        24.3720  -31.5100  -13.3710 C.3    25  LEU25       0.0270
     42  CG        23.8510  -30.1120  -13.1080 C.3    25  LEU25       0.0019
     43  CD1       24.7290  -29.4270  -12.0630 C.3    25  LEU25       0.0001
     44  CD2       23.8280  -29.3420  -14.3920 C.3    25  LEU25       0.0001
     45  N         28.0870  -34.2220  -16.0630 N.3    29  GLN29      -0.1245
     46  CA        29.1320  -34.7470  -15.1800 C.3    29  GLN29       0.1566
     47  C         29.8040  -36.0020  -15.7770 C.2    29  GLN29       0.2260
     48  O         31.0430  -36.1370  -15.7820 O.2    29  GLN29      -0.2867
     49  CB        28.5270  -35.0520  -13.8110 C.3    29  GLN29       0.0367
     50  CG        28.1450  -33.8230  -13.0560 C.3    29  GLN29       0.0905
     51  CD        27.4000  -34.1040  -11.7650 C.2    29  GLN29       0.2608
     52  OE1       27.0800  -35.2450  -11.4580 O.2    29  GLN29      -0.2717
     53  NE2       27.1080  -33.0520  -11.0050 N.am   29  GLN29      -0.0878
     54  N         29.3290  -36.1720   -8.7570 N.3    36  ALA36      -0.1231
     55  CA        28.5950  -35.0440   -8.2200 C.3    36  ALA36       0.1694
     56  C         29.4750  -34.2400   -7.2750 C.2    36  ALA36       0.2591
     57  O         29.5910  -33.0430   -7.4330 O.2    36  ALA36      -0.2718
     58  CB        27.3580  -35.5300   -7.4830 C.3    36  ALA36       0.0304
     59  N         30.0840  -34.9070   -6.2970 N.am   37  GLU37      -0.1979
     60  CA        30.9550  -34.2340   -5.3250 C.3    37  GLU37       0.1602
     61  C         32.1220  -33.5200   -5.9780 C.2    37  GLU37       0.2287
     62  O         32.5310  -32.4650   -5.5260 O.2    37  GLU37      -0.2864
     63  CB        31.4830  -35.2190   -4.2630 C.3    37  GLU37       0.0415
     64  CG        31.5620  -36.6620   -4.6870 C.3    37  GLU37       0.1163
     65  CD        30.1970  -37.2780   -4.8130 C.2    37  GLU37       0.3649
     66  OE1       29.8410  -37.7000   -5.9370 O.co2  37  GLU37      -0.2457
     67  OE2       29.4850  -37.3260   -3.7830 O.co2  37  GLU37      -0.2457
     68  N         32.0470  -32.2580   -8.9520 N.3    39  SER39      -0.1202
     69  CA        31.4020  -31.1270   -9.5970 C.3    39  SER39       0.2020
     70  C         31.1080  -30.0580   -8.5520 C.2    39  SER39       0.2618
     71  O         31.0500  -28.8660   -8.8560 O.2    39  SER39      -0.2717
     72  CB        30.1060  -31.5730  -10.2760 C.3    39  SER39       0.2103
     73  OG        29.3690  -30.4660  -10.7650 O.3    39  SER39      -0.2182
     74  N         30.9250  -30.4860   -7.3120 N.am   40  HIS40      -0.1975
     75  CA        30.6550  -29.5210   -6.2650 C.3    40  HIS40       0.1656
     76  C         31.8950  -28.6800   -5.9780 C.2    40  HIS40       0.2291
     77  O         31.8280  -27.4540   -5.9150 O.2    40  HIS40      -0.2864
     78  CB        30.2250  -30.2020   -4.9770 C.3    40  HIS40       0.0771
     79  CG        29.7140  -29.2380   -3.9650 C.ar   40  HIS40       0.0820
     80  ND1       30.0930  -29.2720   -2.6430 N.ar   40  HIS40      -0.2267
     81  CD2       28.9460  -28.1310   -4.1120 C.ar   40  HIS40       0.1154
     82  CE1       29.5910  -28.2220   -2.0190 C.ar   40  HIS40       0.1986
     83  NE2       28.8890  -27.5140   -2.8880 N.ar   40  HIS40      -0.2212
     84  N         32.1520  -26.0790   -8.5670 N.3    43  ASN43      -0.1240
     85  CA        31.2950  -24.9040   -8.4990 C.3    43  ASN43       0.1653
     86  C         31.8690  -23.9360   -7.4540 C.2    43  ASN43       0.2266
     87  O         31.8960  -22.7290   -7.6600 O.2    43  ASN43      -0.2867
     88  CB        29.8630  -25.3070   -8.1300 C.3    43  ASN43       0.1155
     89  CG        28.8360  -24.3000   -8.6190 C.2    43  ASN43       0.2627
     90  OD1       27.6970  -24.2660   -8.1430 O.2    43  ASN43      -0.2716
     91  ND2       29.2330  -23.4780   -9.5810 N.am   43  ASN43      -0.0877
     92  N         33.1080  -27.4500    3.3960 N.3    59  GLN59      -0.1245
     93  CA        32.1720  -28.5630    3.2760 C.3    59  GLN59       0.1566
     94  C         32.0700  -29.3180    4.5880 C.2    59  GLN59       0.2260
     95  O         31.1070  -30.0410    4.8180 O.2    59  GLN59      -0.2867
     96  CB        32.6240  -29.5220    2.1700 C.3    59  GLN59       0.0367
     97  CG        32.1210  -29.1780    0.7740 C.3    59  GLN59       0.0905
     98  CD        32.7430  -30.0540   -0.2990 C.2    59  GLN59       0.2608
     99  OE1       32.3580  -30.0060   -1.4590 O.2    59  GLN59      -0.2717
    100  NE2       33.7200  -30.8530    0.0890 N.am   59  GLN59      -0.0878
    101  N         27.0610  -25.7400  -17.0250 N.3    96  ARG96      -0.1245
    102  CA        26.2280  -25.9870  -15.8670 C.3    96  ARG96       0.1563
    103  C         25.3250  -24.7790  -15.5700 C.2    96  ARG96       0.2260
    104  O         24.1870  -24.9630  -15.1780 O.2    96  ARG96      -0.2867
    105  CB        27.1390  -26.3080  -14.6780 C.3    96  ARG96       0.0307
    106  CG        26.4290  -26.5730  -13.3890 C.3    96  ARG96       0.0489
    107  CD        27.4110  -26.4730  -12.2540 C.3    96  ARG96       0.2205
    108  NE        26.7790  -26.6380  -10.9440 N.pl3  96  ARG96      -0.0865
    109  CZ        25.9910  -25.7470  -10.3490 C.cat  96  ARG96       0.5346
    110  NH1       25.7130  -24.5950  -10.9340 N.pl3  96  ARG96       0.1354
    111  NH2       25.4910  -26.0060   -9.1500 N.pl3  96  ARG96       0.1354
@<TRIPOS>BOND
     1   101   102    1
     2    45    46    1
     3   102   103    1
     4   102   105    1
     5    48    47    2
     6    47    46    1
     7   103   104    2
     8    46    49    1
     9    40    39    2
    10   105   106    1
    11    39    38    1
    12    44    42    1
    13    38    37    1
    14    38    41    1
    15    49    50    1
    16   106   107    1
    17    41    42    1
    18    42    43    1
    19    50    51    1
    20   107   108    1
    21    51    52    2
    22    51    53   am
    23    35    34    2
    24    28    27    2
    25   108   109    2
    26   110   109    1
    27    73    72    1
    28    34    33    1
    29   109   111    1
    30    72    69    1
    31    27    26    1
    32    27    32   am
    33    26    25    1
    34    26    29    1
    35    69    68    1
    36    69    70    1
    37    91    89   am
    38    33    32    1
    39    33    36    1
    40    31    29    1
    41    71    70    2
    42    54    55    1
    43    29    30    1
    44    89    90    2
    45    89    88    1
    46    84    85    1
    47    70    74   am
    48    85    88    1
    49    85    86    1
    50    55    58    1
    51    55    56    1
    52    87    86    2
    53    57    56    2
    54    74    75    1
    55    56    59   am
    56    59    60    1
    57    20    19    2
    58    75    76    1
    59    75    78    1
    60    76    77    2
    61    61    62    2
    62    61    60    1
    63    66    65   ar
    64    19    18    1
    65    60    63    1
    66    78    79    1
    67    65    64    1
    68    65    67   ar
    69    64    63    1
    70    18    17    1
    71    18    21    1
    72    81    79   ar
    73    81    83   ar
    74    79    80   ar
    75    23    22    2
    76    21    22    1
    77    83    82   ar
    78    80    82   ar
    79    22    24   am
    80    12    11    2
    81    11    10    1
    82    99    98    2
    83     4     3    2
    84     3     2    1
    85     3     9   am
    86    98   100   am
    87    98    97    1
    88    10     9    1
    89    10    13    1
    90    16    14   am
    91    15    14    2
    92    14    13    1
    93     2     1    1
    94     2     5    1
    95    97    96    1
    96     7     5    1
    97     5     6    1
    98     6     8    1
    99    96    93    1
   100    93    92    1
   101    93    94    1
   102    94    95    2
