@<TRIPOS>MOLECULE
tmp/3kp4A00.pdb
 113 103 0 0 0
SMALL
GASTEIGER

@<TRIPOS>ATOM
      1  N        -18.3540  -29.6770    3.7760 N.3    18  ASN18      -0.1240
      2  CA       -19.4390  -30.5780    4.0960 C.3    18  ASN18       0.1653
      3  C        -18.9150  -31.6670    5.0270 C.2    18  ASN18       0.2266
      4  O        -19.4940  -31.9200    6.0900 O.2    18  ASN18      -0.2867
      5  CB       -20.0120  -31.1880    2.8110 C.3    18  ASN18       0.1155
      6  CG       -20.8650  -30.2000    2.0130 C.2    18  ASN18       0.2627
      7  OD1      -21.4120  -29.2440    2.5590 O.2    18  ASN18      -0.2716
      8  ND2      -20.9940  -30.4480    0.7200 N.am   18  ASN18      -0.0877
      9  N        -18.3540  -30.4080    8.6150 N.3    21  THR21      -0.1203
     10  CA       -19.5740  -30.1370    9.3630 C.3    21  THR21       0.1994
     11  C        -20.2070  -31.4270    9.8510 C.2    21  THR21       0.2617
     12  O        -20.7030  -31.4980   10.9710 O.2    21  THR21      -0.2717
     13  CB       -20.5980  -29.3720    8.5100 C.3    21  THR21       0.1784
     14  OG1      -19.9240  -28.3910    7.7140 O.3    21  THR21      -0.2211
     15  CG2      -21.5850  -28.6520    9.4000 C.3    21  THR21       0.0376
     16  N        -20.1680  -32.4480    8.9980 N.am   22  ALA22      -0.1979
     17  CA       -20.7260  -33.7620    9.3080 C.3    22  ALA22       0.1597
     18  C        -20.0670  -34.3800   10.5330 C.2    22  ALA22       0.2287
     19  O        -20.7550  -34.8980   11.4130 O.2    22  ALA22      -0.2864
     20  CB       -20.5870  -34.6890    8.1070 C.3    22  ALA22       0.0319
     21  N        -20.9600  -32.0570   13.6690 N.3    25  LEU25      -0.1245
     22  CA       -22.3190  -31.9550   14.1640 C.3    25  LEU25       0.1561
     23  C        -22.9560  -33.2970   14.5030 C.2    25  LEU25       0.2260
     24  O        -24.0590  -33.3510   15.0510 O.2    25  LEU25      -0.2867
     25  CB       -23.1760  -31.1810   13.1510 C.3    25  LEU25       0.0270
     26  CG       -22.8930  -29.6730   13.0160 C.3    25  LEU25       0.0019
     27  CD1      -23.7700  -29.1100   11.9330 C.3    25  LEU25       0.0001
     28  CD2      -23.1610  -28.9390   14.3290 C.3    25  LEU25       0.0001
     29  N        -26.2270  -33.8410   16.6460 N.3    29  GLN29      -0.1245
     30  CA       -27.3980  -34.3170   15.9400 C.3    29  GLN29       0.1566
     31  C        -27.9090  -35.5310   16.6810 C.2    29  GLN29       0.2260
     32  O        -29.1130  -35.7060   16.8680 O.2    29  GLN29      -0.2867
     33  CB       -27.0200  -34.6930   14.5190 C.3    29  GLN29       0.0367
     34  CG       -26.8070  -33.4980   13.6450 C.3    29  GLN29       0.0905
     35  CD       -25.8090  -33.7430   12.5420 C.2    29  GLN29       0.2608
     36  OE1      -25.2150  -34.8110   12.4500 O.2    29  GLN29      -0.2717
     37  NE2      -25.6110  -32.7390   11.6960 N.am   29  GLN29      -0.0878
     38  N        -28.5110  -36.1740    9.6490 N.3    36  ALA36      -0.1231
     39  CA       -27.9080  -34.9680    9.0860 C.3    36  ALA36       0.1694
     40  C        -28.8810  -34.3010    8.1100 C.2    36  ALA36       0.2591
     41  O        -29.0900  -33.0890    8.1540 O.2    36  ALA36      -0.2718
     42  CB       -26.6010  -35.3110    8.3770 C.3    36  ALA36       0.0304
     43  N        -29.4700  -35.0990    7.2260 N.am   37  GLU37      -0.1979
     44  CA       -30.4160  -34.5760    6.2620 C.3    37  GLU37       0.1602
     45  C        -31.5390  -33.8400    6.9850 C.2    37  GLU37       0.2287
     46  O        -32.0430  -32.8350    6.4910 O.2    37  GLU37      -0.2864
     47  CB       -30.9880  -35.7070    5.3890 C.3    37  GLU37       0.0415
     48  CG       -31.1760  -37.0400    6.0970 C.3    37  GLU37       0.1163
     49  CD       -29.8830  -37.8320    6.2080 C.2    37  GLU37       0.3649
     50  OE1      -29.8920  -38.9200    6.8240 O.co2  37  GLU37      -0.2457
     51  OE2      -28.8530  -37.3700    5.6760 O.co2  37  GLU37      -0.2457
     52  N        -31.1710  -32.2910    9.6260 N.3    39  SER39      -0.1202
     53  CA       -30.5290  -31.0740   10.1000 C.3    39  SER39       0.2020
     54  C        -30.5740  -30.0470    8.9780 C.2    39  SER39       0.2618
     55  O        -30.9350  -28.8920    9.2090 O.2    39  SER39      -0.2717
     56  CB       -29.0760  -31.3680   10.5100 C.3    39  SER39       0.2103
     57  OG       -28.4060  -30.2190   10.9940 O.3    39  SER39      -0.2182
     58  N        -30.2260  -30.4690    7.7620 N.am   40  HIS40      -0.1975
     59  CA       -30.2430  -29.5580    6.6290 C.3    40  HIS40       0.1656
     60  C        -31.5740  -28.8390    6.5800 C.2    40  HIS40       0.2291
     61  O        -31.6340  -27.6350    6.3520 O.2    40  HIS40      -0.2864
     62  CB       -30.0650  -30.2980    5.3180 C.3    40  HIS40       0.0771
     63  CG       -29.4010  -29.4750    4.2610 C.ar   40  HIS40       0.0820
     64  ND1      -30.0310  -29.1090    3.0910 N.ar   40  HIS40      -0.2267
     65  CD2      -28.1650  -28.9210    4.2110 C.ar   40  HIS40       0.1154
     66  CE1      -29.2110  -28.3660    2.3660 C.ar   40  HIS40       0.1986
     67  NE2      -28.0720  -28.2370    3.0230 N.ar   40  HIS40      -0.2212
     68  N        -31.6430  -26.2680    9.0680 N.3    43  ASN43      -0.1240
     69  CA       -30.6980  -25.2280    8.6500 C.3    43  ASN43       0.1653
     70  C        -31.2990  -24.3580    7.5520 C.2    43  ASN43       0.2266
     71  O        -31.1750  -23.1330    7.5750 O.2    43  ASN43      -0.2867
     72  CB       -29.3980  -25.8660    8.1470 C.3    43  ASN43       0.1155
     73  CG       -28.2690  -24.8540    7.9970 C.2    43  ASN43       0.2627
     74  OD1      -27.6140  -24.7810    6.9460 O.2    43  ASN43      -0.2716
     75  ND2      -28.0260  -24.0700    9.0530 N.am   43  ASN43      -0.0877
     76  N        -32.7000  -28.5300   -3.2290 N.3    59  GLN59      -0.1245
     77  CA       -31.5520  -29.4220   -3.3530 C.3    59  GLN59       0.1566
     78  C        -32.0520  -30.6910   -4.0290 C.2    59  GLN59       0.2260
     79  O        -31.5620  -31.7930   -3.7760 O.2    59  GLN59      -0.2867
     80  CB       -30.9750  -29.7500   -1.9750 C.3    59  GLN59       0.0367
     81  CG       -30.5250  -28.5270   -1.1890 C.3    59  GLN59       0.0905
     82  CD       -29.3940  -27.7750   -1.8640 C.2    59  GLN59       0.2608
     83  OE1      -29.0770  -28.0160   -3.0290 O.2    59  GLN59      -0.2717
     84  NE2      -28.7850  -26.8480   -1.1340 N.am   59  GLN59      -0.0878
     85  N        -34.1460  -33.5120   -4.2790 N.3    61  VAL61      -0.1245
     86  CA       -34.0180  -34.9110   -3.8950 C.3    61  VAL61       0.1561
     87  C        -35.3780  -35.5440   -4.2040 C.2    61  VAL61       0.2260
     88  O        -36.2970  -34.8500   -4.6420 O.2    61  VAL61      -0.2867
     89  CB       -33.6760  -35.0670   -2.3890 C.3    61  VAL61       0.0252
     90  CG1      -33.0970  -36.4570   -2.1230 C.3    61  VAL61       0.0019
     91  CG2      -32.6870  -33.9880   -1.9650 C.3    61  VAL61       0.0019
     92  N        -38.9340  -36.7010    6.1690 N.3    69  ARG69      -0.1245
     93  CA       -37.9920  -35.9200    6.9750 C.3    69  ARG69       0.1563
     94  C        -38.7280  -34.7610    7.6480 C.2    69  ARG69       0.2260
     95  O        -38.4110  -34.3700    8.7700 O.2    69  ARG69      -0.2867
     96  CB       -36.8840  -35.3520    6.0790 C.3    69  ARG69       0.0307
     97  CG       -36.0930  -36.3900    5.3010 C.3    69  ARG69       0.0489
     98  CD       -34.8590  -36.8060    6.0610 C.3    69  ARG69       0.2205
     99  NE       -34.3210  -38.0730    5.5780 N.pl3  69  ARG69      -0.0865
    100  CZ       -33.8230  -38.2690    4.3640 C.cat  69  ARG69       0.5346
    101  NH1      -33.7880  -37.2740    3.4930 N.pl3  69  ARG69       0.1354
    102  NH2      -33.3580  -39.4640    4.0250 N.pl3  69  ARG69       0.1354
    103  N        -25.4880  -25.2870   17.1670 N.3    98  ARG98      -0.1245
    104  CA       -24.8380  -25.5990   15.8950 C.3    98  ARG98       0.1563
    105  C        -23.9010  -24.4880   15.4420 C.2    98  ARG98       0.2260
    106  O        -22.7430  -24.7460   15.1020 O.2    98  ARG98      -0.2867
    107  CB       -25.8800  -25.8560   14.8010 C.3    98  ARG98       0.0307
    108  CG       -25.2810  -26.1330   13.4260 C.3    98  ARG98       0.0489
    109  CD       -26.3310  -26.2030   12.3380 C.3    98  ARG98       0.2205
    110  NE       -25.7340  -26.4810   11.0380 N.pl3  98  ARG98      -0.0865
    111  CZ       -24.8800  -25.6770   10.4050 C.cat  98  ARG98       0.5346
    112  NH1      -24.5100  -24.5190   10.9410 N.pl3  98  ARG98       0.1354
    113  NH2      -24.3670  -26.0470    9.2390 N.pl3  98  ARG98       0.1354
@<TRIPOS>BOND
     1    88    87    2
     2    85    86    1
     3    87    86    1
     4    78    79    2
     5    78    77    1
     6    86    89    1
     7    77    76    1
     8    77    80    1
     9    83    82    2
    10    89    90    1
    11    89    91    1
    12    80    81    1
    13    82    81    1
    14    82    84   am
    15     8     6   am
    16     6     7    2
    17     6     5    1
    18    66    67   ar
    19    66    64   ar
    20     5     2    1
    21    67    65   ar
    22    64    63   ar
    23   101   100    1
    24     1     2    1
    25   102   100    1
    26     2     3    1
    27    65    63   ar
    28    63    62    1
    29   100    99    2
    30     3     4    2
    31    97    98    1
    32    97    96    1
    33    62    59    1
    34    47    48    1
    35    47    44    1
    36    99    98    1
    37    51    49   ar
    38    96    93    1
    39    48    49    1
    40    92    93    1
    41    49    50   ar
    42    44    45    1
    43    44    43    1
    44    61    60    2
    45    46    45    2
    46    60    59    1
    47    59    58    1
    48    74    73    2
    49    93    94    1
    50    43    40   am
    51    70    71    2
    52    70    69    1
    53    94    95    2
    54    14    13    1
    55    58    54   am
    56    73    72    1
    57    73    75   am
    58    20    17    1
    59    40    41    2
    60    40    39    1
    61    72    69    1
    62    42    39    1
    63    13    10    1
    64    13    15    1
    65     9    10    1
    66    69    68    1
    67    54    55    2
    68    54    53    1
    69    16    17    1
    70    16    11   am
    71    39    38    1
    72   113   111    1
    73    17    18    1
    74    10    11    1
    75    52    53    1
    76    11    12    2
    77    53    56    1
    78   111   112    1
    79   111   110    2
    80    56    57    1
    81    18    19    2
    82   110   109    1
    83    37    35   am
    84    27    26    1
    85   109   108    1
    86    36    35    2
    87    35    34    1
    88    26    25    1
    89    26    28    1
    90    25    22    1
    91   108   107    1
    92    34    33    1
    93    21    22    1
    94    22    23    1
    95    23    24    2
    96    33    30    1
    97   107   104    1
    98   106   105    2
    99   105   104    1
   100   104   103    1
   101    30    29    1
   102    30    31    1
   103    31    32    2
