@<TRIPOS>MOLECULE
tmp/3kp5A00.pdb
 135 125 0 0 0
SMALL
GASTEIGER

@<TRIPOS>ATOM
      1  N        -15.8860  -28.8430    2.6830 N.3    16  VAL16      -0.1231
      2  CA       -16.7190  -28.0980    3.6120 C.3    16  VAL16       0.1692
      3  C        -17.9030  -28.9790    4.0220 C.2    16  VAL16       0.2592
      4  O        -18.3200  -29.0130    5.1820 O.2    16  VAL16      -0.2718
      5  CB       -17.2460  -26.8220    2.9730 C.3    16  VAL16       0.0266
      6  CG1      -18.4750  -26.3370    3.7120 C.3    16  VAL16       0.0020
      7  CG2      -16.1780  -25.7840    3.0070 C.3    16  VAL16       0.0020
      8  N        -18.4400  -29.7040    3.0560 N.am   17  ASN17      -0.1974
      9  CA       -19.5420  -30.5730    3.3400 C.3    17  ASN17       0.1688
     10  C        -19.0800  -31.6910    4.2290 C.2    17  ASN17       0.2292
     11  O        -19.7680  -32.0520    5.1850 O.2    17  ASN17      -0.2864
     12  CB       -20.1250  -31.1180    2.0510 C.3    17  ASN17       0.1181
     13  CG       -21.0600  -30.1360    1.4040 C.2    17  ASN17       0.2629
     14  OD1      -21.5620  -29.2220    2.0610 O.2    17  ASN17      -0.2716
     15  ND2      -21.3170  -30.3240    0.1190 N.am   17  ASN17      -0.0877
     16  N        -18.6820  -30.2860    7.8900 N.3    20  THR20      -0.1203
     17  CA       -19.8620  -29.9610    8.6610 C.3    20  THR20       0.1994
     18  C        -20.5480  -31.2440    9.0650 C.2    20  THR20       0.2617
     19  O        -21.2610  -31.2940   10.0750 O.2    20  THR20      -0.2717
     20  CB       -20.8200  -29.1350    7.8560 C.3    20  THR20       0.1784
     21  OG1      -20.0870  -28.1370    7.1370 O.3    20  THR20      -0.2211
     22  CG2      -21.8210  -28.4700    8.7790 C.3    20  THR20       0.0376
     23  N        -20.3160  -32.2680    8.2450 N.am   21  ALA21      -0.1979
     24  CA       -20.8740  -33.5950    8.4320 C.3    21  ALA21       0.1597
     25  C        -20.3260  -34.2550    9.6890 C.2    21  ALA21       0.2287
     26  O        -21.0570  -34.9230   10.4250 O.2    21  ALA21      -0.2864
     27  CB       -20.5700  -34.4450    7.2250 C.3    21  ALA21       0.0319
     28  N        -21.1650  -32.1720   13.1250 N.3    24  LEU24      -0.1245
     29  CA       -22.5510  -32.1270   13.5240 C.3    24  LEU24       0.1561
     30  C        -23.2020  -33.4820   13.7800 C.2    24  LEU24       0.2260
     31  O        -24.3550  -33.5320   14.1940 O.2    24  LEU24      -0.2867
     32  CB       -23.3510  -31.3390   12.4920 C.3    24  LEU24       0.0270
     33  CG       -22.9470  -29.8800   12.2380 C.3    24  LEU24       0.0019
     34  CD1      -24.0850  -29.2380   11.4800 C.3    24  LEU24       0.0001
     35  CD2      -22.7120  -29.0990   13.5280 C.3    24  LEU24       0.0001
     36  N        -26.7830  -34.0080   15.7160 N.3    28  GLN28      -0.1245
     37  CA       -27.9920  -34.4570   15.0460 C.3    28  GLN28       0.1566
     38  C        -28.4400  -35.7510   15.7190 C.2    28  GLN28       0.2260
     39  O        -29.6360  -36.0280   15.8720 O.2    28  GLN28      -0.2867
     40  CB       -27.6980  -34.6850   13.5670 C.3    28  GLN28       0.0367
     41  CG       -27.0450  -33.5010   12.9020 C.3    28  GLN28       0.0905
     42  CD       -26.4170  -33.8750   11.5930 C.2    28  GLN28       0.2608
     43  OE1      -25.9130  -34.9840   11.4420 O.2    28  GLN28      -0.2717
     44  NE2      -26.4230  -32.9530   10.6390 N.am   28  GLN28      -0.0878
     45  N        -29.1270  -36.2270    8.8830 N.3    35  ALA35      -0.1231
     46  CA       -28.4230  -35.0890    8.2910 C.3    35  ALA35       0.1694
     47  C        -29.3590  -34.3200    7.3520 C.2    35  ALA35       0.2591
     48  O        -29.4180  -33.0910    7.3640 O.2    35  ALA35      -0.2718
     49  CB       -27.1970  -35.5900    7.5220 C.3    35  ALA35       0.0304
     50  N        -30.0900  -35.0600    6.5350 N.am   36  GLU36      -0.1979
     51  CA       -31.0170  -34.4580    5.6030 C.3    36  GLU36       0.1602
     52  C        -32.0250  -33.6600    6.3820 C.2    36  GLU36       0.2287
     53  O        -32.4560  -32.6030    5.9380 O.2    36  GLU36      -0.2864
     54  CB       -31.7300  -35.5310    4.7920 C.3    36  GLU36       0.0415
     55  CG       -31.6200  -36.9160    5.3910 C.3    36  GLU36       0.1163
     56  CD       -30.2230  -37.4930    5.2420 C.2    36  GLU36       0.3649
     57  OE1      -29.5240  -37.6570    6.2660 O.co2  36  GLU36      -0.2457
     58  OE2      -29.8210  -37.7730    4.0910 O.co2  36  GLU36      -0.2457
     59  N        -31.4600  -32.2360    9.2000 N.3    38  SER38      -0.1202
     60  CA       -30.7650  -31.0480    9.6720 C.3    38  SER38       0.2020
     61  C        -30.8020  -29.9820    8.6000 C.2    38  SER38       0.2619
     62  O        -31.2550  -28.8650    8.8380 O.2    38  SER38      -0.2717
     63  CB       -29.3060  -31.3550   10.0020 C.3    38  SER38       0.2103
     64  OG       -28.5810  -30.1600   10.2610 O.3    38  SER38      -0.2182
     65  N        -30.3200  -30.3270    7.4130 N.am   39  HIS39      -0.1961
     66  CA       -30.2890  -29.3660    6.3280 C.3    39  HIS39       0.1787
     67  C        -31.6340  -28.6810    6.1710 C.2    39  HIS39       0.2620
     68  O        -31.6930  -27.4730    5.9470 O.2    39  HIS39      -0.2715
     69  CB       -29.8910  -30.0390    5.0170 C.3    39  HIS39       0.0785
     70  CG       -29.6810  -29.0750    3.8900 C.ar   39  HIS39       0.0821
     71  ND1      -28.5100  -29.0180    3.1640 N.ar   39  HIS39      -0.2267
     72  CD2      -30.4730  -28.0900    3.4010 C.ar   39  HIS39       0.1154
     73  CE1      -28.5850  -28.0370    2.2830 C.ar   39  HIS39       0.1986
     74  NE2      -29.7660  -27.4570    2.4070 N.ar   39  HIS39      -0.2212
     75  N        -32.7070  -29.4530    6.3010 N.am   40  VAL40      -0.1977
     76  CA       -34.0560  -28.9210    6.1660 C.3    40  VAL40       0.1596
     77  C        -34.3420  -27.8530    7.2140 C.2    40  VAL40       0.2287
     78  O        -35.0600  -26.8870    6.9500 O.2    40  VAL40      -0.2864
     79  CB       -35.1130  -30.0530    6.2520 C.3    40  VAL40       0.0276
     80  CG1      -36.5180  -29.4670    6.3330 C.3    40  VAL40       0.0022
     81  CG2      -35.0120  -30.9320    5.0160 C.3    40  VAL40       0.0022
     82  N        -32.0490  -25.9160    8.4770 N.3    42  ASN42      -0.1225
     83  CA       -31.1880  -24.7770    8.2140 C.3    42  ASN42       0.1785
     84  C        -31.6880  -23.7650    7.1750 C.2    42  ASN42       0.2597
     85  O        -31.3300  -22.5890    7.2360 O.2    42  ASN42      -0.2718
     86  CB       -29.7880  -25.2620    7.8500 C.3    42  ASN42       0.1169
     87  CG       -28.7100  -24.3130    8.3360 C.2    42  ASN42       0.2627
     88  OD1      -27.5570  -24.4170    7.9360 O.2    42  ASN42      -0.2716
     89  ND2      -29.0830  -23.3850    9.2110 N.am   42  ASN42      -0.0877
     90  N        -32.5060  -24.2050    6.2260 N.am   43  MET43      -0.1979
     91  CA       -33.0450  -23.2910    5.2190 C.3    43  MET43       0.1605
     92  C        -34.1820  -22.5190    5.8840 C.2    43  MET43       0.2287
     93  O        -34.4400  -21.3590    5.5760 O.2    43  MET43      -0.2864
     94  CB       -33.5920  -24.0770    4.0270 C.3    43  MET43       0.0413
     95  CG       -33.1500  -25.5140    3.9950 C.3    43  MET43       0.0598
     96  SD       -33.5620  -26.2290    2.4350 S.3    43  MET43      -0.1393
     97  CE       -32.1600  -25.7180    1.4820 C.3    43  MET43       0.0692
     98  N        -33.6740  -27.9640   -3.2410 N.3    58  GLN58      -0.1245
     99  CA       -32.9640  -29.2170   -3.0260 C.3    58  GLN58       0.1566
    100  C        -32.5310  -29.8840   -4.3250 C.2    58  GLN58       0.2260
    101  O        -31.4200  -29.6740   -4.8070 O.2    58  GLN58      -0.2867
    102  CB       -33.8620  -30.1780   -2.2470 C.3    58  GLN58       0.0367
    103  CG       -34.2000  -29.7180   -0.8410 C.3    58  GLN58       0.0905
    104  CD       -33.2230  -30.2420    0.1870 C.2    58  GLN58       0.2608
    105  OE1      -33.0980  -31.4520    0.3780 O.2    58  GLN58      -0.2717
    106  NE2      -32.5270  -29.3360    0.8570 N.am   58  GLN58      -0.0878
    107  N        -33.6890  -33.2850   -4.6560 N.3    60  VAL60      -0.1245
    108  CA       -34.1120  -34.6460   -4.3510 C.3    60  VAL60       0.1561
    109  C        -35.5770  -34.6180   -4.7550 C.2    60  VAL60       0.2260
    110  O        -36.3580  -33.8400   -4.2140 O.2    60  VAL60      -0.2867
    111  CB       -33.9600  -34.9600   -2.8430 C.3    60  VAL60       0.0252
    112  CG1      -34.2430  -36.4340   -2.5870 C.3    60  VAL60       0.0019
    113  CG2      -32.5460  -34.6030   -2.3780 C.3    60  VAL60       0.0019
    114  N        -39.5090  -35.6560    4.9660 N.3    68  ARG68      -0.1245
    115  CA       -38.5570  -35.1440    5.9490 C.3    68  ARG68       0.1563
    116  C        -39.2810  -34.1180    6.8130 C.2    68  ARG68       0.2260
    117  O        -39.0490  -34.0190    8.0170 O.2    68  ARG68      -0.2867
    118  CB       -37.3600  -34.4800    5.2490 C.3    68  ARG68       0.0307
    119  CG       -36.0210  -35.2010    5.4260 C.3    68  ARG68       0.0489
    120  CD       -36.2110  -36.6930    5.2820 C.3    68  ARG68       0.2205
    121  NE       -35.0400  -37.4150    4.8080 N.pl3  68  ARG68      -0.0865
    122  CZ       -34.3710  -37.1140    3.7020 C.cat  68  ARG68       0.5346
    123  NH1      -34.7380  -36.0860    2.9470 N.pl3  68  ARG68       0.1354
    124  NH2      -33.3800  -37.8970    3.3090 N.pl3  68  ARG68       0.1354
    125  N        -25.9370  -25.3650   16.4350 N.3    95  ARG95      -0.1245
    126  CA       -25.2460  -25.6180   15.1740 C.3    95  ARG95       0.1563
    127  C        -24.2900  -24.4650   14.8550 C.2    95  ARG95       0.2260
    128  O        -23.1040  -24.6800   14.5970 O.2    95  ARG95      -0.2867
    129  CB       -26.2410  -25.7840   14.0140 C.3    95  ARG95       0.0307
    130  CG       -25.5670  -26.0570   12.6810 C.3    95  ARG95       0.0489
    131  CD       -26.5610  -26.2150   11.5570 C.3    95  ARG95       0.2205
    132  NE       -25.8960  -26.4760   10.2790 N.pl3  95  ARG95      -0.0865
    133  CZ       -25.1980  -25.5710    9.5960 C.cat  95  ARG95       0.5346
    134  NH1      -25.0720  -24.3350   10.0590 N.pl3  95  ARG95       0.1354
    135  NH2      -24.6120  -25.9080    8.4530 N.pl3  95  ARG95       0.1354
@<TRIPOS>BOND
     1   101   100    2
     2   109   108    1
     3   109   110    2
     4   107   108    1
     5   108   111    1
     6   100    99    1
     7    98    99    1
     8    99   102    1
     9   111   112    1
    10   111   113    1
    11   102   103    1
    12   103   104    1
    13    15    13   am
    14   104   105    2
    15   104   106   am
    16    13    12    1
    17    13    14    2
    18    97    96    1
    19    12     9    1
    20    73    74   ar
    21    73    71   ar
    22    74    72   ar
    23    96    95    1
    24     1     2    1
    25   123   122    1
    26     5     7    1
    27     5     2    1
    28     5     6    1
    29     8     9    1
    30     8     3   am
    31    71    70   ar
    32   124   122    1
    33     9    10    1
    34    72    70   ar
    35     2     3    1
    36   122   121    2
    37    70    69    1
    38    95    94    1
    39     3     4    2
    40    94    91    1
    41    58    56   ar
    42    10    11    2
    43    54    55    1
    44    54    51    1
    45   121   120    1
    46   114   115    1
    47    81    79    1
    48    69    66    1
    49    91    92    1
    50    91    90    1
    51    56    55    1
    52    56    57   ar
    53   118   119    1
    54   118   115    1
    55   120   119    1
    56    93    92    2
    57    51    52    1
    58    51    50    1
    59    53    52    2
    60    68    67    2
    61   115   116    1
    62    76    79    1
    63    76    75    1
    64    76    77    1
    65    67    75   am
    66    67    66    1
    67    90    84   am
    68    79    80    1
    69    66    65    1
    70    50    47   am
    71   116   117    2
    72    78    77    2
    73    21    20    1
    74    84    85    2
    75    84    83    1
    76    27    24    1
    77    47    48    2
    78    47    46    1
    79    65    61   am
    80    49    46    1
    81    86    83    1
    82    86    87    1
    83    20    17    1
    84    20    22    1
    85    16    17    1
    86    88    87    2
    87    83    82    1
    88    23    24    1
    89    23    18   am
    90    46    45    1
    91    87    89   am
    92    24    25    1
    93   135   133    1
    94    61    62    2
    95    61    60    1
    96    17    18    1
    97    18    19    2
    98    59    60    1
    99   133   134    1
   100   133   132    2
   101    60    63    1
   102    25    26    2
   103    63    64    1
   104   132   131    1
   105    44    42   am
   106    43    42    2
   107    34    33    1
   108   131   130    1
   109    42    41    1
   110    33    32    1
   111    33    35    1
   112    32    29    1
   113   130   129    1
   114    41    40    1
   115    28    29    1
   116    29    30    1
   117    40    37    1
   118    30    31    2
   119   129   126    1
   120   128   127    2
   121   127   126    1
   122    37    36    1
   123    37    38    1
   124   126   125    1
   125    38    39    2
