@<TRIPOS>MOLECULE
tmp/3kp6B05.pdb
 81 74 0 0 0
SMALL
GASTEIGER

@<TRIPOS>ATOM
      1  N        -27.7710   52.8910   11.1800 N.3    35  GLU35      -0.1245
      2  CA       -28.8550   52.3570   10.3540 C.3    35  GLU35       0.1567
      3  C        -29.8490   51.5520   11.1570 C.2    35  GLU35       0.2260
      4  O        -31.0430   51.5670   10.8490 O.2    35  GLU35      -0.2867
      5  CB       -28.3290   51.4550    9.2490 C.3    35  GLU35       0.0388
      6  CG       -26.8920   51.0870    9.4220 C.3    35  GLU35       0.1160
      7  CD       -25.9960   52.1330    8.8430 C.2    35  GLU35       0.3649
      8  OE1      -25.0290   52.5550    9.5170 O.co2  35  GLU35      -0.2457
      9  OE2      -26.2730   52.5290    7.6930 O.co2  35  GLU35      -0.2457
     10  N        -31.8670   54.0360   13.0970 N.3    38  HIS38      -0.1226
     11  CA       -32.8190   54.6260   12.1780 C.3    38  HIS38       0.1752
     12  C        -34.0320   53.7290   11.9160 C.2    38  HIS38       0.2595
     13  O        -35.1340   54.2100   11.6790 O.2    38  HIS38      -0.2718
     14  CB       -32.0990   54.9410   10.8740 C.3    38  HIS38       0.0759
     15  CG       -32.9730   55.5490    9.8260 C.ar   38  HIS38       0.0818
     16  ND1      -33.7670   56.6490   10.0650 N.ar   38  HIS38      -0.2268
     17  CD2      -33.1270   55.2460    8.5160 C.ar   38  HIS38       0.1154
     18  CE1      -34.3700   57.0020    8.9420 C.ar   38  HIS38       0.1986
     19  NE2      -33.9990   56.1680    7.9890 N.ar   38  HIS38      -0.2212
     20  N        -33.8350   52.4210   11.9370 N.am   39  VAL39      -0.1980
     21  CA       -34.9540   51.5000   11.7340 C.3    39  VAL39       0.1595
     22  C        -35.7680   51.4940   13.0280 C.2    39  VAL39       0.2287
     23  O        -36.9940   51.4730   13.0070 O.2    39  VAL39      -0.2864
     24  CB       -34.4630   50.0540   11.4190 C.3    39  VAL39       0.0276
     25  CG1      -35.6470   49.1200   11.2260 C.3    39  VAL39       0.0022
     26  CG2      -33.5990   50.0660   10.1770 C.3    39  VAL39       0.0022
     27  N        -37.9610   54.3450   12.9080 N.3    42  MET42      -0.1245
     28  CA       -39.1430   54.1900   12.0710 C.3    42  MET42       0.1570
     29  C        -40.2180   53.3710   12.7730 C.2    42  MET42       0.2261
     30  O        -41.4030   53.6400   12.6490 O.2    42  MET42      -0.2867
     31  CB       -38.7850   53.5070   10.7400 C.3    42  MET42       0.0387
     32  CG       -38.0510   54.4020    9.7350 C.3    42  MET42       0.0595
     33  SD       -37.4620   53.5900    8.2600 S.3    42  MET42      -0.1393
     34  CE       -38.7190   52.4130    8.1080 C.3    42  MET42       0.0692
     35  N        -40.4490   49.1390    5.4100 N.3    53  ILE53      -0.1245
     36  CA       -39.2140   49.7920    5.8230 C.3    53  ILE53       0.1561
     37  C        -38.3310   49.9500    4.5920 C.2    53  ILE53       0.2260
     38  O        -37.6360   50.9470    4.4250 O.2    53  ILE53      -0.2867
     39  CB       -38.5020   48.9410    6.9110 C.3    53  ILE53       0.0252
     40  CG1      -39.4030   48.8250    8.1350 C.3    53  ILE53       0.0019
     41  CG2      -37.1640   49.5440    7.2920 C.3    53  ILE53       0.0019
     42  CD1      -38.9540   47.7850    9.1050 C.3    53  ILE53       0.0001
     43  N        -36.8940   53.5030    3.3130 N.3    57  GLN57      -0.1245
     44  CA       -35.4580   53.7250    3.2660 C.3    57  GLN57       0.1566
     45  C        -34.9440   53.7820    1.8370 C.2    57  GLN57       0.2260
     46  O        -33.8970   54.3700    1.5580 O.2    57  GLN57      -0.2867
     47  CB       -34.7580   52.6040    4.0260 C.3    57  GLN57       0.0367
     48  CG       -33.2840   52.8140    4.2290 C.3    57  GLN57       0.0905
     49  CD       -32.9690   54.1490    4.8510 C.2    57  GLN57       0.2608
     50  OE1      -33.6190   54.5630    5.8000 O.2    57  GLN57      -0.2717
     51  NE2      -31.9550   54.8210    4.3320 N.am   57  GLN57      -0.0878
     52  N        -33.6430   51.4850    0.1200 N.3    59  VAL59      -0.1245
     53  CA       -32.6160   50.4920   -0.1730 C.3    59  VAL59       0.1561
     54  C        -33.1370   49.0930   -0.4800 C.2    59  VAL59       0.2260
     55  O        -34.3290   48.7760   -0.3350 O.2    59  VAL59      -0.2867
     56  CB       -31.6070   50.3340    0.9950 C.3    59  VAL59       0.0252
     57  CG1      -31.0140   51.6790    1.3810 C.3    59  VAL59       0.0019
     58  CG2      -32.2960   49.6670    2.1800 C.3    59  VAL59       0.0019
     59  N        -30.8280   44.5730    2.5790 N.3    63  ALA63      -0.1231
     60  CA       -30.0210   45.4020    3.4680 C.3    63  ALA63       0.1694
     61  C        -30.8820   45.7190    4.6930 C.2    63  ALA63       0.2591
     62  O        -30.3660   45.9620    5.7820 O.2    63  ALA63      -0.2718
     63  CB       -29.5870   46.6980    2.7670 C.3    63  ALA63       0.0304
     64  N        -32.1990   45.6890    4.5020 N.am   64  VAL64      -0.1980
     65  CA       -33.1320   45.9770    5.5760 C.3    64  VAL64       0.1595
     66  C        -33.2980   44.7410    6.4360 C.2    64  VAL64       0.2287
     67  O        -33.2780   44.8210    7.6650 O.2    64  VAL64      -0.2864
     68  CB       -34.5160   46.4310    5.0200 C.3    64  VAL64       0.0276
     69  CG1      -35.5820   46.3460    6.1110 C.3    64  VAL64       0.0022
     70  CG2      -34.4320   47.8650    4.5240 C.3    64  VAL64       0.0022
     71  N        -30.4550   44.4220    8.8410 N.3    67  ARG67      -0.1245
     72  CA       -30.5950   45.2510   10.0300 C.3    67  ARG67       0.1563
     73  C        -31.6040   44.6670   11.0030 C.2    67  ARG67       0.2260
     74  O        -31.3780   44.6640   12.2030 O.2    67  ARG67      -0.2867
     75  CB       -31.0590   46.6530    9.6530 C.3    67  ARG67       0.0307
     76  CG       -29.9460   47.6060    9.3150 C.3    67  ARG67       0.0489
     77  CD       -29.3000   47.2710    8.0020 C.3    67  ARG67       0.2205
     78  NE       -28.0250   47.9640    7.8690 N.pl3  67  ARG67      -0.0865
     79  CZ       -27.4000   48.1610    6.7140 C.cat  67  ARG67       0.5346
     80  NH1      -27.9220   47.7180    5.5790 N.pl3  67  ARG67       0.1354
     81  NH2      -26.2590   48.8270    6.6920 N.pl3  67  ARG67       0.1354
@<TRIPOS>BOND
     1    54    55    2
     2    54    53    1
     3    53    52    1
     4    53    56    1
     5    56    57    1
     6    56    58    1
     7    46    45    2
     8    45    44    1
     9    59    60    1
    10    63    60    1
    11    44    43    1
    12    44    47    1
    13    60    61    1
    14    47    48    1
    15    48    49    1
    16    51    49   am
    17    38    37    2
    18    64    61   am
    19    64    65    1
    20    70    68    1
    21    37    36    1
    22    61    62    2
    23    49    50    2
    24    68    65    1
    25    68    69    1
    26    35    36    1
    27    65    66    1
    28    80    79    1
    29    36    39    1
    30    66    67    2
    31    81    79    1
    32    79    78    2
    33    39    41    1
    34    39    40    1
    35     9     7   ar
    36    78    77    1
    37    19    17   ar
    38    19    18   ar
    39    77    76    1
    40    34    33    1
    41    40    42    1
    42    33    32    1
    43    17    15   ar
    44    71    72    1
    45     7     6    1
    46     7     8   ar
    47    18    16   ar
    48     5     6    1
    49     5     2    1
    50    76    75    1
    51    75    72    1
    52    32    31    1
    53    15    16   ar
    54    15    14    1
    55    72    73    1
    56    26    24    1
    57     2     3    1
    58     2     1    1
    59    31    28    1
    60     4     3    2
    61    14    11    1
    62    73    74    2
    63    25    24    1
    64    24    21    1
    65    13    12    2
    66    21    20    1
    67    21    22    1
    68    12    20   am
    69    12    11    1
    70    28    29    1
    71    28    27    1
    72    11    10    1
    73    30    29    2
    74    23    22    2
