@<TRIPOS>MOLECULE
tmp/3kp6A01.pdb
 84 77 0 0 0
SMALL
GASTEIGER

@<TRIPOS>ATOM
      1  N        -36.4910   62.8430    1.7570 N.3    18  VAL18      -0.1231
      2  CA       -35.6980   63.6150    0.8180 C.3    18  VAL18       0.1692
      3  C        -34.4880   62.8050    0.3640 C.2    18  VAL18       0.2592
      4  O        -34.1010   62.8510   -0.8020 O.2    18  VAL18      -0.2718
      5  CB       -35.2030   64.9210    1.4450 C.3    18  VAL18       0.0266
      6  CG1      -34.1680   65.5230    0.5760 C.3    18  VAL18       0.0020
      7  CG2      -36.3380   65.8850    1.6220 C.3    18  VAL18       0.0020
      8  N        -33.8950   62.0630    1.2910 N.am   19  ASN19      -0.1974
      9  CA       -32.7370   61.2450    0.9760 C.3    19  ASN19       0.1688
     10  C        -33.1490   60.0990    0.0870 C.2    19  ASN19       0.2292
     11  O        -32.4820   59.8250   -0.9040 O.2    19  ASN19      -0.2864
     12  CB       -32.0720   60.7100    2.2500 C.3    19  ASN19       0.1181
     13  CG       -31.4370   61.8110    3.0820 C.2    19  ASN19       0.2629
     14  OD1      -30.9940   62.8100    2.5560 O.2    19  ASN19      -0.2716
     15  ND2      -31.3750   61.6150    4.3780 N.am   19  ASN19      -0.0877
     16  N        -33.8290   61.4000   -3.3430 N.3    22  THR22      -0.1203
     17  CA       -32.6190   61.8530   -3.9940 C.3    22  THR22       0.1994
     18  C        -31.8220   60.6740   -4.5570 C.2    22  THR22       0.2617
     19  O        -31.4110   60.7070   -5.7110 O.2    22  THR22      -0.2717
     20  CB       -31.7780   62.6740   -3.0310 C.3    22  THR22       0.1784
     21  OG1      -32.4850   63.8710   -2.7020 O.3    22  THR22      -0.2211
     22  CG2      -30.4650   63.0270   -3.6470 C.3    22  THR22       0.0376
     23  N        -31.6640   59.6210   -3.7570 N.am   23  ALA23      -0.1979
     24  CA       -30.9340   58.4170   -4.1600 C.3    23  ALA23       0.1597
     25  C        -31.5160   57.7630   -5.3990 C.2    23  ALA23       0.2287
     26  O        -30.7820   57.3190   -6.2570 O.2    23  ALA23      -0.2864
     27  CB       -30.9130   57.4160   -3.0210 C.3    23  ALA23       0.0319
     28  N        -31.0640   60.0310   -8.5380 N.3    26  LEU26      -0.1245
     29  CA       -29.6950   60.1490   -8.9800 C.3    26  LEU26       0.1561
     30  C        -28.9350   58.8520   -9.2790 C.2    26  LEU26       0.2260
     31  O        -27.7860   58.9060   -9.7250 O.2    26  LEU26      -0.2867
     32  CB       -28.9140   60.9720   -7.9560 C.3    26  LEU26       0.0270
     33  CG       -29.2680   62.4310   -7.6140 C.3    26  LEU26       0.0019
     34  CD1      -28.2180   63.0140   -6.6530 C.3    26  LEU26       0.0001
     35  CD2      -29.2990   63.2450   -8.8860 C.3    26  LEU26       0.0001
     36  N        -25.3340   58.5280  -11.3950 N.3    30  GLN30      -0.1245
     37  CA       -24.1480   58.1550  -10.6290 C.3    30  GLN30       0.1566
     38  C        -23.4620   56.9860  -11.2860 C.2    30  GLN30       0.2260
     39  O        -22.2330   56.8770  -11.2560 O.2    30  GLN30      -0.2867
     40  CB       -24.5430   57.7690   -9.2110 C.3    30  GLN30       0.0367
     41  CG       -24.8520   58.9390   -8.3210 C.3    30  GLN30       0.0905
     42  CD       -25.6050   58.5340   -7.0900 C.2    30  GLN30       0.2608
     43  OE1      -25.9830   57.3810   -6.9390 O.2    30  GLN30      -0.2717
     44  NE2      -25.8440   59.4820   -6.2060 N.am   30  GLN30      -0.0878
     45  N        -23.4430   56.6050   -4.4520 N.3    37  ALA37      -0.1245
     46  CA       -24.1370   57.6770   -3.7730 C.3    37  ALA37       0.1562
     47  C        -23.3160   58.3070   -2.6550 C.2    37  ALA37       0.2260
     48  O        -23.4020   59.5110   -2.4470 O.2    37  ALA37      -0.2867
     49  CB       -25.4480   57.1670   -3.2250 C.3    37  ALA37       0.0290
     50  N        -21.0160   60.3790   -4.2380 N.3    40  SER40      -0.1202
     51  CA       -21.7600   61.5000   -4.7770 C.3    40  SER40       0.2020
     52  C        -21.9450   62.5820   -3.7090 C.2    40  SER40       0.2618
     53  O        -21.7930   63.7660   -4.0000 O.2    40  SER40      -0.2717
     54  CB       -23.1070   61.0250   -5.3010 C.3    40  SER40       0.2103
     55  OG       -23.9250   62.1340   -5.6160 O.3    40  SER40      -0.2182
     56  N        -22.2610   62.1470   -2.4800 N.am   41  HIS41      -0.1975
     57  CA       -22.4490   63.0160   -1.3010 C.3    41  HIS41       0.1656
     58  C        -21.2250   63.9140   -1.1500 C.2    41  HIS41       0.2291
     59  O        -21.3150   65.1380   -1.0660 O.2    41  HIS41      -0.2864
     60  CB       -22.5270   62.1880   -0.0150 C.3    41  HIS41       0.0771
     61  CG       -23.8810   61.6260    0.3030 C.ar   41  HIS41       0.0820
     62  ND1      -24.6720   62.1250    1.3180 N.ar   41  HIS41      -0.2267
     63  CD2      -24.5300   60.5320   -0.1710 C.ar   41  HIS41       0.1154
     64  CE1      -25.7410   61.3590    1.4620 C.ar   41  HIS41       0.1986
     65  NE2      -25.6780   60.3860    0.5710 N.ar   41  HIS41      -0.2212
     66  N        -20.7360   66.4460   -3.5580 N.3    44  ASN44      -0.1240
     67  CA       -21.7060   67.5100   -3.3280 C.3    44  ASN44       0.1653
     68  C        -21.1040   68.5210   -2.3510 C.2    44  ASN44       0.2266
     69  O        -21.4280   69.7080   -2.3970 O.2    44  ASN44      -0.2867
     70  CB       -23.0130   66.9560   -2.7550 C.3    44  ASN44       0.1155
     71  CG       -24.2060   67.8840   -3.0020 C.2    44  ASN44       0.2627
     72  OD1      -25.2390   67.7880   -2.3300 O.2    44  ASN44      -0.2716
     73  ND2      -24.0720   68.7680   -3.9860 N.am   44  ASN44      -0.0877
     74  N        -26.2580   66.9320  -11.6990 N.3    98  ARG98      -0.1245
     75  CA       -26.9100   66.5760  -10.4610 C.3    98  ARG98       0.1563
     76  C        -27.8370   67.7070  -10.0200 C.2    98  ARG98       0.2260
     77  O        -28.9630   67.4470   -9.5990 O.2    98  ARG98      -0.2867
     78  CB       -25.8710   66.3110   -9.3870 C.3    98  ARG98       0.0307
     79  CG       -26.4730   65.8360   -8.0750 C.3    98  ARG98       0.0489
     80  CD       -25.4350   65.7560   -6.9990 C.3    98  ARG98       0.2205
     81  NE       -25.9820   65.2090   -5.7610 N.pl3  98  ARG98      -0.0865
     82  CZ       -26.7210   65.8990   -4.8980 C.cat  98  ARG98       0.5346
     83  NH1      -27.0050   67.1780   -5.1380 N.pl3  98  ARG98       0.1354
     84  NH2      -27.1710   65.3090   -3.7960 N.pl3  98  ARG98       0.1354
@<TRIPOS>BOND
     1    74    75    1
     2    36    37    1
     3    38    39    2
     4    38    37    1
     5    37    40    1
     6    75    76    1
     7    75    78    1
     8    76    77    2
     9    31    30    2
    10    78    79    1
    11    30    29    1
    12    40    41    1
    13    29    28    1
    14    29    32    1
    15    35    33    1
    16    41    42    1
    17    79    80    1
    18    32    33    1
    19    33    34    1
    20    42    43    2
    21    42    44   am
    22    80    81    1
    23    26    25    2
    24    81    82    2
    25    19    18    2
    26    55    54    1
    27    25    24    1
    28    54    51    1
    29    83    82    1
    30    82    84    1
    31    51    50    1
    32    51    52    1
    33    18    17    1
    34    18    23   am
    35    45    46    1
    36    24    23    1
    37    24    27    1
    38    53    52    2
    39    17    16    1
    40    17    20    1
    41    73    71   am
    42    46    49    1
    43    46    47    1
    44    52    56   am
    45    22    20    1
    46    66    67    1
    47    67    70    1
    48    67    68    1
    49    20    21    1
    50    71    70    1
    51    71    72    2
    52    47    48    2
    53    56    57    1
    54    69    68    2
    55    57    58    1
    56    57    60    1
    57    58    59    2
    58    11    10    2
    59     4     3    2
    60    63    61   ar
    61    63    65   ar
    62    60    61    1
    63    10     9    1
    64    61    62   ar
    65     3     2    1
    66     3     8   am
    67    65    64   ar
    68     6     5    1
    69     2     5    1
    70     2     1    1
    71     9     8    1
    72     9    12    1
    73    62    64   ar
    74     5     7    1
    75    12    13    1
    76    14    13    2
    77    13    15   am
