@<TRIPOS>MOLECULE
tmp/3kpcA01.pdb
 112 108 0 0 0
SMALL
GASTEIGER

@<TRIPOS>ATOM
      1  N         -0.4140  -15.8900  -16.4590 N.3    10  SER10      -0.1217
      2  CA        -0.8670  -14.9040  -17.4320 C.3    10  SER10       0.1889
      3  C         -2.1180  -15.4260  -18.1270 C.2    10  SER10       0.2288
      4  O         -2.1430  -16.5600  -18.6190 O.2    10  SER10      -0.2866
      5  CB         0.2230  -14.6280  -18.4770 C.3    10  SER10       0.2089
      6  OG         1.3490  -13.9680  -17.9030 O.3    10  SER10      -0.2183
      7  N         -5.8460  -13.6430  -20.4400 N.3    12  PRO12      -0.2103
      8  CA        -6.2840  -14.8590  -21.1160 C.3    12  PRO12       0.1489
      9  C         -5.1290  -15.4980  -21.8750 C.2    12  PRO12       0.2418
     10  O         -4.1560  -14.8110  -22.2040 O.2    12  PRO12      -0.2734
     11  CB        -7.3550  -14.3530  -22.0860 C.3    12  PRO12       0.0282
     12  CG        -6.9510  -12.9600  -22.3870 C.3    12  PRO12       0.0208
     13  CD        -6.3700  -12.4330  -21.1060 C.3    12  PRO12       0.0893
     14  N         -5.2240  -16.8100  -22.1420 N.am   13  PRO13      -0.2718
     15  CA        -4.1550  -17.4260  -22.9080 C.3    13  PRO13       0.1535
     16  C         -4.2390  -17.0250  -24.3770 C.2    13  PRO13       0.2598
     17  O         -5.3370  -16.8940  -24.9280 O.2    13  PRO13      -0.2715
     18  CB        -4.4200  -18.9220  -22.7390 C.3    13  PRO13       0.0310
     19  CG        -5.8790  -19.0320  -22.5070 C.3    13  PRO13       0.0237
     20  CD        -6.3190  -17.7600  -21.8360 C.3    13  PRO13       0.0939
     21  N         -3.0810  -16.8040  -24.9880 N.am   14  ILE14      -0.1978
     22  CA        -2.9930  -16.6140  -26.4270 C.3    14  ILE14       0.1596
     23  C         -2.6860  -17.9820  -27.0260 C.2    14  ILE14       0.2287
     24  O         -1.6680  -18.5920  -26.6930 O.2    14  ILE14      -0.2864
     25  CB        -1.8790  -15.5960  -26.8070 C.3    14  ILE14       0.0276
     26  CG1       -2.0990  -14.2400  -26.1130 C.3    14  ILE14       0.0022
     27  CG2       -1.7710  -15.4390  -28.3280 C.3    14  ILE14       0.0022
     28  CD1       -3.4260  -13.5460  -26.4310 C.3    14  ILE14       0.0001
     29  N          4.2820  -10.0990  -27.8340 N.3    33  ASN33      -0.1225
     30  CA         5.5070   -9.9820  -27.0540 C.3    33  ASN33       0.1785
     31  C          5.7220  -11.1910  -26.1480 C.2    33  ASN33       0.2597
     32  O          6.0090  -11.0610  -24.9530 O.2    33  ASN33      -0.2718
     33  CB         5.4760   -8.6920  -26.2400 C.3    33  ASN33       0.1169
     34  CG         6.6810   -7.8350  -26.4790 C.2    33  ASN33       0.2627
     35  OD1        7.3560   -7.4250  -25.5380 O.2    33  ASN33      -0.2716
     36  ND2        6.9640   -7.5440  -27.7450 N.am   33  ASN33      -0.0877
     37  N          5.5700  -12.3690  -26.7440 N.am   34  ILE34      -0.1966
     38  CA         5.6390  -13.6370  -26.0320 C.3    34  ILE34       0.1727
     39  C          6.5490  -14.6050  -26.7820 C.2    34  ILE34       0.2616
     40  O          6.8710  -14.3870  -27.9520 O.2    34  ILE34      -0.2715
     41  CB         4.2300  -14.2700  -25.8710 C.3    34  ILE34       0.0290
     42  CG1        3.5500  -14.4360  -27.2410 C.3    34  ILE34       0.0022
     43  CG2        3.3680  -13.4250  -24.9230 C.3    34  ILE34       0.0023
     44  CD1        2.2440  -15.2140  -27.2220 C.3    34  ILE34       0.0001
     45  N          6.9550  -15.6750  -26.1050 N.am   35  ASN35      -0.1958
     46  CA         7.7840  -16.7130  -26.7070 C.3    35  ASN35       0.1819
     47  C          7.0870  -18.0670  -26.7580 C.2    35  ASN35       0.2621
     48  O          7.6620  -19.0350  -27.2540 O.2    35  ASN35      -0.2715
     49  CB         9.1030  -16.8510  -25.9430 C.3    35  ASN35       0.1195
     50  CG        10.0140  -15.6640  -26.1410 C.2    35  ASN35       0.2630
     51  OD1       10.6600  -15.5280  -27.1790 O.2    35  ASN35      -0.2716
     52  ND2       10.0750  -14.7930  -25.1400 N.am   35  ASN35      -0.0877
     53  N          5.8590  -18.1360  -26.2430 N.am   36  HIS36      -0.1973
     54  CA         5.1200  -19.4030  -26.1650 C.3    36  HIS36       0.1656
     55  C          3.7510  -19.3200  -26.8060 C.2    36  HIS36       0.2291
     56  O          3.0000  -18.3700  -26.5750 O.2    36  HIS36      -0.2864
     57  CB         4.9510  -19.8530  -24.7140 C.3    36  HIS36       0.0771
     58  CG         6.2430  -20.0220  -23.9910 C.ar   36  HIS36       0.0820
     59  ND1        6.9170  -18.9610  -23.4290 N.ar   36  HIS36      -0.2267
     60  CD2        7.0140  -21.1140  -23.7770 C.ar   36  HIS36       0.1154
     61  CE1        8.0410  -19.3910  -22.8840 C.ar   36  HIS36       0.1986
     62  NE2        8.1250  -20.6950  -23.0800 N.ar   36  HIS36      -0.2212
     63  N          0.7180  -22.0590  -27.2080 N.3    38  PRO38      -0.2116
     64  CA        -0.0100  -23.3220  -27.1480 C.3    38  PRO38       0.1372
     65  C         -0.8520  -23.5040  -28.4130 C.2    38  PRO38       0.2244
     66  O         -1.5060  -22.5590  -28.8640 O.2    38  PRO38      -0.2868
     67  CB        -0.9150  -23.1470  -25.9220 C.3    38  PRO38       0.0268
     68  CG        -0.2160  -22.1380  -25.0770 C.3    38  PRO38       0.0207
     69  CD         0.4100  -21.1900  -26.0550 C.3    38  PRO38       0.0892
     70  N         -0.8910  -19.5190  -19.0100 N.3   110  ILE110     -0.1245
     71  CA         0.4640  -20.0530  -19.1360 C.3   110  ILE110      0.1561
     72  C          1.3630  -19.4680  -18.0550 C.2   110  ILE110      0.2260
     73  O          1.2050  -18.3100  -17.6530 O.2   110  ILE110     -0.2867
     74  CB         1.0550  -19.8100  -20.5610 C.3   110  ILE110      0.0252
     75  CG1        2.3630  -20.5990  -20.7550 C.3   110  ILE110      0.0019
     76  CG2        1.2940  -18.3310  -20.7970 C.3   110  ILE110      0.0019
     77  CD1        2.6930  -20.9320  -22.2060 C.3   110  ILE110      0.0001
     78  N          5.4910  -19.0200  -17.4290 N.3   112  THR112     -0.1218
     79  CA         6.8200  -19.1680  -18.0370 C.3   112  THR112      0.1862
     80  C          7.9340  -18.9940  -17.0120 C.2   112  THR112      0.2287
     81  O          7.6790  -18.6090  -15.8650 O.2   112  THR112     -0.2866
     82  CB         7.0550  -18.1560  -19.1730 C.3   112  THR112      0.1770
     83  OG1        7.1150  -16.8330  -18.6180 O.3   112  THR112     -0.2211
     84  CG2        5.9340  -18.2310  -20.2090 C.3   112  THR112      0.0375
     85  N         10.0360  -16.6610  -17.0570 N.3   114  GLU114     -0.1231
     86  CA        10.0430  -15.2260  -16.7390 C.3   114  GLU114      0.1699
     87  C          9.0940  -14.8780  -15.5900 C.2   114  GLU114      0.2592
     88  O          9.4060  -14.0110  -14.7710 O.2   114  GLU114     -0.2718
     89  CB         9.7160  -14.3770  -17.9720 C.3   114  GLU114      0.0402
     90  CG        10.7860  -14.4300  -19.0560 C.3   114  GLU114      0.1161
     91  CD        10.4130  -13.6200  -20.2800 C.2   114  GLU114      0.3649
     92  OE1       10.0310  -12.4390  -20.1270 O.co2 114  GLU114     -0.2457
     93  OE2       10.5060  -14.1630  -21.4010 O.co2 114  GLU114     -0.2457
     94  N          7.9460  -15.5540  -15.5300 N.am  115  ASP115     -0.1974
     95  CA         6.9880  -15.3620  -14.4370 C.3   115  ASP115      0.1709
     96  C          7.5540  -15.8320  -13.0990 C.2   115  ASP115      0.2293
     97  O          7.3610  -15.1790  -12.0700 O.2   115  ASP115     -0.2864
     98  CB         5.6670  -16.0810  -14.7220 C.3   115  ASP115      0.1436
     99  CG         4.9800  -15.5770  -15.9750 C.2   115  ASP115      0.3671
    100  OD1        4.8860  -14.3430  -16.1650 O.co2 115  ASP115     -0.2456
    101  OD2        4.5180  -16.4250  -16.7660 O.co2 115  ASP115     -0.2456
    102  N         10.4660  -13.5940  -12.0350 N.3   118  ARG118     -0.1245
    103  CA         9.8910  -12.3680  -11.4790 C.3   118  ARG118      0.1563
    104  C          9.4910  -12.5780  -10.0260 C.2   118  ARG118      0.2260
    105  O          9.7220  -11.7080   -9.1770 O.2   118  ARG118     -0.2867
    106  CB         8.6670  -11.9330  -12.2910 C.3   118  ARG118      0.0307
    107  CG         7.9810  -10.6550  -11.7990 C.3   118  ARG118      0.0489
    108  CD         6.7650  -10.3010  -12.6530 C.3   118  ARG118      0.2205
    109  NE         7.0850  -10.3170  -14.0800 N.pl3 118  ARG118     -0.0865
    110  CZ         6.6560  -11.2330  -14.9470 C.cat 118  ARG118      0.5346
    111  NH1        5.8530  -12.2150  -14.5510 N.pl3 118  ARG118      0.1354
    112  NH2        7.0180  -11.1540  -16.2220 N.pl3 118  ARG118      0.1354
@<TRIPOS>BOND
     1    66    65    2
     2    65    64    1
     3    27    25    1
     4    40    39    2
     5    29    30    1
     6    36    34   am
     7    48    47    2
     8    42    44    1
     9    42    41    1
    10    63    64    1
    11    63    69    1
    12    51    50    2
    13    64    67    1
    14    30    33    1
    15    30    31    1
    16    23    24    2
    17    23    22    1
    18    25    22    1
    19    25    26    1
    20    55    56    2
    21    55    54    1
    22    39    45   am
    23    39    38    1
    24    47    46    1
    25    47    53   am
    26    37    31   am
    27    37    38    1
    28    46    45    1
    29    46    49    1
    30    34    33    1
    31    34    35    2
    32    28    26    1
    33    22    21    1
    34    53    54    1
    35    54    57    1
    36    31    32    2
    37    50    49    1
    38    50    52   am
    39    69    68    1
    40    38    41    1
    41    67    68    1
    42    41    43    1
    43    21    16   am
    44    17    16    2
    45    57    58    1
    46    16    15    1
    47    58    60   ar
    48    58    59   ar
    49    60    62   ar
    50    59    61   ar
    51    62    61   ar
    52    15    18    1
    53    15    14    1
    54    18    19    1
    55    19    20    1
    56    12    11    1
    57    12    13    1
    58    77    75    1
    59    10     9    2
    60    14     9   am
    61    14    20    1
    62    11     8    1
    63     9     8    1
    64    93    91   ar
    65     8     7    1
    66    13     7    1
    67    76    74    1
    68    75    74    1
    69    74    71    1
    70    91    92   ar
    71    91    90    1
    72    84    82    1
    73    82    83    1
    74    82    79    1
    75    71    70    1
    76    71    72    1
    77    90    89    1
    78     4     3    2
    79     5     6    1
    80     5     2    1
    81     3     2    1
    82    72    73    2
    83    79    78    1
    84    79    80    1
    85    89    86    1
    86     2     1    1
    87    85    86    1
    88    80    81    2
    89   101    99   ar
    90    86    87    1
    91   112   110    1
    92   100    99   ar
    93    99    98    1
    94    87    94   am
    95    87    88    2
    96    94    95    1
    97   110   111    1
    98   110   109    2
    99    98    95    1
   100    95    96    1
   101   109   108    1
   102    96    97    2
   103   108   107    1
   104   106   107    1
   105   106   103    1
   106   102   103    1
   107   103   104    1
   108   104   105    2
