@<TRIPOS>MOLECULE
tmp/3kpcA00.pdb
 130 126 0 0 0
SMALL
GASTEIGER

@<TRIPOS>ATOM
      1  N          5.8590  -18.1360  -26.2430 N.3    36  HIS36      -0.1241
      2  CA         5.1200  -19.4030  -26.1650 C.3    36  HIS36       0.1621
      3  C          3.7510  -19.3200  -26.8060 C.2    36  HIS36       0.2264
      4  O          3.0000  -18.3700  -26.5750 O.2    36  HIS36      -0.2867
      5  CB         4.9510  -19.8530  -24.7140 C.3    36  HIS36       0.0745
      6  CG         6.2430  -20.0220  -23.9910 C.ar   36  HIS36       0.0817
      7  ND1        6.9170  -18.9610  -23.4290 N.ar   36  HIS36      -0.2268
      8  CD2        7.0140  -21.1140  -23.7770 C.ar   36  HIS36       0.1154
      9  CE1        8.0410  -19.3910  -22.8840 C.ar   36  HIS36       0.1986
     10  NE2        8.1250  -20.6950  -23.0800 N.ar   36  HIS36      -0.2212
     11  N          2.6910  -27.4200  -28.6140 N.3    49  ILE49      -0.1245
     12  CA         3.2130  -26.0960  -28.2720 C.3    49  ILE49       0.1561
     13  C          4.3070  -25.6660  -29.2540 C.2    49  ILE49       0.2260
     14  O          5.1260  -26.4780  -29.6970 O.2    49  ILE49      -0.2867
     15  CB         3.7000  -26.0140  -26.7860 C.3    49  ILE49       0.0252
     16  CG1        3.9020  -24.5550  -26.3450 C.3    49  ILE49       0.0019
     17  CG2        4.9450  -26.8840  -26.5540 C.3    49  ILE49       0.0019
     18  CD1        4.1070  -24.3600  -24.8380 C.3    49  ILE49       0.0001
     19  N          7.2990  -22.6160  -29.6390 N.3    51  THR51      -0.1218
     20  CA         8.0250  -21.5260  -28.9970 C.3    51  THR51       0.1862
     21  C          8.8900  -20.8210  -30.0310 C.2    51  THR51       0.2287
     22  O          9.0300  -21.3120  -31.1600 O.2    51  THR51      -0.2866
     23  CB         8.8950  -22.0110  -27.8130 C.3    51  THR51       0.1770
     24  OG1       10.0160  -22.7590  -28.2970 O.3    51  THR51      -0.2211
     25  CG2        8.0890  -22.8620  -26.8330 C.3    51  THR51       0.0375
     26  N         11.9790  -20.7440  -30.1060 N.3    53  TRP53      -0.1227
     27  CA        13.0640  -21.6790  -30.4140 C.3    53  TRP53       0.1737
     28  C         12.6960  -22.6030  -31.5800 C.2    53  TRP53       0.2595
     29  O         13.5450  -22.9220  -32.4180 O.2    53  TRP53      -0.2718
     30  CB        13.4050  -22.4950  -29.1730 C.3    53  TRP53       0.0564
     31  CG        14.6830  -23.2620  -29.2500 C.ar   53  TRP53       0.0003
     32  CD1       15.9330  -22.8090  -28.9370 C.ar   53  TRP53       0.0946
     33  CD2       14.8350  -24.6360  -29.6290 C.ar   53  TRP53       0.0152
     34  NE1       16.8580  -23.8120  -29.1120 N.ar   53  TRP53      -0.2442
     35  CE2       16.2120  -24.9460  -29.5320 C.ar   53  TRP53       0.0810
     36  CE3       13.9430  -25.6350  -30.0480 C.ar   53  TRP53       0.0012
     37  CZ2       16.7210  -26.2160  -29.8440 C.ar   53  TRP53       0.0191
     38  CZ3       14.4490  -26.9000  -30.3550 C.ar   53  TRP53       0.0001
     39  CH2       15.8270  -27.1760  -30.2520 C.ar   53  TRP53       0.0015
     40  N         11.4300  -23.0200  -31.6320 N.am   54  ASP54      -0.1974
     41  CA        10.9280  -23.8220  -32.7510 C.3    54  ASP54       0.1709
     42  C         10.8980  -23.0420  -34.0610 C.2    54  ASP54       0.2293
     43  O         11.1520  -23.6160  -35.1220 O.2    54  ASP54      -0.2864
     44  CB         9.5330  -24.3780  -32.4570 C.3    54  ASP54       0.1436
     45  CG         9.5210  -25.3280  -31.2780 C.2    54  ASP54       0.3671
     46  OD1       10.3900  -26.2250  -31.2160 O.co2  54  ASP54      -0.2456
     47  OD2        8.6310  -25.1830  -30.4170 O.co2  54  ASP54      -0.2456
     48  N          6.8160  -29.0350  -36.6490 N.3    69  ILE69      -0.1245
     49  CA         7.7600  -28.5010  -35.6650 C.3    69  ILE69       0.1561
     50  C          7.2400  -28.3980  -34.2320 C.2    69  ILE69       0.2260
     51  O          8.0400  -28.2580  -33.3030 O.2    69  ILE69      -0.2867
     52  CB         8.3580  -27.1260  -36.0960 C.3    69  ILE69       0.0252
     53  CG1        7.2760  -26.0340  -36.1530 C.3    69  ILE69       0.0019
     54  CG2        9.0660  -27.2620  -37.4310 C.3    69  ILE69       0.0019
     55  CD1        7.8420  -24.6070  -36.2390 C.3    69  ILE69       0.0001
     56  N          5.9440  -29.2990  -30.5180 N.3    71  THR71      -0.1218
     57  CA         6.1630  -30.3760  -29.5610 C.3    71  THR71       0.1862
     58  C          4.8040  -30.8940  -29.1160 C.2    71  THR71       0.2287
     59  O          3.9780  -30.1260  -28.6170 O.2    71  THR71      -0.2866
     60  CB         6.9710  -29.8890  -28.3440 C.3    71  THR71       0.1770
     61  OG1        8.2220  -29.3490  -28.7890 O.3    71  THR71      -0.2211
     62  CG2        7.2370  -31.0340  -27.3670 C.3    71  THR71       0.0375
     63  N          4.1190  -33.8290  -26.9760 N.3    73  ASN73      -0.1225
     64  CA         4.0520  -34.1980  -25.5500 C.3    73  ASN73       0.1785
     65  C          4.2610  -32.9460  -24.6980 C.2    73  ASN73       0.2597
     66  O          5.3930  -32.6310  -24.3190 O.2    73  ASN73      -0.2718
     67  CB         5.1000  -35.2780  -25.2100 C.3    73  ASN73       0.1169
     68  CG         5.2050  -35.5660  -23.7010 C.2    73  ASN73       0.2627
     69  OD1        6.3050  -35.7300  -23.1670 O.2    73  ASN73      -0.2716
     70  ND2        4.0610  -35.6260  -23.0190 N.am   73  ASN73      -0.0877
     71  N          3.1830  -32.2220  -24.4080 N.am   74  VAL74      -0.1966
     72  CA         3.3010  -30.9490  -23.6890 C.3    74  VAL74       0.1727
     73  C          3.2390  -31.1440  -22.1750 C.2    74  VAL74       0.2616
     74  O          2.2850  -31.7280  -21.6540 O.2    74  VAL74      -0.2715
     75  CB         2.2270  -29.9210  -24.1320 C.3    74  VAL74       0.0290
     76  CG1        2.5270  -28.5430  -23.5550 C.3    74  VAL74       0.0023
     77  CG2        2.1530  -29.8450  -25.6470 C.3    74  VAL74       0.0023
     78  N          4.2710  -30.6620  -21.4810 N.am   75  ILE75      -0.1977
     79  CA         4.2700  -30.5890  -20.0200 C.3    75  ILE75       0.1596
     80  C          3.3500  -29.4340  -19.5970 C.2    75  ILE75       0.2287
     81  O          3.5000  -28.3060  -20.0800 O.2    75  ILE75      -0.2864
     82  CB         5.7110  -30.3740  -19.4620 C.3    75  ILE75       0.0276
     83  CG1        6.6980  -31.4140  -20.0330 C.3    75  ILE75       0.0022
     84  CG2        5.7150  -30.3650  -17.9200 C.3    75  ILE75       0.0022
     85  CD1        6.3920  -32.8750  -19.6930 C.3    75  ILE75       0.0001
     86  N         12.6350  -30.9850  -17.2790 N.3    93  TYR93      -0.1227
     87  CA        12.4420  -31.2030  -18.7180 C.3    93  TYR93       0.1736
     88  C         13.1640  -30.2110  -19.6190 C.2    93  TYR93       0.2595
     89  O         13.0160  -30.2630  -20.8480 O.2    93  TYR93      -0.2718
     90  CB        10.9480  -31.2870  -19.0550 C.3    93  TYR93       0.0548
     91  CG        10.3150  -32.4700  -18.3800 C.ar   93  TYR93      -0.0200
     92  CD1       10.6000  -33.7690  -18.8050 C.ar   93  TYR93      -0.0009
     93  CD2        9.4770  -32.3050  -17.2790 C.ar   93  TYR93      -0.0009
     94  CE1       10.0430  -34.8750  -18.1690 C.ar   93  TYR93       0.0417
     95  CE2        8.9130  -33.4050  -16.6350 C.ar   93  TYR93       0.0417
     96  CZ         9.2000  -34.6860  -17.0850 C.ar   93  TYR93       0.1957
     97  OH         8.6440  -35.7770  -16.4540 O.3    93  TYR93      -0.2866
     98  N         13.9520  -29.3270  -18.9960 N.am   94  ASN94      -0.1960
     99  CA        14.7100  -28.2900  -19.7050 C.3    94  ASN94       0.1819
    100  C         13.8220  -27.4510  -20.6320 C.2    94  ASN94       0.2621
    101  O         14.1610  -27.2050  -21.7910 O.2    94  ASN94      -0.2715
    102  CB        15.8970  -28.9060  -20.4650 C.3    94  ASN94       0.1195
    103  CG        16.9090  -27.8670  -20.9250 C.2    94  ASN94       0.2630
    104  OD1       17.1530  -26.8720  -20.2410 O.2    94  ASN94      -0.2716
    105  ND2       17.5060  -28.0990  -22.0890 N.am   94  ASN94      -0.0877
    106  N         12.6790  -27.0120  -20.1100 N.am   95  ILE95      -0.1963
    107  CA        11.7340  -26.2030  -20.8840 C.3    95  ILE95       0.1727
    108  C         11.5350  -24.8500  -20.2140 C.2    95  ILE95       0.2617
    109  O         11.9370  -24.6630  -19.0620 O.2    95  ILE95      -0.2715
    110  CB        10.3700  -26.9130  -21.0580 C.3    95  ILE95       0.0290
    111  CG1        9.8170  -27.3590  -19.6960 C.3    95  ILE95       0.0022
    112  CG2       10.5020  -28.0860  -22.0340 C.3    95  ILE95       0.0023
    113  CD1        8.3570  -27.7650  -19.7210 C.3    95  ILE95       0.0001
    114  N         10.9100  -23.9110  -20.9190 N.am   96  SER96      -0.1936
    115  CA        10.8250  -22.5500  -20.3950 C.3    96  SER96       0.2055
    116  C          9.4180  -22.0000  -20.1300 C.2    96  SER96       0.2643
    117  O          9.2800  -20.8630  -19.6710 O.2    96  SER96      -0.2714
    118  CB        11.6200  -21.5820  -21.2810 C.3    96  SER96       0.2130
    119  OG        11.0310  -21.4540  -22.5650 O.3    96  SER96      -0.2179
    120  N          8.3870  -22.7910  -20.4050 N.am   97  GLY97      -0.1954
    121  CA         7.0110  -22.3590  -20.1680 C.3    97  GLY97       0.1869
    122  C          6.0950  -23.5590  -20.1360 C.2    97  GLY97       0.2309
    123  O          6.3750  -24.5720  -20.7800 O.2    97  GLY97      -0.2863
    124  N          1.8450  -24.5640  -20.3840 N.3    99  PRO99      -0.2116
    125  CA         0.4470  -24.1480  -20.4230 C.3    99  PRO99       0.1372
    126  C         -0.2940  -24.6260  -19.1820 C.2    99  PRO99       0.2244
    127  O         -0.0200  -25.7180  -18.6760 O.2    99  PRO99      -0.2868
    128  CB        -0.0990  -24.8630  -21.6660 C.3    99  PRO99       0.0268
    129  CG         1.1060  -25.1310  -22.5120 C.3    99  PRO99       0.0207
    130  CD         2.1940  -25.4300  -21.5240 C.3    99  PRO99       0.0892
@<TRIPOS>BOND
     1    54    52    1
     2    48    49    1
     3    55    53    1
     4    53    52    1
     5    52    49    1
     6    49    50    1
     7    43    42    2
     8    50    51    2
     9    42    41    1
    10    41    44    1
    11    41    40    1
    12    44    45    1
    13    29    28    2
    14    40    28   am
    15    28    27    1
    16    45    46   ar
    17    45    47   ar
    18    22    21    2
    19    56    57    1
    20    27    26    1
    21    27    30    1
    22    38    39   ar
    23    38    36   ar
    24    39    37   ar
    25    36    33   ar
    26    21    20    1
    27    37    35   ar
    28    14    13    2
    29    19    20    1
    30    33    35   ar
    31    33    31   ar
    32    57    58    1
    33    57    60    1
    34    35    34   ar
    35    13    12    1
    36    31    30    1
    37    31    32   ar
    38    58    59    2
    39    34    32   ar
    40    20    23    1
    41    61    60    1
    42    11    12    1
    43    60    62    1
    44    24    23    1
    45    12    15    1
    46    23    25    1
    47    63    64    1
    48     3     4    2
    49     3     2    1
    50    15    17    1
    51    15    16    1
    52    16    18    1
    53     1     2    1
    54     2     5    1
    55    77    75    1
    56    64    67    1
    57    64    65    1
    58    67    68    1
    59     5     6    1
    60    65    71   am
    61    65    66    2
    62    71    72    1
    63    75    72    1
    64    75    76    1
    65     6     8   ar
    66     6     7   ar
    67     8    10   ar
    68    68    69    2
    69    68    70   am
    70    72    73    1
    71     7     9   ar
    72    10     9   ar
    73   119   118    1
    74   129   128    1
    75   129   130    1
    76    73    74    2
    77    73    78   am
    78   105   103   am
    79   112   110    1
    80   101   100    2
    81   128   125    1
    82   130   124    1
    83    78    79    1
    84   118   115    1
    85   110   107    1
    86   110   111    1
    87   103   102    1
    88   103   104    2
    89   114   115    1
    90   114   108   am
    91   107   108    1
    92   107   106    1
    93    89    88    2
    94   123   122    2
    95   100   106   am
    96   100    99    1
    97   102    99    1
    98   125   124    1
    99   125   126    1
   100   120   121    1
   101   120   116   am
   102   115   116    1
   103   108   109    2
   104   121   122    1
   105   116   117    2
   106    81    80    2
   107    83    85    1
   108    83    82    1
   109    79    80    1
   110    79    82    1
   111   113   111    1
   112    99    98    1
   113    88    98   am
   114    88    87    1
   115    82    84    1
   116   126   127    2
   117    90    87    1
   118    90    91    1
   119    92    91   ar
   120    92    94   ar
   121    87    86    1
   122    91    93   ar
   123    94    96   ar
   124    93    95   ar
   125    96    95   ar
   126    96    97    1
