@<TRIPOS>MOLECULE
tmp/3kpdA01.pdb
 138 135 0 0 0
SMALL
GASTEIGER

@<TRIPOS>ATOM
      1  N         21.6690   12.1930  -33.2080 N.3    34  HIS34      -0.1241
      2  CA        20.7010   12.3470  -32.1270 C.3    34  HIS34       0.1621
      3  C         19.4680   11.5780  -32.4400 C.2    34  HIS34       0.2264
      4  O         18.8430   11.7970  -33.4730 O.2    34  HIS34      -0.2867
      5  CB        20.3390   13.8190  -31.9200 C.3    34  HIS34       0.0745
      6  CG        21.4760   14.6420  -31.4130 C.ar   34  HIS34       0.0817
      7  ND1       22.3810   15.2550  -32.2490 N.ar   34  HIS34      -0.2268
      8  CD2       21.8880   14.9060  -30.1510 C.ar   34  HIS34       0.1154
      9  CE1       23.2830   15.8890  -31.5220 C.ar   34  HIS34       0.1986
     10  NE2       23.0090   15.6900  -30.2460 N.ar   34  HIS34      -0.2212
     11  N         16.8980   10.1450  -24.8790 N.3    47  ILE47      -0.1245
     12  CA        17.6750   10.4400  -26.0670 C.3    47  ILE47       0.1561
     13  C         18.9010    9.5500  -26.1880 C.2    47  ILE47       0.2260
     14  O         19.6290    9.3440  -25.2180 O.2    47  ILE47      -0.2867
     15  CB        18.0870   11.9240  -26.1110 C.3    47  ILE47       0.0252
     16  CG1       18.6200   12.2910  -27.5080 C.3    47  ILE47       0.0019
     17  CG2       19.0400   12.2590  -24.9520 C.3    47  ILE47       0.0019
     18  CD1       18.7960   13.7790  -27.7420 C.3    47  ILE47       0.0001
     19  N         22.4780    9.0890  -28.4840 N.3    49  THR49      -0.1218
     20  CA        23.4350    9.6420  -29.4300 C.3    49  THR49       0.1862
     21  C         24.5660    8.6350  -29.5310 C.2    49  THR49       0.2287
     22  O         24.6910    7.7790  -28.6640 O.2    49  THR49      -0.2866
     23  CB        24.0220   10.9860  -28.9610 C.3    49  THR49       0.1770
     24  OG1       24.9870   10.7590  -27.9230 O.3    49  THR49      -0.2211
     25  CG2       22.9390   11.9340  -28.4610 C.3    49  THR49       0.0375
     26  N         27.3520    8.4640  -28.6120 N.3    51  TRP51      -0.1227
     27  CA        28.0680    8.3010  -27.3630 C.3    51  TRP51       0.1737
     28  C         27.5170    7.1180  -26.5710 C.2    51  TRP51       0.2595
     29  O         28.2790    6.2930  -26.0620 O.2    51  TRP51      -0.2718
     30  CB        27.9640    9.5650  -26.5340 C.3    51  TRP51       0.0564
     31  CG        28.4980    9.3720  -25.1590 C.ar   51  TRP51       0.0003
     32  CD1       27.7930    9.0150  -24.0330 C.ar   51  TRP51       0.0946
     33  CD2       29.8620    9.4870  -24.7570 C.ar   51  TRP51       0.0152
     34  NE1       28.6450    8.9170  -22.9600 N.ar   51  TRP51      -0.2442
     35  CE2       29.9170    9.2130  -23.3780 C.ar   51  TRP51       0.0810
     36  CE3       31.0400    9.8170  -25.4280 C.ar   51  TRP51       0.0012
     37  CZ2       31.0910    9.2670  -22.6660 C.ar   51  TRP51       0.0191
     38  CZ3       32.2010    9.8560  -24.7220 C.ar   51  TRP51       0.0001
     39  CH2       32.2240    9.5810  -23.3560 C.ar   51  TRP51       0.0015
     40  N         26.1940    7.0520  -26.4570 N.am   52  ASP52      -0.1974
     41  CA        25.5350    5.9200  -25.8300 C.3    52  ASP52       0.1709
     42  C         25.8780    4.6020  -26.5430 C.2    52  ASP52       0.2293
     43  O         26.1010    3.5870  -25.8920 O.2    52  ASP52      -0.2864
     44  CB        24.0220    6.1310  -25.7910 C.3    52  ASP52       0.1436
     45  CG        23.6290    7.4970  -25.2370 C.2    52  ASP52       0.3671
     46  OD1       23.9840    7.8190  -24.0860 O.co2  52  ASP52      -0.2456
     47  OD2       22.9480    8.2590  -25.9530 O.co2  52  ASP52      -0.2456
     48  N         28.9990    3.6880  -25.1840 N.3    55  LYS55      -0.1245
     49  CA        28.8150    3.2900  -23.7990 C.3    55  LYS55       0.1561
     50  C         28.3510    1.8130  -23.7800 C.2    55  LYS55       0.2260
     51  O         28.8620    1.0070  -22.9980 O.2    55  LYS55      -0.2867
     52  CB        27.8120    4.2230  -23.1030 C.3    55  LYS55       0.0271
     53  CG        27.6860    4.0580  -21.5950 C.3    55  LYS55       0.0035
     54  CD        28.5710    5.0270  -20.7840 C.3    55  LYS55       0.0206
     55  CE        27.8230    6.3180  -20.3790 C.3    55  LYS55       0.1093
     56  NZ        28.4790    7.0930  -19.2640 N.3    55  LYS55      -0.1314
     57  N         19.6720    8.4380  -22.2990 N.3    69  THR69      -0.1218
     58  CA        19.7340    9.4610  -21.2770 C.3    69  THR69       0.1862
     59  C         18.3190    9.8400  -20.8980 C.2    69  THR69       0.2287
     60  O         17.6630   10.6350  -21.5840 O.2    69  THR69      -0.2866
     61  CB        20.5570   10.6750  -21.7050 C.3    69  THR69       0.1770
     62  OG1       21.9260   10.2730  -21.8200 O.3    69  THR69      -0.2211
     63  CG2       20.4490   11.8100  -20.6720 C.3    69  THR69       0.0375
     64  N         16.7180   11.5730  -18.8160 N.3    71  ASN71      -0.1225
     65  CA        16.3040   12.9590  -18.6760 C.3    71  ASN71       0.1785
     66  C         16.9150   13.9060  -19.7230 C.2    71  ASN71       0.2597
     67  O         18.0450   14.4000  -19.5600 O.2    71  ASN71      -0.2718
     68  CB        16.6210   13.4410  -17.2650 C.3    71  ASN71       0.1169
     69  CG        16.6310   14.9420  -17.1630 C.2    71  ASN71       0.2627
     70  OD1       15.5720   15.5970  -17.1360 O.2    71  ASN71      -0.2716
     71  ND2       17.8400   15.5110  -17.1280 N.am   71  ASN71      -0.0877
     72  N         16.1140   14.1820  -20.7580 N.am   72  VAL72      -0.1966
     73  CA        16.4900   14.9300  -21.9690 C.3    72  VAL72       0.1727
     74  C         16.2610   16.4260  -21.8550 C.2    72  VAL72       0.2616
     75  O         15.2210   16.8490  -21.3940 O.2    72  VAL72      -0.2715
     76  CB        15.6490   14.4260  -23.1660 C.3    72  VAL72       0.0290
     77  CG1       16.0190   15.1180  -24.4650 C.3    72  VAL72       0.0023
     78  CG2       15.8280   12.9480  -23.3240 C.3    72  VAL72       0.0023
     79  N         17.2250   17.2140  -22.3190 N.am   73  ILE73      -0.1977
     80  CA        17.1060   18.6670  -22.3900 C.3    73  ILE73       0.1596
     81  C         16.5380   19.0620  -23.7570 C.2    73  ILE73       0.2287
     82  O         17.0650   18.6600  -24.7910 O.2    73  ILE73      -0.2864
     83  CB        18.4830   19.3420  -22.1290 C.3    73  ILE73       0.0276
     84  CG1       18.9260   19.1240  -20.6850 C.3    73  ILE73       0.0022
     85  CG2       18.4400   20.8440  -22.3450 C.3    73  ILE73       0.0022
     86  CD1       19.7690   17.8600  -20.4330 C.3    73  ILE73       0.0001
     87  N         25.4070   23.0460  -21.1520 N.3    91  TYR91      -0.1227
     88  CA        25.1190   21.6770  -20.7450 C.3    91  TYR91       0.1736
     89  C         25.9390   20.6980  -21.5540 C.2    91  TYR91       0.2595
     90  O         25.8640   19.4710  -21.3530 O.2    91  TYR91      -0.2718
     91  CB        23.6270   21.3880  -20.9060 C.3    91  TYR91       0.0548
     92  CG        22.8060   21.8350  -19.7260 C.ar   91  TYR91      -0.0200
     93  CD1       22.5930   20.9670  -18.6420 C.ar   91  TYR91      -0.0009
     94  CD2       22.2690   23.1250  -19.6730 C.ar   91  TYR91      -0.0009
     95  CE1       21.8610   21.3630  -17.5420 C.ar   91  TYR91       0.0417
     96  CE2       21.5330   23.5340  -18.5810 C.ar   91  TYR91       0.0417
     97  CZ        21.3280   22.6480  -17.5180 C.ar   91  TYR91       0.1957
     98  OH        20.6000   23.0420  -16.4240 O.3    91  TYR91      -0.2866
     99  N         26.7160   21.2830  -22.4720 N.am   92  ASN92      -0.1960
    100  CA        27.6320   20.5800  -23.3610 C.3    92  ASN92       0.1819
    101  C         27.0230   19.3970  -24.0940 C.2    92  ASN92       0.2621
    102  O         27.3660   18.2270  -23.8640 O.2    92  ASN92      -0.2715
    103  CB        28.9610   20.2680  -22.6760 C.3    92  ASN92       0.1195
    104  CG        30.0250   21.3050  -23.0180 C.2    92  ASN92       0.2630
    105  OD1       30.6500   21.9070  -22.1250 O.2    92  ASN92      -0.2716
    106  ND2       30.2180   21.5420  -24.3270 N.am   92  ASN92      -0.0877
    107  N         26.0910   19.7520  -24.9680 N.am   93  ILE93      -0.1963
    108  CA        25.3590   18.8320  -25.8090 C.3    93  ILE93       0.1727
    109  C         25.1660   19.5680  -27.1300 C.2    93  ILE93       0.2617
    110  O         25.2110   20.8120  -27.1810 O.2    93  ILE93      -0.2715
    111  CB        23.9860   18.4590  -25.2150 C.3    93  ILE93       0.0290
    112  CG1       23.2460   19.6940  -24.7130 C.3    93  ILE93       0.0022
    113  CG2       24.1390   17.4640  -24.0800 C.3    93  ILE93       0.0023
    114  CD1       21.7670   19.4770  -24.5870 C.3    93  ILE93       0.0001
    115  N         24.9620   18.8100  -28.2000 N.am   94  SER94      -0.1936
    116  CA        24.9650   19.4130  -29.5150 C.3    94  SER94       0.2055
    117  C         23.6030   19.3890  -30.1740 C.2    94  SER94       0.2644
    118  O         23.4470   19.8780  -31.2940 O.2    94  SER94      -0.2714
    119  CB        26.0290   18.7630  -30.3940 C.3    94  SER94       0.2130
    120  OG        26.2690   17.4470  -29.9550 O.3    94  SER94      -0.2179
    121  N         22.6180   18.8320  -29.4740 N.am   95  GLY95      -0.1939
    122  CA        21.2820   18.6740  -30.0430 C.3    95  GLY95       0.2014
    123  C         20.1520   18.6040  -29.0480 C.2    95  GLY95       0.2639
    124  O         20.2460   17.9380  -28.0250 O.2    95  GLY95      -0.2714
    125  N         19.0730   19.2990  -29.3510 N.am   96  VAL96      -0.1963
    126  CA        17.8710   19.1900  -28.5550 C.3    96  VAL96       0.1715
    127  C         16.6640   18.8330  -29.3990 C.2    96  VAL96       0.2495
    128  O         16.4650   19.4220  -30.4570 O.2    96  VAL96      -0.2727
    129  CB        17.5590   20.4990  -27.8350 C.3    96  VAL96       0.0289
    130  CG1       18.5370   20.7060  -26.7110 C.3    96  VAL96       0.0023
    131  CG2       17.5820   21.6770  -28.8060 C.3    96  VAL96       0.0023
    132  N         15.8560   17.8710  -28.9300 N.am   97  PRO97      -0.2504
    133  CA        14.5040   17.6910  -29.4830 C.3    97  PRO97       0.1487
    134  C         13.6430   18.9130  -29.2210 C.2    97  PRO97       0.2276
    135  O         13.7320   19.5130  -28.1650 O.2    97  PRO97      -0.2865
    136  CB        13.9370   16.4940  -28.7200 C.3    97  PRO97       0.0556
    137  CG        15.0420   15.9640  -27.8560 C.2    97  PRO97      -0.0078
    138  CD        16.2140   16.8770  -27.9020 C.2    97  PRO97       0.0634
@<TRIPOS>BOND
     1     4     3    2
     2     1     2    1
     3     3     2    1
     4     7     9   ar
     5     7     6   ar
     6     2     5    1
     7     5     6    1
     8     9    10   ar
     9     6     8   ar
    10   118   117    2
    11   128   127    2
    12   119   120    1
    13   119   116    1
    14    10     8   ar
    15   117   116    1
    16   117   121   am
    17   122   121    1
    18   122   123    1
    19    21    20    1
    20    21    22    2
    21   116   115    1
    22   133   134    1
    23   133   132    1
    24   133   136    1
    25    20    23    1
    26    20    19    1
    27   127   132   am
    28   127   126    1
    29   125   123   am
    30   125   126    1
    31   134   135    2
    32   123   124    2
    33    23    25    1
    34    23    24    1
    35   132   138    1
    36   131   129    1
    37   136   137    1
    38    26    27    1
    39   126   129    1
    40   115   109   am
    41   138   137    2
    42   129   130    1
    43    18    16    1
    44    16    15    1
    45    27    28    1
    46    27    30    1
    47   110   109    2
    48   109   108    1
    49    28    40   am
    50    28    29    2
    51    42    43    2
    52    42    41    1
    53    30    31    1
    54    40    41    1
    55    13    12    1
    56    13    14    2
    57    15    12    1
    58    15    17    1
    59    12    11    1
    60    47    45   ar
    61    41    44    1
    62   108   111    1
    63   108   107    1
    64    44    45    1
    65    36    33   ar
    66    36    38   ar
    67    45    46   ar
    68   111   112    1
    69   111   113    1
    70    48    49    1
    71    31    33   ar
    72    31    32   ar
    73   107   101   am
    74    82    81    2
    75    33    35   ar
    76    38    39   ar
    77   112   114    1
    78    77    76    1
    79   106   104   am
    80   101   102    2
    81   101   100    1
    82    32    34   ar
    83    49    50    1
    84    49    52    1
    85    50    51    2
    86    81    80    1
    87    35    34   ar
    88    35    37   ar
    89   100   103    1
    90   100    99    1
    91    39    37   ar
    92    78    76    1
    93    76    73    1
    94    52    53    1
    95   104   103    1
    96   104   105    2
    97    99    89   am
    98    80    79    1
    99    80    83    1
   100    85    83    1
   101    79    74   am
   102    57    58    1
   103    83    84    1
   104    73    74    1
   105    73    72    1
   106    74    75    2
   107    62    61    1
   108    61    58    1
   109    61    63    1
   110    53    54    1
   111    60    59    2
   112    89    90    2
   113    89    88    1
   114    58    59    1
   115    87    88    1
   116    91    88    1
   117    91    92    1
   118    54    55    1
   119    72    66   am
   120    84    86    1
   121    55    56    1
   122    92    94   ar
   123    92    93   ar
   124    66    67    2
   125    66    65    1
   126    94    96   ar
   127    64    65    1
   128    65    68    1
   129    93    95   ar
   130    96    97   ar
   131    95    97   ar
   132    97    98    1
   133    68    69    1
   134    69    70    2
   135    69    71   am
