@<TRIPOS>MOLECULE
tmp/3kpuA01.pdb
 126 117 0 0 0
SMALL
GASTEIGER

@<TRIPOS>ATOM
      1  N         37.8090   48.6720   15.9680 N.3    12  TYR12      -0.1241
      2  CA        36.3790   48.4030   16.1160 C.3    12  TYR12       0.1605
      3  C         35.6910   48.3730   14.7510 C.2    12  TYR12       0.2264
      4  O         34.8760   47.4900   14.4820 O.2    12  TYR12      -0.2867
      5  CB        35.7120   49.4230   17.0450 C.3    12  TYR12       0.0534
      6  CG        34.1990   49.2900   17.1520 C.ar   12  TYR12      -0.0201
      7  CD1       33.6220   48.3700   18.0210 C.ar   12  TYR12      -0.0009
      8  CD2       33.3490   50.1050   16.4030 C.ar   12  TYR12      -0.0009
      9  CE1       32.2480   48.2560   18.1350 C.ar   12  TYR12       0.0417
     10  CE2       31.9590   49.9940   16.5100 C.ar   12  TYR12       0.0417
     11  CZ        31.4200   49.0650   17.3760 C.ar   12  TYR12       0.1957
     12  OH        30.0570   48.9310   17.4910 O.3    12  TYR12      -0.2866
     13  N         33.9650   44.8950   12.8910 N.3    16  ASN16      -0.1225
     14  CA        32.5050   44.8500   12.8280 C.3    16  ASN16       0.1785
     15  C         31.8880   45.3610   11.5380 C.2    16  ASN16       0.2597
     16  O         30.7580   45.0050   11.2120 O.2    16  ASN16      -0.2718
     17  CB        31.8840   45.6060   14.0090 C.3    16  ASN16       0.1169
     18  CG        32.3320   45.0600   15.3580 C.2    16  ASN16       0.2627
     19  OD1       31.9800   43.9470   15.7440 O.2    16  ASN16      -0.2716
     20  ND2       33.1040   45.8530   16.0820 N.am   16  ASN16      -0.0877
     21  N         32.6100   46.1990   10.8060 N.am   17  TYR17      -0.1976
     22  CA        32.0040   46.8460    9.6440 C.3    17  TYR17       0.1639
     23  C         32.7290   46.5650    8.3410 C.2    17  TYR17       0.2290
     24  O         32.2730   46.9710    7.2770 O.2    17  TYR17      -0.2864
     25  CB        31.7930   48.3420    9.9010 C.3    17  TYR17       0.0560
     26  CG        30.7690   48.5310   10.9950 C.ar   17  TYR17      -0.0198
     27  CD1       31.1560   48.7190   12.3160 C.ar   17  TYR17      -0.0009
     28  CD2       29.4120   48.4380   10.7140 C.ar   17  TYR17      -0.0009
     29  CE1       30.2080   48.8580   13.3150 C.ar   17  TYR17       0.0417
     30  CE2       28.4710   48.5650   11.6900 C.ar   17  TYR17       0.0417
     31  CZ        28.8650   48.7770   12.9920 C.ar   17  TYR17       0.1957
     32  OH        27.9010   48.9070   13.9570 O.3    17  TYR17      -0.2866
     33  N         31.3520   40.5890    8.3950 N.3    21  ARG21      -0.1245
     34  CA        30.1450   41.1800    8.9770 C.3    21  ARG21       0.1563
     35  C         29.6260   42.3490    8.1590 C.2    21  ARG21       0.2260
     36  O         28.4140   42.5930    8.1110 O.2    21  ARG21      -0.2867
     37  CB        30.3930   41.6290   10.4140 C.3    21  ARG21       0.0307
     38  CG        30.3650   40.4920   11.3950 C.3    21  ARG21       0.0489
     39  CD        30.7840   40.9330   12.7740 C.3    21  ARG21       0.2205
     40  NE        30.8070   39.7820   13.6650 N.pl3  21  ARG21      -0.0865
     41  CZ        30.9770   39.8490   14.9830 C.cat  21  ARG21       0.5346
     42  NH1       31.1500   41.0280   15.5830 N.pl3  21  ARG21       0.1354
     43  NH2       30.9730   38.7300   15.6990 N.pl3  21  ARG21       0.1354
     44  N         24.3650   40.2020    9.1230 N.3    30  VAL30      -0.1245
     45  CA        23.9680   41.1390   10.1660 C.3    30  VAL30       0.1561
     46  C         23.8460   42.5610    9.6230 C.2    30  VAL30       0.2260
     47  O         22.9140   43.2860    9.9660 O.2    30  VAL30      -0.2867
     48  CB        24.9220   41.0730   11.4220 C.3    30  VAL30       0.0252
     49  CG1       26.3480   41.5340   11.0810 C.3    30  VAL30       0.0019
     50  CG2       24.3480   41.8700   12.5790 C.3    30  VAL30       0.0019
     51  N         20.4220   44.7240   10.0040 N.3    34  LYS34      -0.1245
     52  CA        20.3650   45.9830   10.7240 C.3    34  LYS34       0.1561
     53  C         19.7740   47.0810    9.8400 C.2    34  LYS34       0.2260
     54  O         18.8010   47.7430   10.2180 O.2    34  LYS34      -0.2867
     55  CB        21.7420   46.3720   11.2390 C.3    34  LYS34       0.0271
     56  CG        22.3210   45.3760   12.2490 C.3    34  LYS34       0.0035
     57  CD        23.4420   45.9850   13.0880 C.3    34  LYS34       0.0206
     58  CE        24.4920   46.6950   12.2440 C.3    34  LYS34       0.1093
     59  NZ        25.5380   47.3330   13.0910 N.3    34  LYS34      -0.1314
     60  N         24.2590   49.3960   20.0070 N.3   159  PHE159     -0.1241
     61  CA        25.3950   48.7260   20.6460 C.3   159  PHE159      0.1605
     62  C         26.0870   49.5690   21.7240 C.2   159  PHE159      0.2264
     63  O         27.2840   49.4170   21.9800 O.2   159  PHE159     -0.2867
     64  CB        26.4030   48.2630   19.5880 C.3   159  PHE159      0.0534
     65  CG        25.8380   47.2670   18.6130 C.ar  159  PHE159     -0.0203
     66  CD1       25.4010   47.6740   17.3550 C.ar  159  PHE159     -0.0042
     67  CD2       25.7310   45.9260   18.9530 C.ar  159  PHE159     -0.0042
     68  CE1       24.8730   46.7520   16.4500 C.ar  159  PHE159     -0.0003
     69  CE2       25.2040   45.0030   18.0570 C.ar  159  PHE159     -0.0003
     70  CZ        24.7780   45.4170   16.8010 C.ar  159  PHE159     -0.0000
     71  N         23.6610   44.0380   21.1310 N.3   193  ALA193     -0.1245
     72  CA        24.0360   42.6380   21.1670 C.3   193  ALA193      0.1562
     73  C         23.2030   41.8620   22.1890 C.2   193  ALA193      0.2260
     74  O         22.7960   42.3970   23.2290 O.2   193  ALA193     -0.2867
     75  CB        25.5050   42.5040   21.4620 C.3   193  ALA193      0.0290
     76  N         25.9000   38.9000   24.9560 N.3   196  GLU196     -0.1245
     77  CA        27.3150   39.2170   24.7690 C.3   196  GLU196      0.1567
     78  C         27.9720   39.5740   26.1110 C.2   196  GLU196      0.2260
     79  O         27.3740   40.2760   26.9390 O.2   196  GLU196     -0.2867
     80  CB        27.4760   40.3880   23.7880 C.3   196  GLU196      0.0388
     81  CG        28.8930   40.9440   23.7000 C.3   196  GLU196      0.1160
     82  CD        28.9910   42.1570   22.7730 C.2   196  GLU196      0.3649
     83  OE1       29.9700   42.2600   21.9960 O.co2 196  GLU196     -0.2457
     84  OE2       28.0760   43.0060   22.8180 O.co2 196  GLU196     -0.2457
     85  N         33.7700   42.1800   23.9400 N.3   199  TYR199     -0.1241
     86  CA        34.2440   42.3140   22.5660 C.3   199  TYR199      0.1605
     87  C         35.5660   43.0620   22.5930 C.2   199  TYR199      0.2264
     88  O         35.8810   43.7350   23.5730 O.2   199  TYR199     -0.2867
     89  CB        33.2250   43.0330   21.6680 C.3   199  TYR199      0.0534
     90  CG        33.0680   44.4990   21.9830 C.ar  199  TYR199     -0.0201
     91  CD1       33.6740   45.4630   21.1860 C.ar  199  TYR199     -0.0009
     92  CD2       32.3270   44.9250   23.0930 C.ar  199  TYR199     -0.0009
     93  CE1       33.5390   46.8160   21.4650 C.ar  199  TYR199      0.0417
     94  CE2       32.1890   46.2800   23.3880 C.ar  199  TYR199      0.0417
     95  CZ        32.7980   47.2220   22.5650 C.ar  199  TYR199      0.1957
     96  OH        32.6760   48.5690   22.8240 O.3   199  TYR199     -0.2866
     97  N         22.9460   35.0140   15.3590 N.3   235  MET235     -0.1245
     98  CA        24.2600   35.1270   14.7260 C.3   235  MET235      0.1570
     99  C         24.7040   33.8250   14.0410 C.2   235  MET235      0.2261
    100  O         24.9240   32.8020   14.6920 O.2   235  MET235     -0.2867
    101  CB        25.3050   35.6010   15.7450 C.3   235  MET235      0.0387
    102  CG        26.5510   36.2480   15.1410 C.3   235  MET235      0.0595
    103  SD        26.2810   37.8890   14.4350 S.3   235  MET235     -0.1393
    104  CE        25.2460   38.6200   15.6950 C.3   235  MET235      0.0692
    105  N         34.4890   38.8340   19.5180 N.3   244  ASP244     -0.1239
    106  CA        33.4930   38.9450   20.5830 C.3   244  ASP244      0.1674
    107  C         32.7770   37.6250   20.7260 C.2   244  ASP244      0.2266
    108  O         33.1550   36.6400   20.1010 O.2   244  ASP244     -0.2867
    109  CB        32.4720   40.0610   20.3120 C.3   244  ASP244      0.1410
    110  CG        31.6740   39.8430   19.0230 C.2   244  ASP244      0.3668
    111  OD1       31.0950   38.7510   18.8270 O.co2 244  ASP244     -0.2456
    112  OD2       31.6130   40.7840   18.2080 O.co2 244  ASP244     -0.2456
    113  N         29.0220   37.5150   20.8160 N.3   246  VAL246     -0.1245
    114  CA        27.5910   37.8090   20.7760 C.3   246  VAL246      0.1561
    115  C         26.8450   36.6640   20.0930 C.2   246  VAL246      0.2260
    116  O         27.3750   36.0200   19.1820 O.2   246  VAL246     -0.2867
    117  CB        27.2620   39.1950   20.1500 C.3   246  VAL246      0.0252
    118  CG1       28.4990   40.0870   20.1290 C.3   246  VAL246      0.0019
    119  CG2       26.6240   39.0560   18.7650 C.3   246  VAL246      0.0019
    120  N         21.5410   39.6190   17.6060 N.3   249  VAL249     -0.1245
    121  CA        21.4020   41.0610   17.6780 C.3   249  VAL249      0.1561
    122  C         19.9180   41.3270   17.8050 C.2   249  VAL249      0.2260
    123  O         19.1160   40.6880   17.1280 O.2   249  VAL249     -0.2867
    124  CB        21.9230   41.7460   16.3870 C.3   249  VAL249      0.0252
    125  CG1       21.4920   43.2120   16.3360 C.3   249  VAL249      0.0019
    126  CG2       23.4500   41.6050   16.2580 C.3   249  VAL249      0.0019
@<TRIPOS>BOND
     1    24    23    2
     2    36    35    2
     3    35    34    1
     4    23    22    1
     5    33    34    1
     6    34    37    1
     7    44    45    1
     8    46    47    2
     9    46    45    1
    10    22    25    1
    11    22    21    1
    12    53    54    2
    13    53    52    1
    14    25    26    1
    15    51    52    1
    16    45    48    1
    17    37    38    1
    18    28    26   ar
    19    28    30   ar
    20    52    55    1
    21    21    15   am
    22    26    27   ar
    23    49    48    1
    24    16    15    2
    25    55    56    1
    26    38    39    1
    27    48    50    1
    28    15    14    1
    29    30    31   ar
    30    58    57    1
    31    58    59    1
    32    56    57    1
    33    27    29   ar
    34    39    40    1
    35    14    13    1
    36    14    17    1
    37    31    29   ar
    38    31    32    1
    39    40    41    2
    40    17    18    1
    41    99   100    2
    42    99    98    1
    43   103   102    1
    44   103   104    1
    45     4     3    2
    46    98    97    1
    47    98   101    1
    48     3     2    1
    49    41    42    1
    50    41    43    1
    51   102   101    1
    52    18    19    2
    53    18    20   am
    54     1     2    1
    55     2     5    1
    56   126   124    1
    57   125   124    1
    58   124   121    1
    59     8    10   ar
    60     8     6   ar
    61    68    70   ar
    62    68    66   ar
    63    10    11   ar
    64    70    69   ar
    65     5     6    1
    66   123   122    2
    67     6     7   ar
    68    66    65   ar
    69    11    12    1
    70    11     9   ar
    71   120   121    1
    72   121   122    1
    73     7     9   ar
    74    69    67   ar
    75   112   110   ar
    76    65    67   ar
    77    65    64    1
    78   119   117    1
    79   111   110   ar
    80   110   109    1
    81   116   115    2
    82   105   106    1
    83    64    61    1
    84    60    61    1
    85   115   114    1
    86   108   107    2
    87   118   117    1
    88   117   114    1
    89   109   106    1
    90   106   107    1
    91    61    62    1
    92   114   113    1
    93    71    72    1
    94    72    75    1
    95    72    73    1
    96    91    93   ar
    97    91    90   ar
    98    93    95   ar
    99    89    90    1
   100    89    86    1
   101    62    63    2
   102    90    92   ar
   103    83    82   ar
   104    73    74    2
   105    95    96    1
   106    95    94   ar
   107    86    87    1
   108    86    85    1
   109    87    88    2
   110    82    84   ar
   111    82    81    1
   112    92    94   ar
   113    81    80    1
   114    80    77    1
   115    77    76    1
   116    77    78    1
   117    78    79    2
