@<TRIPOS>MOLECULE
tmp/3kpvA01.pdb
 133 124 0 0 0
SMALL
GASTEIGER

@<TRIPOS>ATOM
      1  N         37.7230   48.5650   15.8160 N.3    12  TYR12      -0.1241
      2  CA        36.3000   48.3100   15.9870 C.3    12  TYR12       0.1605
      3  C         35.5520   48.2950   14.6530 C.2    12  TYR12       0.2264
      4  O         34.7140   47.4260   14.4170 O.2    12  TYR12      -0.2867
      5  CB        35.6760   49.3390   16.9240 C.3    12  TYR12       0.0534
      6  CG        34.1730   49.2220   17.0450 C.ar   12  TYR12      -0.0201
      7  CD1       33.5950   48.3110   17.9210 C.ar   12  TYR12      -0.0009
      8  CD2       33.3300   50.0360   16.2920 C.ar   12  TYR12      -0.0009
      9  CE1       32.2140   48.2070   18.0390 C.ar   12  TYR12       0.0417
     10  CE2       31.9470   49.9430   16.4040 C.ar   12  TYR12       0.0417
     11  CZ        31.3980   49.0260   17.2770 C.ar   12  TYR12       0.1957
     12  OH        30.0320   48.9350   17.3960 O.3    12  TYR12      -0.2866
     13  N         33.8660   44.8540   12.8790 N.3    16  ASN16      -0.1225
     14  CA        32.4100   44.8400   12.7890 C.3    16  ASN16       0.1785
     15  C         31.8170   45.3450   11.4800 C.2    16  ASN16       0.2597
     16  O         30.7050   44.9650   11.1090 O.2    16  ASN16      -0.2718
     17  CB        31.8130   45.6110   13.9660 C.3    16  ASN16       0.1169
     18  CG        32.0250   44.9010   15.2830 C.2    16  ASN16       0.2627
     19  OD1       31.4300   43.8630   15.5350 O.2    16  ASN16      -0.2716
     20  ND2       32.8820   45.4540   16.1260 N.am   16  ASN16      -0.0877
     21  N         32.5510   46.1960   10.7760 N.am   17  TYR17      -0.1976
     22  CA        31.9870   46.8310    9.5910 C.3    17  TYR17       0.1639
     23  C         32.8080   46.6010    8.3370 C.2    17  TYR17       0.2290
     24  O         32.5360   47.1860    7.2940 O.2    17  TYR17      -0.2864
     25  CB        31.7260   48.3120    9.8630 C.3    17  TYR17       0.0560
     26  CG        30.6970   48.4520   10.9520 C.ar   17  TYR17      -0.0198
     27  CD1       31.0730   48.6750   12.2710 C.ar   17  TYR17      -0.0009
     28  CD2       29.3470   48.2830   10.6740 C.ar   17  TYR17      -0.0009
     29  CE1       30.1260   48.7720   13.2710 C.ar   17  TYR17       0.0417
     30  CE2       28.4000   48.3690   11.6640 C.ar   17  TYR17       0.0417
     31  CZ        28.7870   48.6150   12.9610 C.ar   17  TYR17       0.1957
     32  OH        27.8300   48.7050   13.9480 O.3    17  TYR17      -0.2866
     33  N         31.5760   40.4630    8.6240 N.3    21  ARG21      -0.1245
     34  CA        30.4100   41.0730    9.2660 C.3    21  ARG21       0.1563
     35  C         29.8570   42.2480    8.4880 C.2    21  ARG21       0.2260
     36  O         28.6680   42.5440    8.5630 O.2    21  ARG21      -0.2867
     37  CB        30.7490   41.5080   10.6900 C.3    21  ARG21       0.0307
     38  CG        31.0700   40.3370   11.5880 C.3    21  ARG21       0.0489
     39  CD        30.5330   40.5640   12.9610 C.3    21  ARG21       0.2205
     40  NE        30.6120   39.3620   13.7830 N.pl3  21  ARG21      -0.0865
     41  CZ        30.4730   39.3800   15.1010 C.cat  21  ARG21       0.5346
     42  NH1       30.2570   40.5400   15.7100 N.pl3  21  ARG21       0.1354
     43  NH2       30.5560   38.2540   15.8050 N.pl3  21  ARG21       0.1354
     44  N         20.1400   44.6880    9.8640 N.3    34  LYS34      -0.1245
     45  CA        20.0780   45.9300   10.6360 C.3    34  LYS34       0.1561
     46  C         19.5170   47.0820    9.8070 C.2    34  LYS34       0.2260
     47  O         18.6080   47.7870   10.2500 O.2    34  LYS34      -0.2867
     48  CB        21.4580   46.2920   11.1820 C.3    34  LYS34       0.0271
     49  CG        22.0160   45.2400   12.1340 C.3    34  LYS34       0.0035
     50  CD        23.0810   45.8090   13.0480 C.3    34  LYS34       0.0206
     51  CE        24.2600   46.3550   12.2680 C.3    34  LYS34       0.1093
     52  NZ        25.2880   46.9620   13.1530 N.3    34  LYS34      -0.1314
     53  N         24.1320   49.3840   20.0210 N.3   159  PHE159     -0.1241
     54  CA        25.2610   48.7150   20.6580 C.3   159  PHE159      0.1605
     55  C         25.9530   49.6070   21.6750 C.2   159  PHE159      0.2264
     56  O         27.1720   49.5420   21.8420 O.2   159  PHE159     -0.2867
     57  CB        26.2670   48.2140   19.6100 C.3   159  PHE159      0.0534
     58  CG        25.6720   47.2710   18.6020 C.ar  159  PHE159     -0.0203
     59  CD1       25.2980   47.7280   17.3440 C.ar  159  PHE159     -0.0042
     60  CD2       25.4720   45.9310   18.9140 C.ar  159  PHE159     -0.0042
     61  CE1       24.7410   46.8630   16.4080 C.ar  159  PHE159     -0.0003
     62  CE2       24.9150   45.0600   17.9900 C.ar  159  PHE159     -0.0003
     63  CZ        24.5510   45.5290   16.7280 C.ar  159  PHE159     -0.0000
     64  N         24.0190   48.1530   26.5860 N.3   162  GLU162     -0.1231
     65  CA        24.5040   46.8640   27.0750 C.3   162  GLU162      0.1699
     66  C         26.0250   46.7950   27.0070 C.2   162  GLU162      0.2592
     67  O         26.6630   46.0970   27.7940 O.2   162  GLU162     -0.2718
     68  CB        23.8670   45.6940   26.3060 C.3   162  GLU162      0.0402
     69  CG        24.4030   45.4440   24.8860 C.3   162  GLU162      0.1161
     70  CD        23.8350   46.3970   23.8240 C.2   162  GLU162      0.3649
     71  OE1       22.9800   47.2560   24.1520 O.co2 162  GLU162     -0.2457
     72  OE2       24.2570   46.2800   22.6510 O.co2 162  GLU162     -0.2457
     73  N         26.5960   47.5360   26.0650 N.am  163  ALA163     -0.1980
     74  CA        28.0420   47.5440   25.8570 C.3   163  ALA163      0.1597
     75  C         28.7870   48.4020   26.8880 C.2   163  ALA163      0.2287
     76  O         30.0100   48.3450   26.9730 O.2   163  ALA163     -0.2864
     77  CB        28.3610   48.0250   24.4450 C.3   163  ALA163      0.0319
     78  N         23.4320   44.0910   21.1130 N.3   193  ALA193     -0.1245
     79  CA        23.9220   42.7140   21.1370 C.3   193  ALA193      0.1562
     80  C         23.1470   41.8260   22.1170 C.2   193  ALA193      0.2260
     81  O         22.8010   42.2520   23.2250 O.2   193  ALA193     -0.2867
     82  CB        25.3960   42.7040   21.4760 C.3   193  ALA193      0.0290
     83  N         25.7300   38.7570   24.8550 N.3   196  GLU196     -0.1245
     84  CA        27.1470   39.0200   24.6840 C.3   196  GLU196      0.1567
     85  C         27.7420   39.3970   26.0350 C.2   196  GLU196      0.2260
     86  O         27.0840   40.0510   26.8430 O.2   196  GLU196     -0.2867
     87  CB        27.3530   40.1570   23.6820 C.3   196  GLU196      0.0388
     88  CG        28.7890   40.6220   23.5650 C.3   196  GLU196      0.1160
     89  CD        29.0060   41.4890   22.3340 C.2   196  GLU196      0.3649
     90  OE1       28.7570   40.9910   21.2140 O.co2 196  GLU196     -0.2457
     91  OE2       29.4240   42.6610   22.4840 O.co2 196  GLU196     -0.2457
     92  N         33.5690   42.0130   24.0150 N.3   199  TYR199     -0.1241
     93  CA        33.9720   42.2150   22.6260 C.3   199  TYR199      0.1605
     94  C         35.2860   42.9830   22.6120 C.2   199  TYR199      0.2264
     95  O         35.6390   43.6220   23.6030 O.2   199  TYR199     -0.2867
     96  CB        32.8770   42.9150   21.8040 C.3   199  TYR199      0.0534
     97  CG        32.7310   44.4010   22.0460 C.ar  199  TYR199     -0.0201
     98  CD1       33.3120   45.3210   21.1780 C.ar  199  TYR199     -0.0009
     99  CD2       32.0000   44.8900   23.1280 C.ar  199  TYR199     -0.0009
    100  CE1       33.1830   46.6870   21.3780 C.ar  199  TYR199      0.0417
    101  CE2       31.8680   46.2620   23.3420 C.ar  199  TYR199      0.0417
    102  CZ        32.4640   47.1530   22.4580 C.ar  199  TYR199      0.1957
    103  OH        32.3380   48.5130   22.6370 O.3   199  TYR199     -0.2866
    104  N         22.7780   35.0730   15.2010 N.3   235  MET235     -0.1245
    105  CA        24.0880   35.1700   14.5540 C.3   235  MET235      0.1570
    106  C         24.5730   33.8340   13.9690 C.2   235  MET235      0.2261
    107  O         24.8740   32.9010   14.7010 O.2   235  MET235     -0.2867
    108  CB        25.1220   35.7380   15.5360 C.3   235  MET235      0.0387
    109  CG        26.4720   36.1010   14.9120 C.3   235  MET235      0.0595
    110  SD        26.4480   37.6160   13.9260 S.3   235  MET235     -0.1393
    111  CE        25.4350   38.6750   14.9430 C.3   235  MET235      0.0692
    112  N         34.2090   38.7780   19.4030 N.3   244  ASP244     -0.1239
    113  CA        33.2760   38.8380   20.5250 C.3   244  ASP244      0.1674
    114  C         32.6250   37.4810   20.7340 C.2   244  ASP244      0.2266
    115  O         33.0420   36.4850   20.1500 O.2   244  ASP244     -0.2867
    116  CB        32.2030   39.9110   20.2970 C.3   244  ASP244      0.1410
    117  CG        31.4180   39.6990   19.0060 C.2   244  ASP244      0.3668
    118  OD1       30.9640   38.5630   18.7450 O.co2 244  ASP244     -0.2456
    119  OD2       31.2550   40.6780   18.2500 O.co2 244  ASP244     -0.2456
    120  N         28.9800   37.4470   20.7330 N.3   246  VAL246     -0.1245
    121  CA        27.5870   37.7990   20.4870 C.3   246  VAL246      0.1561
    122  C         26.8270   36.5460   20.0410 C.2   246  VAL246      0.2260
    123  O         27.3920   35.6800   19.3640 O.2   246  VAL246     -0.2867
    124  CB        27.4880   38.9000   19.4030 C.3   246  VAL246      0.0252
    125  CG1       27.9880   38.3680   18.0600 C.3   246  VAL246      0.0019
    126  CG2       26.0650   39.4250   19.2750 C.3   246  VAL246      0.0019
    127  N         21.3160   39.6560   17.4980 N.3   249  VAL249     -0.1245
    128  CA        21.1300   41.1010   17.5280 C.3   249  VAL249      0.1561
    129  C         19.6450   41.3890   17.6630 C.2   249  VAL249      0.2260
    130  O         18.8290   40.8060   16.9500 O.2   249  VAL249     -0.2867
    131  CB        21.6570   41.7580   16.2310 C.3   249  VAL249      0.0252
    132  CG1       21.3370   43.2390   16.2120 C.3   249  VAL249      0.0019
    133  CG2       23.1530   41.5190   16.0830 C.3   249  VAL249      0.0019
@<TRIPOS>BOND
     1    24    23    2
     2    23    22    1
     3    35    36    2
     4    35    34    1
     5    33    34    1
     6    34    37    1
     7    22    25    1
     8    22    21    1
     9    46    47    2
    10    46    45    1
    11    25    26    1
    12    44    45    1
    13    45    48    1
    14    28    26   ar
    15    28    30   ar
    16    37    38    1
    17    21    15   am
    18    26    27   ar
    19    16    15    2
    20    48    49    1
    21    15    14    1
    22    38    39    1
    23    30    31   ar
    24    49    50    1
    25    51    50    1
    26    51    52    1
    27    27    29   ar
    28    14    13    1
    29    14    17    1
    30    39    40    1
    31    31    29   ar
    32    31    32    1
    33    40    41    2
    34   110   109    1
    35   110   111    1
    36    17    18    1
    37   106   105    1
    38   106   107    2
    39     4     3    2
    40   105   104    1
    41   105   108    1
    42     3     2    1
    43   109   108    1
    44    41    42    1
    45    41    43    1
    46    18    19    2
    47    18    20   am
    48     1     2    1
    49     2     5    1
    50   133   131    1
    51   132   131    1
    52   131   128    1
    53     8    10   ar
    54     8     6   ar
    55    10    11   ar
    56    61    63   ar
    57    61    59   ar
    58    63    62   ar
    59     5     6    1
    60   130   129    2
    61     6     7   ar
    62    11    12    1
    63    11     9   ar
    64    59    58   ar
    65   127   128    1
    66   128   129    1
    67     7     9   ar
    68    62    60   ar
    69   125   124    1
    70   119   117   ar
    71    58    60   ar
    72    58    57    1
    73   118   117   ar
    74   117   116    1
    75   126   124    1
    76   123   122    2
    77   112   113    1
    78   124   121    1
    79    57    54    1
    80    53    54    1
    81   122   121    1
    82   115   114    2
    83   116   113    1
    84   121   120    1
    85   113   114    1
    86    54    55    1
    87    78    79    1
    88    79    82    1
    89    79    80    1
    90    98   100   ar
    91    98    97   ar
    92    90    89   ar
    93   100   102   ar
    94    55    56    2
    95    96    97    1
    96    96    93    1
    97    97    99   ar
    98    80    81    2
    99    89    91   ar
   100    89    88    1
   101   102   103    1
   102   102   101   ar
   103    94    93    1
   104    94    95    2
   105    93    92    1
   106    72    70   ar
   107    99   101   ar
   108    88    87    1
   109    87    84    1
   110    70    71   ar
   111    70    69    1
   112    77    74    1
   113    84    83    1
   114    84    85    1
   115    69    68    1
   116    74    73    1
   117    74    75    1
   118    85    86    2
   119    73    66   am
   120    68    65    1
   121    64    65    1
   122    75    76    2
   123    66    65    1
   124    66    67    2
