@<TRIPOS>MOLECULE
tmp/3kpwA01.pdb
 126 117 0 0 0
SMALL
GASTEIGER

@<TRIPOS>ATOM
      1  N         37.8240   48.7510   15.9640 N.3    12  TYR12      -0.1241
      2  CA        36.4130   48.4390   16.1520 C.3    12  TYR12       0.1605
      3  C         35.6920   48.3670   14.8010 C.2    12  TYR12       0.2264
      4  O         34.9870   47.4030   14.5180 O.2    12  TYR12      -0.2867
      5  CB        35.7370   49.4370   17.0860 C.3    12  TYR12       0.0534
      6  CG        34.2300   49.2580   17.2060 C.ar   12  TYR12      -0.0201
      7  CD1       33.6750   48.3190   18.0840 C.ar   12  TYR12      -0.0009
      8  CD2       33.3560   50.0480   16.4570 C.ar   12  TYR12      -0.0009
      9  CE1       32.2830   48.1650   18.1950 C.ar   12  TYR12       0.0417
     10  CE2       31.9650   49.9010   16.5650 C.ar   12  TYR12       0.0417
     11  CZ        31.4410   48.9650   17.4300 C.ar   12  TYR12       0.1957
     12  OH        30.0780   48.8470   17.5270 O.3    12  TYR12      -0.2866
     13  N         33.9410   44.9650   12.9860 N.3    16  ASN16      -0.1225
     14  CA        32.4780   44.8960   12.9060 C.3    16  ASN16       0.1785
     15  C         31.8480   45.4020   11.6170 C.2    16  ASN16       0.2597
     16  O         30.6650   45.1500   11.3580 O.2    16  ASN16      -0.2718
     17  CB        31.8360   45.6060   14.1010 C.3    16  ASN16       0.1169
     18  CG        32.2360   44.9770   15.4260 C.2    16  ASN16       0.2627
     19  OD1       31.7290   43.9370   15.8080 O.2    16  ASN16      -0.2716
     20  ND2       33.1710   45.5980   16.1070 N.am   16  ASN16      -0.0877
     21  N         32.6390   46.0950   10.8080 N.am   17  TYR17      -0.1976
     22  CA        32.0870   46.8280    9.6910 C.3    17  TYR17       0.1639
     23  C         32.9340   46.6310    8.4540 C.2    17  TYR17       0.2290
     24  O         32.7420   47.3090    7.4670 O.2    17  TYR17      -0.2864
     25  CB        31.9080   48.3020   10.0550 C.3    17  TYR17       0.0560
     26  CG        30.8490   48.4480   11.1250 C.ar   17  TYR17      -0.0198
     27  CD1       31.1880   48.6400   12.4650 C.ar   17  TYR17      -0.0009
     28  CD2       29.5040   48.3100   10.8040 C.ar   17  TYR17      -0.0009
     29  CE1       30.2010   48.7360   13.4390 C.ar   17  TYR17       0.0417
     30  CE2       28.5390   48.3830   11.7490 C.ar   17  TYR17       0.0417
     31  CZ        28.8760   48.6010   13.0680 C.ar   17  TYR17       0.1957
     32  OH        27.8630   48.6870   13.9860 O.3    17  TYR17      -0.2866
     33  N         31.4930   40.5780    8.5800 N.3    21  ARG21      -0.1245
     34  CA        30.3000   41.2660    9.1140 C.3    21  ARG21       0.1563
     35  C         29.9080   42.4800    8.2970 C.2    21  ARG21       0.2260
     36  O         28.7600   42.9420    8.3410 O.2    21  ARG21      -0.2867
     37  CB        30.5460   41.7110   10.5520 C.3    21  ARG21       0.0307
     38  CG        30.8420   40.5520   11.4720 C.3    21  ARG21       0.0489
     39  CD        30.7550   40.9460   12.9020 C.3    21  ARG21       0.2205
     40  NE        30.7900   39.7560   13.7440 N.pl3  21  ARG21      -0.0865
     41  CZ        30.7130   39.7700   15.0720 C.cat  21  ARG21       0.5346
     42  NH1       30.6080   40.9320   15.7370 N.pl3  21  ARG21       0.1354
     43  NH2       30.7630   38.6160   15.7280 N.pl3  21  ARG21       0.1354
     44  N         24.1860   40.2940    9.1470 N.3    30  VAL30      -0.1245
     45  CA        23.7690   41.2440   10.1630 C.3    30  VAL30       0.1561
     46  C         23.6540   42.6800    9.6710 C.2    30  VAL30       0.2260
     47  O         22.7610   43.4120   10.0980 O.2    30  VAL30      -0.2867
     48  CB        24.6960   41.1970   11.4180 C.3    30  VAL30       0.0252
     49  CG1       26.1240   41.6280   11.0680 C.3    30  VAL30       0.0019
     50  CG2       24.1030   42.0430   12.5400 C.3    30  VAL30       0.0019
     51  N         20.2240   44.8440   10.0720 N.3    34  LYS34      -0.1245
     52  CA        20.1300   46.1020   10.7860 C.3    34  LYS34       0.1561
     53  C         19.5600   47.2160    9.9100 C.2    34  LYS34       0.2260
     54  O         18.6140   47.9050   10.3110 O.2    34  LYS34      -0.2867
     55  CB        21.4840   46.4880   11.3530 C.3    34  LYS34       0.0271
     56  CG        21.9640   45.5430   12.4420 C.3    34  LYS34       0.0035
     57  CD        23.1140   46.1440   13.2400 C.3    34  LYS34       0.0206
     58  CE        24.3550   46.3640   12.3750 C.3    34  LYS34       0.1093
     59  NZ        25.5140   46.8290   13.1820 N.3    34  LYS34      -0.1314
     60  N         24.2240   49.4100   20.1050 N.3   159  PHE159     -0.1241
     61  CA        25.3500   48.7280   20.7340 C.3   159  PHE159      0.1605
     62  C         26.0380   49.5590   21.8410 C.2   159  PHE159      0.2264
     63  O         27.2260   49.3670   22.1300 O.2   159  PHE159     -0.2867
     64  CB        26.3600   48.3110   19.6600 C.3   159  PHE159      0.0534
     65  CG        25.7960   47.3720   18.6310 C.ar  159  PHE159     -0.0203
     66  CD1       25.5480   47.8070   17.3360 C.ar  159  PHE159     -0.0042
     67  CD2       25.4980   46.0550   18.9590 C.ar  159  PHE159     -0.0042
     68  CE1       25.0250   46.9270   16.3830 C.ar  159  PHE159     -0.0003
     69  CE2       24.9860   45.1810   18.0240 C.ar  159  PHE159     -0.0003
     70  CZ        24.7500   45.6150   16.7260 C.ar  159  PHE159     -0.0000
     71  N         23.5950   44.1140   21.2750 N.3   193  ALA193     -0.1245
     72  CA        24.0390   42.7340   21.2870 C.3   193  ALA193      0.1562
     73  C         23.2360   41.9350   22.3040 C.2   193  ALA193      0.2260
     74  O         22.8430   42.4510   23.3600 O.2   193  ALA193     -0.2867
     75  CB        25.5050   42.6630   21.5840 C.3   193  ALA193      0.0290
     76  N         25.8430   38.8360   24.9140 N.3   196  GLU196     -0.1245
     77  CA        27.2600   39.0730   24.7140 C.3   196  GLU196      0.1567
     78  C         27.9090   39.4420   26.0650 C.2   196  GLU196      0.2260
     79  O         27.2860   40.1250   26.8880 O.2   196  GLU196     -0.2867
     80  CB        27.4410   40.2110   23.7030 C.3   196  GLU196      0.0388
     81  CG        28.8080   40.8590   23.7470 C.3   196  GLU196      0.1160
     82  CD        29.0690   41.7850   22.5590 C.2   196  GLU196      0.3649
     83  OE1       29.1880   41.2920   21.4200 O.co2 196  GLU196     -0.2457
     84  OE2       29.1790   42.9980   22.7640 O.co2 196  GLU196     -0.2457
     85  N         33.8210   42.0750   24.0710 N.3   199  TYR199     -0.1241
     86  CA        34.2220   42.2650   22.6850 C.3   199  TYR199      0.1605
     87  C         35.5310   43.0350   22.7070 C.2   199  TYR199      0.2264
     88  O         35.8870   43.6230   23.7270 O.2   199  TYR199     -0.2867
     89  CB        33.1420   42.9820   21.8670 C.3   199  TYR199      0.0534
     90  CG        32.9950   44.4480   22.1720 C.ar  199  TYR199     -0.0201
     91  CD1       33.4460   45.3990   21.2600 C.ar  199  TYR199     -0.0009
     92  CD2       32.4090   44.9000   23.3680 C.ar  199  TYR199     -0.0009
     93  CE1       33.3270   46.7630   21.5160 C.ar  199  TYR199      0.0417
     94  CE2       32.2780   46.2800   23.6400 C.ar  199  TYR199      0.0417
     95  CZ        32.7490   47.1930   22.6950 C.ar  199  TYR199      0.1957
     96  OH        32.6520   48.5410   22.8680 O.3   199  TYR199     -0.2866
     97  N         22.8840   35.1560   15.2700 N.3   235  MET235     -0.1245
     98  CA        24.1630   35.3560   14.6080 C.3   235  MET235      0.1570
     99  C         24.6760   34.0690   13.9560 C.2   235  MET235      0.2261
    100  O         25.0030   33.1110   14.6490 O.2   235  MET235     -0.2867
    101  CB        25.1590   35.8870   15.6370 C.3   235  MET235      0.0387
    102  CG        26.4950   36.3140   15.0770 C.3   235  MET235      0.0595
    103  SD        26.5510   37.9380   14.2840 S.3   235  MET235     -0.1393
    104  CE        24.9950   38.6450   14.7500 C.3   235  MET235      0.0692
    105  N         34.4130   38.8380   19.5080 N.3   244  ASP244     -0.1239
    106  CA        33.4840   38.9140   20.6200 C.3   244  ASP244      0.1674
    107  C         32.7680   37.6010   20.7880 C.2   244  ASP244      0.2266
    108  O         33.1610   36.5880   20.2250 O.2   244  ASP244     -0.2867
    109  CB        32.4530   40.0290   20.4340 C.3   244  ASP244      0.1410
    110  CG        31.6350   39.8800   19.1540 C.2   244  ASP244      0.3668
    111  OD1       31.2450   38.7550   18.7650 O.co2 244  ASP244     -0.2456
    112  OD2       31.3640   40.9210   18.5410 O.co2 244  ASP244     -0.2456
    113  N         29.0520   37.6380   20.8490 N.3   246  VAL246     -0.1245
    114  CA        27.6580   38.0060   20.6650 C.3   246  VAL246      0.1561
    115  C         26.9080   36.7660   20.1780 C.2   246  VAL246      0.2260
    116  O         27.4790   35.9500   19.4550 O.2   246  VAL246     -0.2867
    117  CB        27.5400   39.1540   19.6500 C.3   246  VAL246      0.0252
    118  CG1       28.1650   38.7350   18.3310 C.3   246  VAL246      0.0019
    119  CG2       26.0850   39.5610   19.4340 C.3   246  VAL246      0.0019
    120  N         21.3930   39.7320   17.6700 N.3   249  VAL249     -0.1245
    121  CA        21.2750   41.1840   17.7340 C.3   249  VAL249      0.1561
    122  C         19.8000   41.4850   17.8520 C.2   249  VAL249      0.2260
    123  O         18.9850   40.8370   17.1890 O.2   249  VAL249     -0.2867
    124  CB        21.8290   41.8510   16.4470 C.3   249  VAL249      0.0252
    125  CG1       21.4080   43.3170   16.3470 C.3   249  VAL249      0.0019
    126  CG2       23.3540   41.6850   16.3640 C.3   249  VAL249      0.0019
@<TRIPOS>BOND
     1    24    23    2
     2    35    36    2
     3    35    34    1
     4    23    22    1
     5    33    34    1
     6    34    37    1
     7    44    45    1
     8    46    47    2
     9    46    45    1
    10    22    25    1
    11    22    21    1
    12    53    54    2
    13    53    52    1
    14    25    26    1
    15    51    52    1
    16    45    48    1
    17    37    38    1
    18    52    55    1
    19    28    26   ar
    20    28    30   ar
    21    21    15   am
    22    49    48    1
    23    26    27   ar
    24    55    56    1
    25    16    15    2
    26    48    50    1
    27    38    39    1
    28    15    14    1
    29    30    31   ar
    30    58    59    1
    31    58    57    1
    32    56    57    1
    33    27    29   ar
    34    39    40    1
    35    14    13    1
    36    14    17    1
    37    31    29   ar
    38    31    32    1
    39    40    41    2
    40    99    98    1
    41    99   100    2
    42    17    18    1
    43   103   104    1
    44   103   102    1
    45     4     3    2
    46    98    97    1
    47    98   101    1
    48     3     2    1
    49    41    43    1
    50    41    42    1
    51   102   101    1
    52    18    19    2
    53    18    20   am
    54     1     2    1
    55     2     5    1
    56   125   124    1
    57   126   124    1
    58    68    70   ar
    59    68    66   ar
    60   124   121    1
    61     8    10   ar
    62     8     6   ar
    63    10    11   ar
    64    70    69   ar
    65     5     6    1
    66   123   122    2
    67     6     7   ar
    68    66    65   ar
    69    11    12    1
    70    11     9   ar
    71   120   121    1
    72   121   122    1
    73    69    67   ar
    74     7     9   ar
    75   118   117    1
    76   112   110   ar
    77    65    67   ar
    78    65    64    1
    79   111   110   ar
    80   110   109    1
    81   119   117    1
    82   116   115    2
    83   105   106    1
    84   117   114    1
    85    64    61    1
    86    60    61    1
    87   115   114    1
    88   108   107    2
    89   109   106    1
    90   106   107    1
    91   114   113    1
    92    61    62    1
    93    91    93   ar
    94    91    90   ar
    95    71    72    1
    96    72    75    1
    97    72    73    1
    98    83    82   ar
    99    93    95   ar
   100    62    63    2
   101    89    90    1
   102    89    86    1
   103    90    92   ar
   104    73    74    2
   105    82    84   ar
   106    82    81    1
   107    86    87    1
   108    86    85    1
   109    95    96    1
   110    95    94   ar
   111    87    88    2
   112    92    94   ar
   113    80    81    1
   114    80    77    1
   115    77    76    1
   116    77    78    1
   117    78    79    2
