@<TRIPOS>MOLECULE
tmp/3kpxA00.pdb
 262 256 0 0 0
SMALL
GASTEIGER

@<TRIPOS>ATOM
      1  N         13.0620   21.4450   55.6470 N.3    16  HIS16      -0.1241
      2  CA        13.5240   20.0680   55.5310 C.3    16  HIS16       0.1621
      3  C         12.9020   19.0650   56.4910 C.2    16  HIS16       0.2264
      4  O         12.7450   17.9220   56.1370 O.2    16  HIS16      -0.2867
      5  CB        15.0430   20.0000   55.5130 C.3    16  HIS16       0.0745
      6  CG        15.6120   20.4750   54.2130 C.ar   16  HIS16       0.0817
      7  ND1       16.2610   21.6850   54.0780 N.ar   16  HIS16      -0.2268
      8  CD2       15.5360   19.9410   52.9710 C.ar   16  HIS16       0.1154
      9  CE1       16.6020   21.8560   52.8070 C.ar   16  HIS16       0.1986
     10  NE2       16.1690   20.8130   52.1190 N.ar   16  HIS16      -0.2212
     11  N          9.6580   18.1600   54.9100 N.3    19  MET19      -0.1245
     12  CA         9.8930   17.1860   53.8400 C.3    19  MET19       0.1570
     13  C         10.3260   15.8120   54.3730 C.2    19  MET19       0.2261
     14  O          9.9140   14.7740   53.8430 O.2    19  MET19      -0.2867
     15  CB        10.9010   17.7260   52.8270 C.3    19  MET19       0.0387
     16  CG        10.3650   18.9140   52.0130 C.3    19  MET19       0.0595
     17  SD         8.7940   18.5750   51.1700 S.3    19  MET19      -0.1393
     18  CE         9.2810   17.2950   50.0310 C.3    19  MET19       0.0692
     19  N          7.2840   14.0250   55.3850 N.3    22  PHE22      -0.1227
     20  CA         6.5580   13.6660   54.1790 C.3    22  PHE22       0.1736
     21  C          7.1320   12.3640   53.5770 C.2    22  PHE22       0.2595
     22  O          6.3920   11.5220   53.0800 O.2    22  PHE22      -0.2718
     23  CB         6.7090   14.8270   53.1830 C.3    22  PHE22       0.0547
     24  CG         6.3370   14.4810   51.7690 C.ar   22  PHE22      -0.0202
     25  CD1        5.0060   14.4720   51.3670 C.ar   22  PHE22      -0.0042
     26  CD2        7.3190   14.2020   50.8340 C.ar   22  PHE22      -0.0042
     27  CE1        4.6590   14.1650   50.0510 C.ar   22  PHE22      -0.0003
     28  CE2        6.9930   13.9060   49.5200 C.ar   22  PHE22      -0.0003
     29  CZ         5.6540   13.8850   49.1260 C.ar   22  PHE22      -0.0000
     30  N          8.4600   12.2240   53.6140 N.am   23  LEU23      -0.1980
     31  CA         9.1280   10.9950   53.1720 C.3    23  LEU23       0.1596
     32  C          8.9960    9.8460   54.1740 C.2    23  LEU23       0.2287
     33  O          8.9720    8.6780   53.7940 O.2    23  LEU23      -0.2864
     34  CB        10.6070   11.2810   52.8930 C.3    23  LEU23       0.0297
     35  CG        10.8930   12.2580   51.7340 C.3    23  LEU23       0.0022
     36  CD1       12.3700   12.5100   51.6640 C.3    23  LEU23       0.0001
     37  CD2       10.3740   11.7480   50.3660 C.3    23  LEU23       0.0001
     38  N         13.4980    5.6650   49.0340 N.3    36  ILE36      -0.1245
     39  CA        13.5140    6.8380   48.1680 C.3    36  ILE36       0.1561
     40  C         13.5030    6.4170   46.7030 C.2    36  ILE36       0.2260
     41  O         12.7340    6.9470   45.8990 O.2    36  ILE36      -0.2867
     42  CB        14.7630    7.6890   48.4200 C.3    36  ILE36       0.0252
     43  CG1       14.6860    8.3590   49.8010 C.3    36  ILE36       0.0019
     44  CG2       14.9530    8.7190   47.2970 C.3    36  ILE36       0.0019
     45  CD1       13.5090    9.2280   49.9760 C.3    36  ILE36       0.0001
     46  N         10.1690    4.9790   45.6480 N.3    39  LYS39      -0.1231
     47  CA         9.2330    6.0580   45.3560 C.3    39  LYS39       0.1693
     48  C          9.4910    6.6180   43.9490 C.2    39  LYS39       0.2591
     49  O          8.5560    6.8900   43.1930 O.2    39  LYS39      -0.2718
     50  CB         9.3470    7.1810   46.4040 C.3    39  LYS39       0.0285
     51  CG         8.4400    8.3990   46.1430 C.3    39  LYS39       0.0035
     52  CD         8.6530    9.4960   47.1860 C.3    39  LYS39       0.0206
     53  CE         7.6480   10.6440   47.0620 C.3    39  LYS39       0.1093
     54  NZ         6.2520   10.2900   47.4540 N.3    39  LYS39      -0.1314
     55  N         10.7650    6.7820   43.6060 N.am   40  ALA40      -0.1980
     56  CA        11.1450    7.3410   42.3100 C.3    40  ALA40       0.1597
     57  C         10.7680    6.4100   41.1310 C.2    40  ALA40       0.2287
     58  O         10.2750    6.8660   40.0940 O.2    40  ALA40      -0.2864
     59  CB        12.6360    7.6560   42.2960 C.3    40  ALA40       0.0319
     60  N          6.4450    6.7420   41.1280 N.3    44  ILE44      -0.1245
     61  CA         6.3330    7.8670   40.1960 C.3    44  ILE44       0.1561
     62  C          6.5420    7.5070   38.7180 C.2    44  ILE44       0.2260
     63  O          5.6630    7.7590   37.8850 O.2    44  ILE44      -0.2867
     64  CB         7.3180    8.9890   40.5580 C.3    44  ILE44       0.0252
     65  CG1        6.8980    9.6600   41.8640 C.3    44  ILE44       0.0019
     66  CG2        7.4120   10.0190   39.4220 C.3    44  ILE44       0.0019
     67  CD1        8.0030   10.5470   42.4520 C.3    44  ILE44       0.0001
     68  N         16.3670    8.7230   35.5890 N.3    58  HIS58      -0.1241
     69  CA        15.7140    9.3540   36.7320 C.3    58  HIS58       0.1621
     70  C         16.1780    8.6850   38.0310 C.2    58  HIS58       0.2264
     71  O         16.4520    9.3640   39.0220 O.2    58  HIS58      -0.2867
     72  CB        14.1870    9.3110   36.5530 C.3    58  HIS58       0.0745
     73  CG        13.4090    9.7930   37.7440 C.ar   58  HIS58       0.0817
     74  ND1       13.0420   11.1170   37.9240 N.ar   58  HIS58      -0.2268
     75  CD2       12.8990    9.1200   38.7960 C.ar   58  HIS58       0.1154
     76  CE1       12.3430   11.2340   39.0420 C.ar   58  HIS58       0.1986
     77  NE2       12.2480   10.0330   39.5930 N.ar   58  HIS58      -0.2212
     78  N         18.1510   10.5530   41.1620 N.3    62  VAL62      -0.1245
     79  CA        17.6210   10.5340   42.5190 C.3    62  VAL62       0.1561
     80  C         18.6270    9.8650   43.4540 C.2    62  VAL62       0.2260
     81  O         18.8620   10.3410   44.5680 O.2    62  VAL62      -0.2867
     82  CB        16.2440    9.7990   42.5800 C.3    62  VAL62       0.0252
     83  CG1       15.8040    9.5390   44.0450 C.3    62  VAL62       0.0019
     84  CG2       15.1930   10.5900   41.8360 C.3    62  VAL62       0.0019
     85  N         20.4310   11.8490   46.6280 N.3    66  PHE66      -0.1241
     86  CA        20.2530   11.4380   48.0240 C.3    66  PHE66       0.1605
     87  C         21.4830   10.7520   48.6460 C.2    66  PHE66       0.2264
     88  O         21.6960   10.8060   49.8680 O.2    66  PHE66      -0.2867
     89  CB        18.9740   10.6150   48.1690 C.3    66  PHE66       0.0534
     90  CG        17.7250   11.4700   48.1330 C.ar   66  PHE66      -0.0203
     91  CD1       17.2810   12.1250   49.2760 C.ar   66  PHE66      -0.0042
     92  CD2       17.0300   11.6610   46.9530 C.ar   66  PHE66      -0.0042
     93  CE1       16.1390   12.9400   49.2400 C.ar   66  PHE66      -0.0003
     94  CE2       15.8960   12.4760   46.9110 C.ar   66  PHE66      -0.0003
     95  CZ        15.4510   13.1130   48.0480 C.ar   66  PHE66      -0.0000
     96  N         20.1510   13.7040   58.4570 N.3    82  PHE82      -0.1241
     97  CA        19.5800   14.0850   57.1590 C.3    82  PHE82       0.1605
     98  C         19.8010   15.5800   56.8690 C.2    82  PHE82       0.2264
     99  O         20.3320   15.9530   55.8270 O.2    82  PHE82      -0.2867
    100  CB        18.0780   13.7400   57.1980 C.3    82  PHE82       0.0534
    101  CG        17.3020   14.0430   55.9270 C.ar   82  PHE82      -0.0203
    102  CD1       17.3250   13.1600   54.8530 C.ar   82  PHE82      -0.0042
    103  CD2       16.4680   15.1560   55.8550 C.ar   82  PHE82      -0.0042
    104  CE1       16.5510   13.4060   53.7060 C.ar   82  PHE82      -0.0003
    105  CE2       15.6940   15.4070   54.7310 C.ar   82  PHE82      -0.0003
    106  CZ        15.7360   14.5230   53.6510 C.ar   82  PHE82      -0.0000
    107  N         22.1260   17.7140   54.0260 N.3    86  TRP86      -0.1241
    108  CA        21.7070   18.7680   53.1010 C.3    86  TRP86       0.1605
    109  C         22.7550   19.8740   53.0170 C.2    86  TRP86       0.2264
    110  O         22.9000   20.5310   51.9940 O.2    86  TRP86      -0.2867
    111  CB        20.3270   19.3220   53.4790 C.3    86  TRP86       0.0550
    112  CG        19.2420   18.4920   52.8820 C.ar   86  TRP86       0.0003
    113  CD1       18.6640   17.3810   53.4120 C.ar   86  TRP86       0.0946
    114  CD2       18.6660   18.6670   51.5880 C.ar   86  TRP86       0.0152
    115  NE1       17.7210   16.8750   52.5430 N.ar   86  TRP86      -0.2442
    116  CE2       17.7100   17.6540   51.4140 C.ar   86  TRP86       0.0810
    117  CE3       18.8450   19.6130   50.5750 C.ar   86  TRP86       0.0012
    118  CZ2       16.9330   17.5490   50.2520 C.ar   86  TRP86       0.0191
    119  CZ3       18.0770   19.5040   49.4180 C.ar   86  TRP86       0.0001
    120  CH2       17.1330   18.4910   49.2780 C.ar   86  TRP86       0.0015
    121  N         20.9790   18.7510   41.6280 N.3   105  ILE105     -0.1245
    122  CA        19.5860   19.2190   41.5950 C.3   105  ILE105      0.1561
    123  C         19.1320   19.4830   40.1410 C.2   105  ILE105      0.2260
    124  O         17.9910   19.1970   39.7720 O.2   105  ILE105     -0.2867
    125  CB        19.3180   20.4540   42.5440 C.3   105  ILE105      0.0252
    126  CG1       17.8170   20.7530   42.6690 C.3   105  ILE105      0.0019
    127  CG2       19.9890   21.7140   42.0510 C.3   105  ILE105      0.0019
    128  CD1       17.0680   19.7720   43.4990 C.3   105  ILE105      0.0001
    129  N         18.5550   16.0790   38.4420 N.3   108  TRP108     -0.1227
    130  CA        17.2500   15.5630   38.8330 C.3   108  TRP108      0.1737
    131  C         16.1150   16.2300   38.0380 C.2   108  TRP108      0.2596
    132  O         15.2260   15.5420   37.4970 O.2   108  TRP108     -0.2718
    133  CB        17.0540   15.7660   40.3370 C.3   108  TRP108      0.0564
    134  CG        15.8530   15.0590   40.9290 C.ar  108  TRP108      0.0003
    135  CD1       15.0190   14.1910   40.2990 C.ar  108  TRP108      0.0946
    136  CD2       15.4000   15.1390   42.2790 C.ar  108  TRP108      0.0152
    137  NE1       14.0460   13.7470   41.1580 N.ar  108  TRP108     -0.2442
    138  CE2       14.2610   14.3010   42.3890 C.ar  108  TRP108      0.0810
    139  CE3       15.8410   15.8290   43.4100 C.ar  108  TRP108      0.0012
    140  CZ2       13.5590   14.1350   43.5850 C.ar  108  TRP108      0.0191
    141  CZ3       15.1280   15.6660   44.6050 C.ar  108  TRP108      0.0001
    142  CH2       14.0060   14.8250   44.6740 C.ar  108  TRP108      0.0015
    143  N         16.1520   17.5600   37.9570 N.am  109  GLY109     -0.1957
    144  CA        15.1910   18.3000   37.1580 C.3   109  GLY109      0.1869
    145  C         15.1720   17.8690   35.6890 C.2   109  GLY109      0.2309
    146  O         14.1020   17.7280   35.0960 O.2   109  GLY109     -0.2863
    147  N         13.3880   14.4360   35.4920 N.3   112  VAL112     -0.1231
    148  CA        11.9400   14.5370   35.6460 C.3   112  VAL112      0.1692
    149  C         11.2970   15.1570   34.4060 C.2   112  VAL112      0.2592
    150  O         10.3190   14.6050   33.8560 O.2   112  VAL112     -0.2718
    151  CB        11.5330   15.3850   36.8910 C.3   112  VAL112      0.0266
    152  CG1       10.0050   15.6110   36.9060 C.3   112  VAL112      0.0020
    153  CG2       12.0040   14.6890   38.2080 C.3   112  VAL112      0.0020
    154  N         11.8340   16.2940   33.9540 N.am  113  PHE113     -0.1976
    155  CA        11.1900   17.0080   32.8420 C.3   113  PHE113      0.1639
    156  C         11.2690   16.1580   31.5880 C.2   113  PHE113      0.2290
    157  O         10.3560   16.1780   30.7490 O.2   113  PHE113     -0.2864
    158  CB        11.8460   18.3660   32.5740 C.3   113  PHE113      0.0560
    159  CG        11.4370   19.4360   33.5530 C.ar  113  PHE113     -0.0200
    160  CD1       10.9480   19.0910   34.8120 C.ar  113  PHE113     -0.0042
    161  CD2       11.5390   20.7760   33.2250 C.ar  113  PHE113     -0.0042
    162  CE1       10.5680   20.0760   35.7340 C.ar  113  PHE113     -0.0003
    163  CE2       11.1750   21.7660   34.1570 C.ar  113  PHE113     -0.0003
    164  CZ        10.6990   21.4200   35.3930 C.ar  113  PHE113     -0.0000
    165  N          3.0020   19.5990   35.3970 N.3   129  TRP129     -0.1241
    166  CA         3.4210   19.8380   36.7740 C.3   129  TRP129      0.1605
    167  C          2.3290   19.3670   37.7620 C.2   129  TRP129      0.2264
    168  O          2.6430   18.7980   38.8050 O.2   129  TRP129     -0.2867
    169  CB         3.7850   21.3100   36.9740 C.3   129  TRP129      0.0550
    170  CG         4.2570   21.6440   38.3570 C.ar  129  TRP129      0.0003
    171  CD1        3.6800   22.5390   39.2310 C.ar  129  TRP129      0.0946
    172  CD2        5.3840   21.0840   39.0430 C.ar  129  TRP129      0.0152
    173  NE1        4.4000   22.5880   40.3990 N.ar  129  TRP129     -0.2442
    174  CE2        5.4420   21.6950   40.3210 C.ar  129  TRP129      0.0810
    175  CE3        6.3520   20.1290   38.7040 C.ar  129  TRP129      0.0012
    176  CZ2        6.4320   21.3780   41.2650 C.ar  129  TRP129      0.0191
    177  CZ3        7.3400   19.8260   39.6380 C.ar  129  TRP129      0.0001
    178  CH2        7.3770   20.4560   40.9020 C.ar  129  TRP129      0.0015
    179  N          2.8110   15.5310   37.8660 N.3   132  TYR132     -0.1241
    180  CA         3.9600   15.1280   38.6420 C.3   132  TYR132      0.1605
    181  C          3.6830   15.4610   40.1130 C.2   132  TYR132      0.2264
    182  O          3.8880   14.6290   40.9880 O.2   132  TYR132     -0.2867
    183  CB         5.2560   15.8390   38.1880 C.3   132  TYR132      0.0534
    184  CG         6.3730   15.5340   39.1610 C.ar  132  TYR132     -0.0201
    185  CD1        7.0830   14.3490   39.0550 C.ar  132  TYR132     -0.0009
    186  CD2        6.6500   16.3800   40.2400 C.ar  132  TYR132     -0.0009
    187  CE1        8.0750   14.0140   39.9630 C.ar  132  TYR132      0.0417
    188  CE2        7.6400   16.0430   41.1660 C.ar  132  TYR132      0.0417
    189  CZ         8.3470   14.8560   41.0060 C.ar  132  TYR132      0.1957
    190  OH         9.3320   14.4860   41.8880 O.3   132  TYR132     -0.2866
    191  N          3.8220   12.4210   42.8370 N.3   136  SER136     -0.1217
    192  CA         4.8900   12.4370   43.8380 C.3   136  SER136      0.1889
    193  C          4.3640   12.8740   45.2040 C.2   136  SER136      0.2288
    194  O          4.9120   12.4790   46.2250 O.2   136  SER136     -0.2866
    195  CB         6.0220   13.3760   43.4080 C.3   136  SER136      0.2089
    196  OG         5.6010   14.7180   43.4520 O.3   136  SER136     -0.2183
    197  N          4.3170   16.0890   46.1750 N.3   138  ILE138     -0.1245
    198  CA         4.9500   17.3180   46.6530 C.3   138  ILE138      0.1561
    199  C          4.1870   18.6080   46.2680 C.2   138  ILE138      0.2260
    200  O          4.4360   19.6750   46.8290 O.2   138  ILE138     -0.2867
    201  CB         6.4380   17.4060   46.2110 C.3   138  ILE138      0.0252
    202  CG1        7.1760   18.4580   47.0590 C.3   138  ILE138      0.0019
    203  CG2        6.5330   17.6640   44.7020 C.3   138  ILE138      0.0019
    204  CD1        8.6980   18.3910   46.9350 C.3   138  ILE138      0.0001
    205  N         13.6980   23.9140   32.7380 N.3   162  VAL162     -0.1245
    206  CA        14.5720   23.3360   33.7510 C.3   162  VAL162      0.1561
    207  C         15.5370   24.3430   34.3750 C.2   162  VAL162      0.2260
    208  O         15.8600   24.2360   35.5660 O.2   162  VAL162     -0.2867
    209  CB        15.3110   22.0860   33.2240 C.3   162  VAL162      0.0252
    210  CG1       16.1810   22.4410   32.0460 C.3   162  VAL162      0.0019
    211  CG2       16.1270   21.4180   34.3410 C.3   162  VAL162      0.0019
    212  N         13.4450   26.2800   36.9780 N.3   165  MET165     -0.1230
    213  CA        13.1500   25.4840   38.1630 C.3   165  MET165      0.1702
    214  C         14.4250   25.2040   38.9690 C.2   165  MET165      0.2593
    215  O         14.3790   25.1620   40.2010 O.2   165  MET165     -0.2718
    216  CB        12.4060   24.2000   37.8110 C.3   165  MET165      0.0401
    217  CG        11.7660   23.5380   39.0380 C.3   165  MET165      0.0596
    218  SD        10.7120   24.6600   39.9910 S.3   165  MET165     -0.1393
    219  CE         9.5680   23.4920   40.7270 C.3   165  MET165      0.0692
    220  N         15.5660   25.0590   38.2870 N.am  166  THR166     -0.1953
    221  CA        16.8270   24.8700   39.0010 C.3   166  THR166      0.1897
    222  C         17.1930   26.0930   39.8480 C.2   166  THR166      0.2313
    223  O         17.5310   25.9620   41.0280 O.2   166  THR166     -0.2863
    224  CB        18.0080   24.4700   38.0680 C.3   166  THR166      0.1794
    225  OG1       17.7170   23.2210   37.4390 O.3   166  THR166     -0.2208
    226  CG2       19.3190   24.3250   38.8630 C.3   166  THR166      0.0378
    227  N         14.8540   26.1470   42.8590 N.3   169  HIS169     -0.1241
    228  CA        15.2470   25.0820   43.7620 C.3   169  HIS169      0.1621
    229  C         16.4910   25.3800   44.5960 C.2   169  HIS169      0.2264
    230  O         16.5440   25.0190   45.7760 O.2   169  HIS169     -0.2867
    231  CB        15.4320   23.7630   42.9990 C.3   169  HIS169      0.0745
    232  CG        14.1620   22.9990   42.8260 C.ar  169  HIS169      0.0817
    233  ND1       14.0110   22.0110   41.8800 N.ar  169  HIS169     -0.2268
    234  CD2       12.9770   23.0930   43.4660 C.ar  169  HIS169      0.1154
    235  CE1       12.7880   21.5120   41.9640 C.ar  169  HIS169      0.1986
    236  NE2       12.1400   22.1570   42.9160 N.ar  169  HIS169     -0.2212
    237  N         15.5740   25.0870   48.3400 N.3   173  TRP173     -0.1241
    238  CA        16.0840   23.9680   49.1240 C.3   173  TRP173      0.1605
    239  C         17.4230   24.2540   49.7940 C.2   173  TRP173      0.2264
    240  O         17.7140   23.6810   50.8300 O.2   173  TRP173     -0.2867
    241  CB        16.1820   22.6670   48.2960 C.3   173  TRP173      0.0550
    242  CG        14.8810   22.2050   47.7220 C.ar  173  TRP173      0.0003
    243  CD1       14.6100   21.9690   46.3950 C.ar  173  TRP173      0.0946
    244  CD2       13.6610   21.9370   48.4350 C.ar  173  TRP173      0.0152
    245  NE1       13.3020   21.5510   46.2500 N.ar  173  TRP173     -0.2442
    246  CE2       12.7010   21.5190   47.4810 C.ar  173  TRP173      0.0810
    247  CE3       13.2980   21.9630   49.7910 C.ar  173  TRP173      0.0012
    248  CZ2       11.3870   21.1680   47.8370 C.ar  173  TRP173      0.0191
    249  CZ3       11.9900   21.6140   50.1400 C.ar  173  TRP173      0.0001
    250  CH2       11.0580   21.2170   49.1660 C.ar  173  TRP173      0.0015
    251  N          6.1800   26.0700   46.2130 N.3   184  TYR184     -0.1241
    252  CA         5.2430   24.9470   46.2230 C.3   184  TYR184      0.1605
    253  C          3.8760   25.3580   46.7590 C.2   184  TYR184      0.2264
    254  O          3.1850   24.5820   47.4320 O.2   184  TYR184     -0.2867
    255  CB         5.8440   23.7800   47.0260 C.3   184  TYR184      0.0534
    256  CG         6.9700   23.1130   46.2550 C.ar  184  TYR184     -0.0201
    257  CD1        6.7030   22.0340   45.4370 C.ar  184  TYR184     -0.0009
    258  CD2        8.2780   23.5960   46.3130 C.ar  184  TYR184     -0.0009
    259  CE1        7.6950   21.4180   44.7150 C.ar  184  TYR184      0.0417
    260  CE2        9.2970   22.9820   45.5840 C.ar  184  TYR184      0.0417
    261  CZ         8.9810   21.8880   44.7830 C.ar  184  TYR184      0.1957
    262  OH         9.9330   21.2400   44.0210 O.3   184  TYR184     -0.2866
@<TRIPOS>BOND
     1   157   156    2
     2   156   155    1
     3   210   209    1
     4   158   155    1
     5   158   159    1
     6   205   206    1
     7   155   154    1
     8   209   206    1
     9   209   211    1
    10   161   159   ar
    11   161   163   ar
    12   159   160   ar
    13   206   207    1
    14   150   149    2
    15   154   149   am
    16   163   164   ar
    17   207   208    2
    18   149   148    1
    19   160   162   ar
    20   146   145    2
    21   164   162   ar
    22   165   166    1
    23   147   148    1
    24    68    69    1
    25   148   151    1
    26   145   144    1
    27    72    69    1
    28    72    73    1
    29    69    70    1
    30   166   169    1
    31   166   167    1
    32   151   152    1
    33   151   153    1
    34   169   170    1
    35   212   213    1
    36   144   143    1
    37   225   224    1
    38   132   131    2
    39    73    74   ar
    40    73    75   ar
    41   167   168    2
    42   216   213    1
    43   216   217    1
    44   179   180    1
    45    63    62    2
    46    74    76   ar
    47   143   131   am
    48    70    71    2
    49   131   130    1
    50   224   226    1
    51   224   221    1
    52   213   214    1
    53   183   180    1
    54   183   184    1
    55   220   214   am
    56   220   221    1
    57   170   172   ar
    58   170   171   ar
    59   129   130    1
    60   180   181    1
    61   175   172   ar
    62   175   177   ar
    63    62    61    1
    64    75    77   ar
    65   130   133    1
    66   214   215    2
    67   221   222    1
    68   217   218    1
    69    76    77   ar
    70   172   174   ar
    71   185   184   ar
    72   185   187   ar
    73   184   186   ar
    74   171   173   ar
    75    66    64    1
    76   177   178   ar
    77   124   123    2
    78   222   223    2
    79   187   189   ar
    80   218   219    1
    81    58    57    2
    82   181   182    2
    83   123   122    1
    84    61    64    1
    85    61    60    1
    86   186   188   ar
    87   135   134   ar
    88   135   137   ar
    89   174   173   ar
    90   174   176   ar
    91   133   134    1
    92    64    65    1
    93   178   176   ar
    94   134   136   ar
    95   189   188   ar
    96   189   190    1
    97    57    56    1
    98   137   138   ar
    99    78    79    1
   100   122   121    1
   101   122   125    1
   102    84    82    1
   103    65    67    1
   104   233   235   ar
   105   233   232   ar
   106   235   236   ar
   107   127   125    1
   108   136   138   ar
   109   136   139   ar
   110    59    56    1
   111    56    55    1
   112   138   140   ar
   113    79    82    1
   114    79    80    1
   115   125   126    1
   116    82    83    1
   117   126   128    1
   118   232   231    1
   119   232   234   ar
   120   191   192    1
   121   227   228    1
   122   236   234   ar
   123   231   228    1
   124    49    48    2
   125   195   196    1
   126   195   192    1
   127   139   141   ar
   128    80    81    2
   129   140   142   ar
   130    55    48   am
   131   228   229    1
   132   192   193    1
   133    48    47    1
   134   262   261    1
   135   229   230    2
   136   141   142   ar
   137   203   201    1
   138   259   261   ar
   139   259   257   ar
   140   261   260   ar
   141   193   194    2
   142    47    46    1
   143    47    50    1
   144   257   256   ar
   145   260   258   ar
   146    41    40    2
   147    51    50    1
   148    51    52    1
   149   197   198    1
   150   201   198    1
   151   201   202    1
   152   251   252    1
   153   252   253    1
   154   252   255    1
   155   245   243   ar
   156   245   246   ar
   157   256   258   ar
   158   256   255    1
   159   199   198    1
   160   199   200    2
   161   243   242   ar
   162    85    86    1
   163    40    39    1
   164   253   254    2
   165    94    92   ar
   166    94    95   ar
   167   204   202    1
   168    92    90   ar
   169    53    52    1
   170    53    54    1
   171    44    42    1
   172   246   248   ar
   173   246   244   ar
   174   242   241    1
   175   242   244   ar
   176   248   250   ar
   177    86    89    1
   178    86    87    1
   179    95    93   ar
   180    90    89    1
   181    90    91   ar
   182    39    42    1
   183    39    38    1
   184   241   238    1
   185   237   238    1
   186    42    43    1
   187   244   247   ar
   188    87    88    2
   189   238   239    1
   190    29    28   ar
   191    29    27   ar
   192   250   249   ar
   193    93    91   ar
   194   120   119   ar
   195   120   118   ar
   196   119   117   ar
   197    28    26   ar
   198   247   249   ar
   199   239   240    2
   200    43    45    1
   201    18    17    1
   202    27    25   ar
   203   118   116   ar
   204    37    35    1
   205   117   114   ar
   206    26    24   ar
   207    17    16    1
   208    25    24   ar
   209   116   114   ar
   210   116   115   ar
   211   114   112   ar
   212    36    35    1
   213    35    34    1
   214    24    23    1
   215   110   109    2
   216    16    15    1
   217    10     9   ar
   218    10     8   ar
   219   115   113   ar
   220     9     7   ar
   221    15    12    1
   222   112   113   ar
   223   112   111    1
   224    34    31    1
   225     8     6   ar
   226   109   108    1
   227    22    21    2
   228   108   111    1
   229   108   107    1
   230    31    30    1
   231    31    32    1
   232    23    20    1
   233    21    30   am
   234    21    20    1
   235   106   104   ar
   236   106   105   ar
   237   104   102   ar
   238    33    32    2
   239    12    13    1
   240    12    11    1
   241    14    13    2
   242     7     6   ar
   243    20    19    1
   244     6     5    1
   245   105   103   ar
   246   102   101   ar
   247     5     2    1
   248     2     1    1
   249     2     3    1
   250    99    98    2
   251   103   101   ar
   252   101   100    1
   253     4     3    2
   254    98    97    1
   255    97   100    1
   256    97    96    1
