@<TRIPOS>MOLECULE
tmp/3kpyA01.pdb
 131 121 0 0 0
SMALL
GASTEIGER

@<TRIPOS>ATOM
      1  N         37.8450   48.7230   15.8350 N.3    12  TYR12      -0.1241
      2  CA        36.4230   48.4300   15.9940 C.3    12  TYR12       0.1605
      3  C         35.6680   48.4110   14.6570 C.2    12  TYR12       0.2264
      4  O         34.8600   47.5120   14.4020 O.2    12  TYR12      -0.2867
      5  CB        35.7740   49.4200   16.9570 C.3    12  TYR12       0.0534
      6  CG        34.2740   49.2690   17.0830 C.ar   12  TYR12      -0.0201
      7  CD1       33.7170   48.3190   17.9310 C.ar   12  TYR12      -0.0009
      8  CD2       33.4140   50.0880   16.3600 C.ar   12  TYR12      -0.0009
      9  CE1       32.3410   48.1880   18.0510 C.ar   12  TYR12       0.0417
     10  CE2       32.0420   49.9650   16.4690 C.ar   12  TYR12       0.0417
     11  CZ        31.5090   49.0150   17.3160 C.ar   12  TYR12       0.1957
     12  OH        30.1440   48.9010   17.4280 O.3    12  TYR12      -0.2866
     13  N         33.9190   44.9750   12.9690 N.3    16  ASN16      -0.1225
     14  CA        32.4640   44.9210   12.8520 C.3    16  ASN16       0.1785
     15  C         31.8910   45.4320   11.5410 C.2    16  ASN16       0.2597
     16  O         30.7680   45.0880   11.1760 O.2    16  ASN16      -0.2718
     17  CB        31.8110   45.6490   14.0300 C.3    16  ASN16       0.1169
     18  CG        32.0690   44.9530   15.3520 C.2    16  ASN16       0.2627
     19  OD1       31.5800   43.8540   15.5900 O.2    16  ASN16      -0.2716
     20  ND2       32.8540   45.5860   16.2090 N.am   16  ASN16      -0.0877
     21  N         32.6560   46.2440   10.8220 N.am   17  TYR17      -0.1976
     22  CA        32.1040   46.8940    9.6410 C.3    17  TYR17       0.1639
     23  C         32.9160   46.6670    8.3710 C.2    17  TYR17       0.2290
     24  O         32.6440   47.2690    7.3340 O.2    17  TYR17      -0.2864
     25  CB        31.8380   48.3730    9.9340 C.3    17  TYR17       0.0560
     26  CG        30.7940   48.5020   11.0150 C.ar   17  TYR17      -0.0198
     27  CD1       31.1530   48.7210   12.3370 C.ar   17  TYR17      -0.0009
     28  CD2       29.4480   48.3310   10.7220 C.ar   17  TYR17      -0.0009
     29  CE1       30.1930   48.8070   13.3300 C.ar   17  TYR17       0.0417
     30  CE2       28.4900   48.4130   11.6990 C.ar   17  TYR17       0.0417
     31  CZ        28.8620   48.6500   13.0020 C.ar   17  TYR17       0.1957
     32  OH        27.8940   48.7340   13.9790 O.3    17  TYR17      -0.2866
     33  N         31.5260   40.5620    8.5140 N.3    21  ARG21      -0.1245
     34  CA        30.3600   41.2330    9.0900 C.3    21  ARG21       0.1563
     35  C         29.9720   42.4900    8.3280 C.2    21  ARG21       0.2260
     36  O         28.8320   42.9430    8.4070 O.2    21  ARG21      -0.2867
     37  CB        30.6020   41.5740   10.5580 C.3    21  ARG21       0.0307
     38  CG        30.6850   40.3500   11.4410 C.3    21  ARG21       0.0489
     39  CD        30.8160   40.7320   12.8780 C.3    21  ARG21       0.2205
     40  NE        30.8140   39.5570   13.7390 N.pl3  21  ARG21      -0.0865
     41  CZ        30.6980   39.6100   15.0610 C.cat  21  ARG21       0.5346
     42  NH1       30.5660   40.7880   15.6660 N.pl3  21  ARG21       0.1354
     43  NH2       30.7140   38.4900   15.7740 N.pl3  21  ARG21       0.1354
     44  N         24.3770   40.2780    9.0890 N.3    30  VAL30      -0.1245
     45  CA        23.9220   41.1880   10.1430 C.3    30  VAL30       0.1561
     46  C         23.7760   42.6400    9.6650 C.2    30  VAL30       0.2260
     47  O         22.8660   43.3580   10.0860 O.2    30  VAL30      -0.2867
     48  CB        24.8620   41.1250   11.3820 C.3    30  VAL30       0.0252
     49  CG1       26.2770   41.5870   11.0160 C.3    30  VAL30       0.0019
     50  CG2       24.2920   41.9420   12.5390 C.3    30  VAL30       0.0019
     51  N         20.2700   44.7890    9.9970 N.3    34  LYS34      -0.1245
     52  CA        20.2090   46.0380   10.7520 C.3    34  LYS34       0.1561
     53  C         19.6350   47.1910    9.9290 C.2    34  LYS34       0.2260
     54  O         18.7300   47.8990   10.3790 O.2    34  LYS34      -0.2867
     55  CB        21.5890   46.4010   11.3020 C.3    34  LYS34       0.0271
     56  CG        22.0780   45.4370   12.3810 C.3    34  LYS34       0.0035
     57  CD        23.1980   46.0250   13.2210 C.3    34  LYS34       0.0206
     58  CE        24.4370   46.3140   12.3940 C.3    34  LYS34       0.1093
     59  NZ        25.5050   46.9550   13.2040 N.3    34  LYS34      -0.1314
     60  N         24.2340   49.4440   20.1760 N.3   159  PHE159     -0.1241
     61  CA        25.3560   48.7550   20.8000 C.3   159  PHE159      0.1605
     62  C         26.0820   49.6120   21.8260 C.2   159  PHE159      0.2264
     63  O         27.2770   49.4390   22.0540 O.2   159  PHE159     -0.2867
     64  CB        26.3360   48.2600   19.7370 C.3   159  PHE159      0.0534
     65  CG        25.7150   47.3440   18.7270 C.ar  159  PHE159     -0.0203
     66  CD1       25.3540   47.8170   17.4740 C.ar  159  PHE159     -0.0042
     67  CD2       25.4860   46.0110   19.0290 C.ar  159  PHE159     -0.0042
     68  CE1       24.7820   46.9700   16.5400 C.ar  159  PHE159     -0.0003
     69  CE2       24.9150   45.1590   18.0990 C.ar  159  PHE159     -0.0003
     70  CZ        24.5610   45.6400   16.8530 C.ar  159  PHE159     -0.0000
     71  N         26.8130   47.5640   26.2270 N.3   163  ALA163     -0.1245
     72  CA        28.2610   47.5910   26.0490 C.3   163  ALA163      0.1562
     73  C         28.9850   48.4760   27.0650 C.2   163  ALA163      0.2260
     74  O         30.2130   48.4870   27.1110 O.2   163  ALA163     -0.2867
     75  CB        28.6040   48.0450   24.6200 C.3   163  ALA163      0.0290
     76  N         23.5740   44.1220   21.2550 N.3   193  ALA193     -0.1245
     77  CA        24.0290   42.7380   21.2810 C.3   193  ALA193      0.1562
     78  C         23.2120   41.9000   22.2570 C.2   193  ALA193      0.2260
     79  O         22.8090   42.3760   23.3250 O.2   193  ALA193     -0.2867
     80  CB        25.5000   42.6700   21.6370 C.3   193  ALA193      0.0290
     81  N         25.8320   38.8200   24.9620 N.3   196  GLU196     -0.1245
     82  CA        27.2520   39.0770   24.7860 C.3   196  GLU196      0.1567
     83  C         27.8930   39.4670   26.1200 C.2   196  GLU196      0.2260
     84  O         27.2780   40.1680   26.9330 O.2   196  GLU196     -0.2867
     85  CB        27.4610   40.1870   23.7560 C.3   196  GLU196      0.0388
     86  CG        28.8910   40.6690   23.6570 C.3   196  GLU196      0.1160
     87  CD        29.0950   41.6370   22.5040 C.2   196  GLU196      0.3649
     88  OE1       29.0490   41.2010   21.3310 O.co2 196  GLU196     -0.2457
     89  OE2       29.3030   42.8330   22.7740 O.co2 196  GLU196     -0.2457
     90  N         33.7510   42.1080   23.9940 N.3   199  TYR199     -0.1241
     91  CA        34.1820   42.3220   22.6220 C.3   199  TYR199      0.1605
     92  C         35.4840   43.1040   22.6150 C.2   199  TYR199      0.2264
     93  O         35.8080   43.7880   23.5860 O.2   199  TYR199     -0.2867
     94  CB        33.1100   43.0370   21.8070 C.3   199  TYR199      0.0534
     95  CG        32.9620   44.5110   22.0960 C.ar  199  TYR199     -0.0201
     96  CD1       33.5530   45.4570   21.2700 C.ar  199  TYR199     -0.0009
     97  CD2       32.2070   44.9610   23.1710 C.ar  199  TYR199     -0.0009
     98  CE1       33.4100   46.8140   21.5080 C.ar  199  TYR199      0.0417
     99  CE2       32.0590   46.3200   23.4220 C.ar  199  TYR199      0.0417
    100  CZ        32.6640   47.2410   22.5830 C.ar  199  TYR199      0.1957
    101  OH        32.5260   48.5950   22.8030 O.3   199  TYR199     -0.2866
    102  N         22.9460   35.2950   15.2420 N.3   235  MET235     -0.1245
    103  CA        24.2580   35.4030   14.5940 C.3   235  MET235      0.1570
    104  C         24.7310   34.0850   13.9650 C.2   235  MET235      0.2261
    105  O         25.0350   33.1290   14.6670 O.2   235  MET235     -0.2867
    106  CB        25.2980   35.9000   15.6030 C.3   235  MET235      0.0387
    107  CG        26.6000   36.4010   14.9880 C.3   235  MET235      0.0595
    108  SD        26.4430   37.9800   14.1200 S.3   235  MET235     -0.1393
    109  CE        25.1850   38.7950   15.0810 C.3   235  MET235      0.0692
    110  N         34.3620   38.9390   19.5160 N.3   244  ASP244     -0.1239
    111  CA        33.3930   39.0110   20.5960 C.3   244  ASP244      0.1674
    112  C         32.7260   37.6600   20.7890 C.2   244  ASP244      0.2266
    113  O         33.0980   36.6810   20.1480 O.2   244  ASP244     -0.2867
    114  CB        32.3400   40.0940   20.3220 C.3   244  ASP244      0.1410
    115  CG        31.5310   39.8330   19.0550 C.2   244  ASP244      0.3668
    116  OD1       31.1260   38.6780   18.8130 O.co2 244  ASP244     -0.2456
    117  OD2       31.2880   40.7960   18.3020 O.co2 244  ASP244     -0.2456
    118  N         29.1140   37.6560   20.8270 N.3   246  VAL246     -0.1245
    119  CA        27.7190   38.0180   20.5770 C.3   246  VAL246      0.1561
    120  C         26.9540   36.7900   20.0800 C.2   246  VAL246      0.2260
    121  O         27.4840   35.9970   19.2970 O.2   246  VAL246     -0.2867
    122  CB        27.6100   39.1730   19.5450 C.3   246  VAL246      0.0252
    123  CG1       28.1920   38.7530   18.2030 C.3   246  VAL246      0.0019
    124  CG2       26.1640   39.6210   19.3710 C.3   246  VAL246      0.0019
    125  N         21.5040   39.7790   17.6280 N.3   249  VAL249     -0.1245
    126  CA        21.3290   41.2200   17.7100 C.3   249  VAL249      0.1561
    127  C         19.8470   41.4750   17.8650 C.2   249  VAL249      0.2260
    128  O         19.0310   40.7950   17.2410 O.2   249  VAL249     -0.2867
    129  CB        21.8420   41.9450   16.4340 C.3   249  VAL249      0.0252
    130  CG1       21.5190   43.4290   16.4900 C.3   249  VAL249      0.0019
    131  CG2       23.3430   41.7220   16.2520 C.3   249  VAL249      0.0019
@<TRIPOS>BOND
     1    24    23    2
     2    35    36    2
     3    35    34    1
     4    23    22    1
     5    33    34    1
     6    44    45    1
     7    34    37    1
     8    22    25    1
     9    22    21    1
    10    46    47    2
    11    46    45    1
    12    53    54    2
    13    53    52    1
    14    25    26    1
    15    51    52    1
    16    45    48    1
    17    37    38    1
    18    28    26   ar
    19    28    30   ar
    20    52    55    1
    21    21    15   am
    22    26    27   ar
    23    49    48    1
    24    16    15    2
    25    55    56    1
    26    48    50    1
    27    38    39    1
    28    15    14    1
    29    30    31   ar
    30    27    29   ar
    31    56    57    1
    32    58    59    1
    33    58    57    1
    34    14    13    1
    35    14    17    1
    36    39    40    1
    37    31    29   ar
    38    31    32    1
    39    40    41    2
    40   104   103    1
    41   104   105    2
    42    17    18    1
    43   108   107    1
    44   108   109    1
    45     4     3    2
    46   103   102    1
    47   103   106    1
    48     3     2    1
    49   107   106    1
    50    41    42    1
    51    41    43    1
    52    18    19    2
    53    18    20   am
    54     1     2    1
    55     2     5    1
    56   131   129    1
    57     8    10   ar
    58     8     6   ar
    59   129   130    1
    60   129   126    1
    61    10    11   ar
    62    68    70   ar
    63    68    66   ar
    64    70    69   ar
    65     5     6    1
    66     6     7   ar
    67   128   127    2
    68    11    12    1
    69    11     9   ar
    70    66    65   ar
    71   125   126    1
    72   126   127    1
    73     7     9   ar
    74    69    67   ar
    75   123   122    1
    76   117   115   ar
    77    65    67   ar
    78    65    64    1
    79   116   115   ar
    80   115   114    1
    81   121   120    2
    82   124   122    1
    83   110   111    1
    84   122   119    1
    85    64    61    1
    86   120   119    1
    87   113   112    2
    88    60    61    1
    89   114   111    1
    90   119   118    1
    91   111   112    1
    92    61    62    1
    93    76    77    1
    94    96    98   ar
    95    96    95   ar
    96    77    80    1
    97    77    78    1
    98    88    87   ar
    99    98   100   ar
   100    94    95    1
   101    94    91    1
   102    62    63    2
   103    95    97   ar
   104    78    79    2
   105    87    89   ar
   106    87    86    1
   107   100   101    1
   108   100    99   ar
   109    92    91    1
   110    92    93    2
   111    91    90    1
   112    97    99   ar
   113    86    85    1
   114    85    82    1
   115    75    72    1
   116    82    81    1
   117    82    83    1
   118    72    71    1
   119    72    73    1
   120    83    84    2
   121    73    74    2
