@<TRIPOS>MOLECULE
tmp/3kq0A00.pdb
 125 118 0 0 0
SMALL
GASTEIGER

@<TRIPOS>ATOM
      1  N         15.9210   -8.0630    8.0150 N.3    48  PHE48      -0.1241
      2  CA        16.4370   -7.3820    9.1480 C.3    48  PHE48       0.1605
      3  C         15.5020   -6.2230    9.5930 C.2    48  PHE48       0.2264
      4  O         14.5530   -5.8390    8.8630 O.2    48  PHE48      -0.2867
      5  CB        17.8540   -6.8070    8.8610 C.3    48  PHE48       0.0534
      6  CG        17.9270   -5.8870    7.6590 C.ar   48  PHE48      -0.0203
      7  CD1       18.1990   -6.3790    6.3980 C.ar   48  PHE48      -0.0042
      8  CD2       17.7720   -4.4710    7.8310 C.ar   48  PHE48      -0.0042
      9  CE1       18.2960   -5.4980    5.2800 C.ar   48  PHE48      -0.0003
     10  CE2       17.8250   -3.5680    6.7100 C.ar   48  PHE48      -0.0003
     11  CZ        18.0860   -4.0660    5.4550 C.ar   48  PHE48      -0.0000
     12  N         15.3410   -2.2520   11.4450 N.3    50  PHE50      -0.1241
     13  CA        16.0850   -1.0670   11.8500 C.3    50  PHE50       0.1605
     14  C         15.2930   -0.3340   12.9030 C.2    50  PHE50       0.2264
     15  O         14.0350   -0.2060   12.7850 O.2    50  PHE50      -0.2867
     16  CB        16.1000   -0.0380   10.6750 C.3    50  PHE50       0.0534
     17  CG        17.1710   -0.2030    9.6500 C.ar   50  PHE50      -0.0203
     18  CD1       16.9930    0.3550    8.3720 C.ar   50  PHE50      -0.0042
     19  CD2       18.3920   -0.8690    9.8870 C.ar   50  PHE50      -0.0042
     20  CE1       17.9540    0.2950    7.4170 C.ar   50  PHE50      -0.0003
     21  CE2       19.3830   -0.9370    8.8910 C.ar   50  PHE50      -0.0003
     22  CZ        19.1910   -0.3600    7.6400 C.ar   50  PHE50      -0.0000
     23  N         20.4180   -2.4850   14.5170 N.3    61  LEU61      -0.1245
     24  CA        20.1070   -3.4210   13.4040 C.3    61  LEU61       0.1561
     25  C         19.9940   -4.8350   14.0080 C.2    61  LEU61       0.2260
     26  O         20.9030   -5.2150   14.7420 O.2    61  LEU61      -0.2867
     27  CB        21.2770   -3.4100   12.4700 C.3    61  LEU61       0.0270
     28  CG        21.4170   -4.3860   11.2980 C.3    61  LEU61       0.0019
     29  CD1       20.1110   -4.3340   10.4020 C.3    61  LEU61       0.0001
     30  CD2       22.5590   -4.0780   10.4800 C.3    61  LEU61       0.0001
     31  N         19.6380   -8.5860   12.5040 N.3    63  GLU63      -0.1245
     32  CA        19.7260   -9.1890   11.1630 C.3    63  GLU63       0.1567
     33  C         19.5040  -10.7260   11.2830 C.2    63  GLU63       0.2260
     34  O         20.0890  -11.3690   12.2150 O.2    63  GLU63      -0.2867
     35  CB        21.1410   -9.0990   10.6210 C.3    63  GLU63       0.0388
     36  CG        21.6800   -7.7980   10.2950 C.3    63  GLU63       0.1160
     37  CD        23.1460   -7.9290    9.8740 C.2    63  GLU63       0.3649
     38  OE1       23.4020   -7.7090    8.6600 O.co2  63  GLU63      -0.2457
     39  OE2       24.0130   -8.1460   10.7570 O.co2  63  GLU63      -0.2457
     40  N         24.5510    0.8220   13.6120 N.3    78  LEU78      -0.1245
     41  CA        25.0660    1.5120   12.5010 C.3    78  LEU78       0.1561
     42  C         25.1440    3.0210   12.9440 C.2    78  LEU78       0.2260
     43  O         24.3610    3.4190   13.7660 O.2    78  LEU78      -0.2867
     44  CB        24.0630    1.4810   11.3490 C.3    78  LEU78       0.0270
     45  CG        23.6830    0.0300   11.0020 C.3    78  LEU78       0.0019
     46  CD1       22.7920    0.0760    9.7880 C.3    78  LEU78       0.0001
     47  CD2       25.0080   -0.7140   10.5730 C.3    78  LEU78       0.0001
     48  N         24.9160    6.2930    6.0100 N.3    87  ILE87      -0.1231
     49  CA        24.9170    5.4760    7.2390 C.3    87  ILE87       0.1692
     50  C         26.1850    4.6600    7.1770 C.2    87  ILE87       0.2593
     51  O         26.7950    4.5380    6.0800 O.2    87  ILE87      -0.2718
     52  CB        23.6470    4.6180    7.3550 C.3    87  ILE87       0.0266
     53  CG1       23.5620    3.6480    6.1710 C.3    87  ILE87       0.0019
     54  CG2       22.3370    5.5120    7.4190 C.3    87  ILE87       0.0020
     55  CD1       22.3240    2.6080    6.4670 C.3    87  ILE87       0.0001
     56  N         26.6580    4.1470    8.3170 N.am   88  SER88      -0.1938
     57  CA        27.9670    3.4730    8.2140 C.3    88  SER88       0.2055
     58  C         27.9790    2.2390    9.0780 C.2    88  SER88       0.2642
     59  O         27.2400    2.1340   10.0050 O.2    88  SER88      -0.2714
     60  CB        29.1260    4.4120    8.6390 C.3    88  SER88       0.2130
     61  OG        28.8960    4.8300    9.9790 O.3    88  SER88      -0.2179
     62  N         28.8390    1.2960    8.7230 N.am   89  ARG89      -0.1977
     63  CA        28.9030    0.0630    9.5440 C.3    89  ARG89       0.1597
     64  C         30.3910   -0.3130    9.5900 C.2    89  ARG89       0.2287
     65  O         31.1080   -0.2050    8.5780 O.2    89  ARG89      -0.2864
     66  CB        28.2060   -1.0550    8.7320 C.3    89  ARG89       0.0334
     67  CG        28.1100   -2.3290    9.6060 C.3    89  ARG89       0.0492
     68  CD        27.3990   -3.4370    8.7850 C.3    89  ARG89       0.2205
     69  NE        27.4320   -4.7380    9.5340 N.pl3  89  ARG89      -0.0865
     70  CZ        26.4350   -5.6300    9.4890 C.cat  89  ARG89       0.5346
     71  NH1       25.3710   -5.4420    8.6830 N.pl3  89  ARG89       0.1354
     72  NH2       26.5270   -6.7460   10.2160 N.pl3  89  ARG89       0.1354
     73  N         33.1860   -2.7840    9.1790 N.3    91  VAL91      -0.1245
     74  CA        33.3900   -3.9510    8.3480 C.3    91  VAL91       0.1561
     75  C         34.8900   -4.2380    8.4950 C.2    91  VAL91       0.2260
     76  O         35.7080   -3.3370    8.2560 O.2    91  VAL91      -0.2867
     77  CB        33.0780   -3.6540    6.8730 C.3    91  VAL91       0.0252
     78  CG1       33.3870   -4.8530    5.9770 C.3    91  VAL91       0.0019
     79  CG2       31.6010   -3.2450    6.6710 C.3    91  VAL91       0.0019
     80  N         32.7330    1.7140    7.1930 N.3    96  HIS96      -0.1241
     81  CA        32.4740    1.8670    5.7680 C.3    96  HIS96       0.1621
     82  C         31.1740    2.6500    5.6350 C.2    96  HIS96       0.2264
     83  O         30.2760    2.3900    6.3990 O.2    96  HIS96      -0.2867
     84  CB        32.2430    0.5010    5.1320 C.3    96  HIS96       0.0745
     85  CG        33.5230   -0.2190    4.8240 C.ar   96  HIS96       0.0817
     86  ND1       34.0080   -0.3640    3.5410 N.ar   96  HIS96      -0.2268
     87  CD2       34.4610   -0.7480    5.6470 C.ar   96  HIS96       0.1154
     88  CE1       35.1790   -0.9860    3.5860 C.ar   96  HIS96       0.1986
     89  NE2       35.4650   -1.2480    4.8520 N.ar   96  HIS96      -0.2212
     90  N         27.8690    4.3700    3.2620 N.3    98  ALA98      -0.1245
     91  CA        27.0080    4.1940    2.1380 C.3    98  ALA98       0.1562
     92  C         25.9880    5.3270    2.1090 C.2    98  ALA98       0.2260
     93  O         25.3960    5.6280    3.1110 O.2    98  ALA98      -0.2867
     94  CB        26.2400    2.7970    2.2310 C.3    98  ALA98       0.0290
     95  N         21.5480    1.2650   -1.0410 N.3   111  LEU111     -0.1245
     96  CA        22.7480    1.8080   -0.3550 C.3   111  LEU111      0.1561
     97  C         23.7970    1.8700   -1.4430 C.2   111  LEU111      0.2260
     98  O         24.1140    0.8340   -2.0910 O.2   111  LEU111     -0.2867
     99  CB        23.1870    0.8590    0.8150 C.3   111  LEU111      0.0270
    100  CG        22.2370    0.8780    1.9370 C.3   111  LEU111      0.0019
    101  CD1       22.7400   -0.1050    3.0560 C.3   111  LEU111      0.0001
    102  CD2       22.0120    2.2930    2.6270 C.3   111  LEU111      0.0001
    103  N         27.5860    2.2680   -2.0610 N.3   113  PHE113     -0.1241
    104  CA        28.8710    2.2160   -1.3840 C.3   113  PHE113      0.1605
    105  C         29.7740    2.9490   -2.3530 C.2   113  PHE113      0.2264
    106  O         30.5030    2.3020   -3.1030 O.2   113  PHE113     -0.2867
    107  CB        29.3160    0.7360   -1.1980 C.3   113  PHE113      0.0534
    108  CG        28.3380   -0.0400   -0.4080 C.ar  113  PHE113     -0.0203
    109  CD1       27.3670   -0.8160   -1.0460 C.ar  113  PHE113     -0.0042
    110  CD2       28.3210    0.0700    0.9600 C.ar  113  PHE113     -0.0042
    111  CE1       26.4080   -1.5080   -0.3140 C.ar  113  PHE113     -0.0003
    112  CE2       27.3690   -0.6520    1.7370 C.ar  113  PHE113     -0.0003
    113  CZ        26.4080   -1.4210    1.0820 C.ar  113  PHE113     -0.0000
    114  N         17.2130   -3.0400   -1.3510 N.3   126  TYR126     -0.1241
    115  CA        16.3920   -3.6170   -0.2560 C.3   126  TYR126      0.1605
    116  C         14.9300   -3.3280   -0.5430 C.2   126  TYR126      0.2264
    117  O         14.6240   -2.2720   -1.1580 O.2   126  TYR126     -0.2867
    118  CB        16.7520   -2.9660    1.0700 C.3   126  TYR126      0.0534
    119  CG        18.2450   -3.1090    1.3180 C.ar  126  TYR126     -0.0201
    120  CD1       19.1780   -2.2050    0.7720 C.ar  126  TYR126     -0.0009
    121  CD2       18.7270   -4.2160    1.9720 C.ar  126  TYR126     -0.0009
    122  CE1       20.5840   -2.3340    0.9370 C.ar  126  TYR126      0.0417
    123  CE2       20.1520   -4.3770    2.1910 C.ar  126  TYR126      0.0417
    124  CZ        21.0640   -3.4490    1.6640 C.ar  126  TYR126      0.1957
    125  OH        22.3930   -3.6430    1.8110 O.3   126  TYR126     -0.2866
@<TRIPOS>BOND
     1   106   105    2
     2   105   104    1
     3    98    97    2
     4   103   104    1
     5    97    96    1
     6   104   107    1
     7   114   115    1
     8   107   108    1
     9   117   116    2
    10   109   108   ar
    11   109   111   ar
    12    95    96    1
    13   116   115    1
    14   108   110   ar
    15    96    99    1
    16   111   113   ar
    17   115   118    1
    18   120   122   ar
    19   120   119   ar
    20    99   100    1
    21   122   124   ar
    22   110   112   ar
    23   118   119    1
    24   113   112   ar
    25   119   121   ar
    26   124   125    1
    27   124   123   ar
    28   100   102    1
    29   100   101    1
    30   121   123   ar
    31    92    91    1
    32    92    93    2
    33    91    94    1
    34    91    90    1
    35    86    88   ar
    36    86    85   ar
    37    88    89   ar
    38    85    84    1
    39    85    87   ar
    40    89    87   ar
    41    84    81    1
    42     9    11   ar
    43     9     7   ar
    44    11    10   ar
    45    82    81    1
    46    82    83    2
    47    81    80    1
    48    78    77    1
    49    48    49    1
    50    51    50    2
    51    53    55    1
    52    53    52    1
    53     7     6   ar
    54    79    77    1
    55    10     8   ar
    56    77    74    1
    57    50    49    1
    58    50    56   am
    59    49    52    1
    60    52    54    1
    61    20    22   ar
    62    20    18   ar
    63    22    21   ar
    64     6     8   ar
    65     6     5    1
    66     1     2    1
    67    57    56    1
    68    57    60    1
    69    57    58    1
    70    76    75    2
    71    74    75    1
    72    74    73    1
    73    18    17   ar
    74    65    64    2
    75    60    61    1
    76    38    37   ar
    77    71    70    1
    78    62    58   am
    79    62    63    1
    80    66    63    1
    81    66    67    1
    82    68    69    1
    83    68    67    1
    84     5     2    1
    85     4     3    2
    86    21    19   ar
    87    58    59    2
    88     2     3    1
    89    70    69    2
    90    70    72    1
    91    63    64    1
    92    17    19   ar
    93    17    16    1
    94    46    45    1
    95    37    36    1
    96    37    39   ar
    97    36    35    1
    98    29    28    1
    99    30    28    1
   100    47    45    1
   101    35    32    1
   102    16    13    1
   103    45    44    1
   104    32    33    1
   105    32    31    1
   106    33    34    2
   107    28    27    1
   108    44    41    1
   109    12    13    1
   110    13    14    1
   111    27    24    1
   112    41    42    1
   113    41    40    1
   114    15    14    2
   115    42    43    2
   116    24    25    1
   117    24    23    1
   118    25    26    2
