@<TRIPOS>MOLECULE
tmp/3kq4A01.pdb
 98 91 0 0 0
SMALL
GASTEIGER

@<TRIPOS>ATOM
      1  N        -53.9370   33.9690   -9.9200 N.3   102  ASN102     -0.1240
      2  CA       -54.5160   34.5070  -11.1360 C.3   102  ASN102      0.1653
      3  C        -54.4610   33.4780  -12.2550 C.2   102  ASN102      0.2266
      4  O        -55.0430   33.6850  -13.3260 O.2   102  ASN102     -0.2867
      5  CB       -53.7250   35.7330  -11.5500 C.3   102  ASN102      0.1155
      6  CG       -52.2410   35.4390  -11.6820 C.2   102  ASN102      0.2627
      7  OD1      -51.8340   34.2860  -11.8410 O.2   102  ASN102     -0.2716
      8  ND2      -51.4240   36.4820  -11.6150 N.am  102  ASN102     -0.0877
      9  N        -59.2250   32.5530  -10.4850 N.3   142  SER142     -0.1217
     10  CA       -59.6700   32.5250  -11.8530 C.3   142  SER142      0.1889
     11  C        -61.0650   31.9350  -11.9400 C.2   142  SER142      0.2288
     12  O        -61.4780   31.1550  -11.0760 O.2   142  SER142     -0.2866
     13  CB       -58.6920   31.7460  -12.7260 C.3   142  SER142      0.2089
     14  OG       -57.5200   32.5180  -12.9100 O.3   142  SER142     -0.2183
     15  N        -55.7100   32.3640  -37.3480 N.3   287  ASN287     -0.1240
     16  CA       -55.0530   33.5680  -36.8530 C.3   287  ASN287      0.1653
     17  C        -53.9960   33.3810  -35.7340 C.2   287  ASN287      0.2266
     18  O        -54.2800   32.8450  -34.6620 O.2   287  ASN287     -0.2867
     19  CB       -56.1410   34.5840  -36.4750 C.3   287  ASN287      0.1155
     20  CG       -55.6190   35.7200  -35.6720 C.2   287  ASN287      0.2627
     21  OD1      -54.5270   36.2130  -35.9210 O.2   287  ASN287     -0.2716
     22  ND2      -56.3970   36.1540  -34.6900 N.am  287  ASN287     -0.0877
     23  N        -51.5070   35.7970  -33.4350 N.3   289  GLN289     -0.1231
     24  CA       -51.0360   37.1220  -33.0300 C.3   289  GLN289      0.1698
     25  C        -50.1470   37.1220  -31.7640 C.2   289  GLN289      0.2592
     26  O        -50.0940   38.1070  -31.0220 O.2   289  GLN289     -0.2718
     27  CB       -52.2100   38.0880  -32.8790 C.3   289  GLN289      0.0381
     28  CG       -53.4930   37.4710  -32.3590 C.3   289  GLN289      0.0905
     29  CD       -54.3850   38.5100  -31.6870 C.2   289  GLN289      0.2608
     30  OE1      -53.8980   39.3760  -30.9560 O.2   289  GLN289     -0.2717
     31  NE2      -55.6950   38.4240  -31.9270 N.am  289  GLN289     -0.0878
     32  N        -49.4070   36.0300  -31.5660 N.am  290  LEU290     -0.1980
     33  CA       -48.7610   35.7490  -30.3010 C.3   290  LEU290      0.1596
     34  C        -47.3610   35.1890  -30.4820 C.2   290  LEU290      0.2287
     35  O        -46.4840   35.4930  -29.6780 O.2   290  LEU290     -0.2864
     36  CB       -49.6010   34.7390  -29.5280 C.3   290  LEU290      0.0297
     37  CG       -49.8320   35.0160  -28.0550 C.3   290  LEU290      0.0022
     38  CD1      -50.4820   33.8340  -27.4120 C.3   290  LEU290      0.0001
     39  CD2      -48.5130   35.2660  -27.4130 C.3   290  LEU290      0.0001
     40  N        -57.0550   27.4710  -30.0590 N.3   355  GLN355     -0.1245
     41  CA       -58.4880   27.4950  -29.6950 C.3   355  GLN355      0.1566
     42  C        -59.3930   27.6600  -30.9060 C.2   355  GLN355      0.2260
     43  O        -59.1760   28.5640  -31.7090 O.2   355  GLN355     -0.2867
     44  CB       -58.7870   28.6340  -28.7240 C.3   355  GLN355      0.0367
     45  CG       -60.1390   28.5460  -28.0760 C.3   355  GLN355      0.0905
     46  CD       -60.5210   29.8270  -27.4030 C.2   355  GLN355      0.2608
     47  OE1      -60.0630   30.8920  -27.7850 O.2   355  GLN355     -0.2717
     48  NE2      -61.3710   29.7360  -26.4010 N.am  355  GLN355     -0.0878
     49  N        -63.0330   28.6120  -32.3240 N.3   357  LEU357     -0.1245
     50  CA       -64.3080   29.2360  -32.0120 C.3   357  LEU357      0.1561
     51  C        -65.1580   29.4330  -33.2660 C.2   357  LEU357      0.2260
     52  O        -64.6290   29.4380  -34.3930 O.2   357  LEU357     -0.2867
     53  CB       -64.1480   30.5220  -31.1820 C.3   357  LEU357      0.0270
     54  CG       -63.1320   31.6060  -31.5090 C.3   357  LEU357      0.0019
     55  CD1      -63.0040   32.5300  -30.3230 C.3   357  LEU357      0.0001
     56  CD2      -61.7930   31.0330  -31.8310 C.3   357  LEU357      0.0001
     57  N        -66.9800   33.8580  -33.0110 N.3   360  VAL360     -0.1245
     58  CA       -66.4850   34.5520  -31.8150 C.3   360  VAL360      0.1561
     59  C        -66.6230   33.7570  -30.5170 C.2   360  VAL360      0.2260
     60  O        -65.8700   33.9690  -29.5750 O.2   360  VAL360     -0.2867
     61  CB       -67.2320   35.8620  -31.5850 C.3   360  VAL360      0.0252
     62  CG1      -68.7150   35.5750  -31.3160 C.3   360  VAL360      0.0019
     63  CG2      -66.6090   36.6170  -30.4310 C.3   360  VAL360      0.0019
     64  N        -57.8190   30.5040  -33.2450 N.3   381  ASN381     -0.1225
     65  CA       -56.8990   31.4470  -32.6000 C.3   381  ASN381      0.1785
     66  C        -55.8440   30.6880  -31.7890 C.2   381  ASN381      0.2597
     67  O        -56.2060   29.7970  -31.0270 O.2   381  ASN381     -0.2718
     68  CB       -57.6670   32.4490  -31.7100 C.3   381  ASN381      0.1169
     69  CG       -56.7880   33.6120  -31.1880 C.2   381  ASN381      0.2627
     70  OD1      -55.7540   33.9670  -31.7890 O.2   381  ASN381     -0.2716
     71  ND2      -57.2060   34.2000  -30.0430 N.am  381  ASN381     -0.0877
     72  N        -54.5510   31.0160  -31.9940 N.am  382  PHE382     -0.1962
     73  CA       -53.4400   30.5800  -31.1340 C.3   382  PHE382      0.1771
     74  C        -53.3780   31.5290  -29.9730 C.2   382  PHE382      0.2620
     75  O        -53.2390   32.7430  -30.1540 O.2   382  PHE382     -0.2715
     76  CB       -52.1210   30.6150  -31.8840 C.3   382  PHE382      0.0574
     77  CG       -51.0120   29.8700  -31.1940 C.ar  382  PHE382     -0.0200
     78  CD1      -50.9940   28.4800  -31.1700 C.ar  382  PHE382     -0.0042
     79  CD2      -49.9690   30.5520  -30.5890 C.ar  382  PHE382     -0.0042
     80  CE1      -49.9640   27.7760  -30.5480 C.ar  382  PHE382     -0.0003
     81  CE2      -48.9280   29.8510  -29.9570 C.ar  382  PHE382     -0.0003
     82  CZ       -48.9290   28.4590  -29.9370 C.ar  382  PHE382     -0.0000
     83  N        -53.5050   30.9720  -28.7810 N.am  383  THR383     -0.1937
     84  CA       -53.7890   31.7590  -27.5860 C.3   383  THR383      0.2028
     85  C        -53.3320   30.9420  -26.3740 C.2   383  THR383      0.2642
     86  O        -52.6650   29.9120  -26.5420 O.2   383  THR383     -0.2714
     87  CB       -55.2790   32.0540  -27.4620 C.3   383  THR383      0.1808
     88  OG1      -55.5260   32.7780  -26.2560 O.3   383  THR383     -0.2208
     89  CG2      -56.0580   30.7590  -27.4390 C.3   383  THR383      0.0379
     90  N        -53.6550   31.3700  -25.1550 N.am  384  GLN384     -0.1976
     91  CA       -53.0980   30.6900  -23.9880 C.3   384  GLN384      0.1601
     92  C        -54.2240   30.4420  -23.0430 C.2   384  GLN384      0.2287
     93  O        -55.2510   31.1100  -23.1330 O.2   384  GLN384     -0.2864
     94  CB       -52.1250   31.6000  -23.2460 C.3   384  GLN384      0.0394
     95  CG       -50.7180   31.7420  -23.7840 C.3   384  GLN384      0.0908
     96  CD       -50.0930   33.0360  -23.2970 C.2   384  GLN384      0.2608
     97  OE1      -50.6140   34.1140  -23.5600 O.2   384  GLN384     -0.2717
     98  NE2      -48.9920   32.9360  -22.5720 N.am  384  GLN384     -0.0878
@<TRIPOS>BOND
     1    15    16    1
     2    16    19    1
     3    16    17    1
     4    19    20    1
     5    21    20    2
     6    17    18    2
     7    20    22   am
     8    52    51    2
     9    23    24    1
    10    51    50    1
    11    64    65    1
    12    24    27    1
    13    24    25    1
    14    57    58    1
    15    27    28    1
    16    65    66    1
    17    65    68    1
    18    28    29    1
    19    49    50    1
    20    50    53    1
    21    72    66   am
    22    72    73    1
    23    31    29   am
    24    76    77    1
    25    76    73    1
    26    56    54    1
    27    58    61    1
    28    58    59    1
    29    70    69    2
    30    66    67    2
    31    25    32   am
    32    25    26    2
    33    68    69    1
    34    43    42    2
    35    29    30    2
    36    61    62    1
    37    61    63    1
    38    32    33    1
    39    54    53    1
    40    54    55    1
    41    77    78   ar
    42    77    79   ar
    43    69    71   am
    44    78    80   ar
    45    73    74    1
    46    42    41    1
    47    79    81   ar
    48    80    82   ar
    49    59    60    2
    50    34    33    1
    51    34    35    2
    52    33    36    1
    53    75    74    2
    54    40    41    1
    55    74    83   am
    56    81    82   ar
    57    41    44    1
    58    36    37    1
    59    83    84    1
    60    44    45    1
    61    45    46    1
    62    37    39    1
    63    37    38    1
    64    47    46    2
    65    84    87    1
    66    84    85    1
    67    87    89    1
    68    87    88    1
    69    46    48   am
    70    86    85    2
    71    85    90   am
    72    90    91    1
    73    91    94    1
    74    91    92    1
    75    95    96    1
    76    95    94    1
    77    97    96    2
    78    96    98   am
    79    93    92    2
    80     4     3    2
    81    14    13    1
    82    13    10    1
    83     3     2    1
    84    11    10    1
    85    11    12    2
    86    10     9    1
    87     7     6    2
    88     6     8   am
    89     6     5    1
    90     5     2    1
    91     2     1    1
