@<TRIPOS>MOLECULE
tmp/3kqbA00.pdb
 211 209 0 0 0
SMALL
GASTEIGER

@<TRIPOS>ATOM
      1  N         41.8400   24.9250   24.7010 N.3    42  HIS42      -0.1241
      2  CA        40.3800   24.9320   24.6050 C.3    42  HIS42       0.1621
      3  C         39.7840   23.5960   24.1620 C.2    42  HIS42       0.2264
      4  O         38.5990   23.3710   24.3950 O.2    42  HIS42      -0.2867
      5  CB        39.9010   26.1030   23.7340 C.3    42  HIS42       0.0745
      6  CG        39.7790   25.7730   22.2880 C.ar   42  HIS42       0.0817
      7  ND1       40.7370   26.1670   21.3840 N.ar   42  HIS42      -0.2268
      8  CD2       38.7850   25.1420   21.6290 C.ar   42  HIS42       0.1154
      9  CE1       40.3070   25.7530   20.2040 C.ar   42  HIS42       0.1986
     10  NE2       39.1490   25.1050   20.3090 N.ar   42  HIS42      -0.2212
     11  N         38.5370   31.3360   28.1310 N.3    82  LYS82      -0.1231
     12  CA        37.5960   31.4370   27.0170 C.3    82  LYS82       0.1693
     13  C         37.1710   32.8790   26.6710 C.2    82  LYS82       0.2592
     14  O         36.6680   33.1160   25.5740 O.2    82  LYS82      -0.2718
     15  CB        36.3840   30.5060   27.2180 C.3    82  LYS82       0.0285
     16  CG        35.7260   30.5550   28.5970 C.3    82  LYS82       0.0035
     17  CD        34.8100   29.3450   28.7880 C.3    82  LYS82       0.0206
     18  CE        34.6430   28.9590   30.2370 C.3    82  LYS82       0.1093
     19  NZ        34.1810   27.5510   30.3790 N.3    82  LYS82      -0.1314
     20  N         37.4090   33.8410   27.5860 N.am   83  GLU83      -0.1966
     21  CA        37.0540   35.2500   27.3960 C.3    83  GLU83       0.1733
     22  C         37.9800   35.9270   26.4090 C.2    83  GLU83       0.2617
     23  O         37.5670   36.8740   25.7370 O.2    83  GLU83      -0.2715
     24  CB        37.0740   36.0330   28.7370 C.3    83  GLU83       0.0429
     25  CG        36.6990   35.2470   29.9900 C.3    83  GLU83       0.1163
     26  CD        35.2930   34.6950   30.0870 C.2    83  GLU83       0.3649
     27  OE1       35.1160   33.6590   30.7700 O.co2  83  GLU83      -0.2457
     28  OE2       34.3650   35.2990   29.5020 O.co2  83  GLU83      -0.2457
     29  N         39.2380   35.4630   26.3310 N.am   84  THR84      -0.1937
     30  CA        40.2380   36.0390   25.4270 C.3    84  THR84       0.2028
     31  C         40.7440   35.0690   24.3440 C.2    84  THR84       0.2642
     32  O         41.1990   35.5210   23.2900 O.2    84  THR84      -0.2714
     33  CB        41.4450   36.5670   26.2390 C.3    84  THR84       0.1808
     34  OG1       42.1360   35.4540   26.8040 O.3    84  THR84      -0.2208
     35  CG2       41.0430   37.5640   27.3520 C.3    84  THR84       0.0379
     36  N         40.7330   33.7500   24.6360 N.am   85  TYR85      -0.1973
     37  CA        41.3130   32.6740   23.8140 C.3    85  TYR85       0.1639
     38  C         42.8290   32.8110   23.7590 C.2    85  TYR85       0.2290
     39  O         43.4810   32.2210   22.8940 O.2    85  TYR85      -0.2864
     40  CB        40.6770   32.5510   22.4160 C.3    85  TYR85       0.0560
     41  CG        39.6290   31.4670   22.3800 C.ar   85  TYR85      -0.0198
     42  CD1       38.5060   31.5290   23.2060 C.ar   85  TYR85      -0.0009
     43  CD2       39.7760   30.3530   21.5590 C.ar   85  TYR85      -0.0009
     44  CE1       37.5640   30.5070   23.2230 C.ar   85  TYR85       0.0417
     45  CE2       38.8220   29.3350   21.5490 C.ar   85  TYR85       0.0417
     46  CZ        37.7160   29.4200   22.3840 C.ar   85  TYR85       0.1957
     47  OH        36.7700   28.4270   22.4190 O.3    85  TYR85      -0.2866
     48  N         35.4900   20.4260    9.9970 N.3   132  ARG132     -0.1245
     49  CA        34.3790   20.6890    9.0760 C.3   132  ARG132      0.1563
     50  C         34.8380   21.1700    7.7300 C.2   132  ARG132      0.2260
     51  O         35.7690   21.9640    7.6550 O.2   132  ARG132     -0.2867
     52  CB        33.3680   21.6660    9.7140 C.3   132  ARG132      0.0307
     53  CG        32.5620   20.9420   10.7770 C.3   132  ARG132      0.0489
     54  CD        32.2400   21.7650   11.9940 C.3   132  ARG132      0.2205
     55  NE        31.2190   22.7740   11.7350 N.pl3 132  ARG132     -0.0865
     56  CZ        30.2410   23.0840   12.5810 C.cat 132  ARG132      0.5346
     57  NH1       30.1270   22.4440   13.7420 N.pl3 132  ARG132      0.1354
     58  NH2       29.3650   24.0340   12.2720 N.pl3 132  ARG132      0.1354
     59  N         31.3830   25.7200    6.9270 N.3   135  GLU135     -0.1245
     60  CA        31.0590   26.3300    8.2260 C.3   135  GLU135      0.1567
     61  C         29.9220   25.5640    8.8990 C.2   135  GLU135      0.2260
     62  O         29.9920   25.2860   10.0950 O.2   135  GLU135     -0.2867
     63  CB        30.7060   27.8030    8.0380 C.3   135  GLU135      0.0388
     64  CG        30.8660   28.6480    9.2850 C.3   135  GLU135      0.1160
     65  CD        30.6600   30.1230    9.0190 C.2   135  GLU135      0.3649
     66  OE1       31.5120   30.7510    8.3490 O.co2 135  GLU135     -0.2457
     67  OE2       29.6340   30.6550    9.4870 O.co2 135  GLU135     -0.2457
     68  N         37.5400   40.6390   17.7840 N.3   162  PHE162     -0.1227
     69  CA        38.2300   40.2480   19.0020 C.3   162  PHE162      0.1736
     70  C         39.6720   40.7180   19.0540 C.2   162  PHE162      0.2595
     71  O         40.2470   41.0800   18.0200 O.2   162  PHE162     -0.2718
     72  CB        38.1140   38.7310   19.1920 C.3   162  PHE162      0.0547
     73  CG        36.6840   38.2390   19.1710 C.ar  162  PHE162     -0.0202
     74  CD1       35.9330   38.1870   20.3370 C.ar  162  PHE162     -0.0042
     75  CD2       36.0860   37.8380   17.9820 C.ar  162  PHE162     -0.0042
     76  CE1       34.6030   37.7620   20.3140 C.ar  162  PHE162     -0.0003
     77  CE2       34.7600   37.4070   17.9590 C.ar  162  PHE162     -0.0003
     78  CZ        34.0300   37.3640   19.1260 C.ar  162  PHE162     -0.0000
     79  N         40.2330   40.7890   20.2720 N.am  163  ILE163     -0.1980
     80  CA        41.6120   41.2230   20.4520 C.3   163  ILE163      0.1595
     81  C         42.5760   40.0960   20.0140 C.2   163  ILE163      0.2287
     82  O         42.5290   38.9900   20.5590 O.2   163  ILE163     -0.2864
     83  CB        41.9200   41.7690   21.8930 C.3   163  ILE163      0.0276
     84  CG1       41.2210   43.1270   22.1470 C.3   163  ILE163      0.0022
     85  CG2       43.4410   41.9330   22.1170 C.3   163  ILE163      0.0022
     86  CD1       40.3410   43.1290   23.2840 C.3   163  ILE163      0.0001
     87  N         39.7600   27.7790    4.2640 N.3   179  ASP179     -0.1225
     88  CA        40.3680   27.9960    5.5720 C.3   179  ASP179      0.1805
     89  C         40.1420   26.8090    6.4710 C.2   179  ASP179      0.2598
     90  O         39.4740   25.8700    6.0790 O.2   179  ASP179     -0.2718
     91  CB        39.8860   29.3130    6.2540 C.3   179  ASP179      0.1424
     92  CG        41.0240   30.0410    6.9970 C.2   179  ASP179      0.3668
     93  OD1       41.2600   31.2440    6.7040 O.co2 179  ASP179     -0.2456
     94  OD2       41.7030   29.3910    7.8390 O.co2 179  ASP179     -0.2456
     95  N         40.6800   26.8590    7.6840 N.am  180  ALA180     -0.1966
     96  CA        40.4910   25.8410    8.7150 C.3   180  ALA180      0.1728
     97  C         39.0930   26.0750    9.2840 C.2   180  ALA180      0.2616
     98  O         38.4700   27.0960    8.9800 O.2   180  ALA180     -0.2715
     99  CB        41.5520   26.0020    9.7940 C.3   180  ALA180      0.0334
    100  N         38.5610   25.1130   10.0410 N.am  181  CYS181     -0.1954
    101  CA        37.2280   25.2340   10.6220 C.3   181  CYS181      0.1843
    102  C         37.1640   24.4830   11.9330 C.2   181  CYS181      0.2625
    103  O         38.1730   23.9170   12.3390 O.2   181  CYS181     -0.2714
    104  CB        36.1670   24.7380    9.6350 C.3   181  CYS181      0.0997
    105  SG        34.4820   25.2930   10.0270 S.3   181  CYS181     -0.0797
    106  N         35.9900   24.4600   12.5930 N.am  182  GLN182     -0.1977
    107  CA        35.7360   23.7130   13.8310 C.3   182  GLN182      0.1601
    108  C         36.1390   22.2580   13.6570 C.2   182  GLN182      0.2287
    109  O         35.7850   21.6140   12.6590 O.2   182  GLN182     -0.2864
    110  CB        34.2410   23.7810   14.1930 C.3   182  GLN182      0.0394
    111  CG        33.9200   23.3860   15.6310 C.3   182  GLN182      0.0908
    112  CD        32.4720   23.5770   16.0000 C.2   182  GLN182      0.2608
    113  OE1       31.8460   24.5870   15.6700 O.2   182  GLN182     -0.2717
    114  NE2       31.9160   22.6320   16.7520 N.am  182  GLN182     -0.0878
    115  N         40.8860   22.6540   15.2170 N.3   185  SER185     -0.1217
    116  CA        41.4540   23.2270   16.4270 C.3   185  SER185      0.1889
    117  C         42.4480   22.2680   17.0850 C.2   185  SER185      0.2288
    118  O         42.1860   21.0610   17.1480 O.2   185  SER185     -0.2866
    119  CB        40.3350   23.5720   17.3970 C.3   185  SER185      0.2089
    120  OG        39.5690   24.6370   16.8750 O.3   185  SER185     -0.2183
    121  N         46.0880   25.5560   15.3930 N.3   203  VAL203     -0.1231
    122  CA        44.7650   26.0800   14.9820 C.3   203  VAL203      0.1692
    123  C         44.0310   26.4850   16.2940 C.2   203  VAL203      0.2593
    124  O         43.7990   25.6380   17.1700 O.2   203  VAL203     -0.2718
    125  CB        43.9080   25.0400   14.1990 C.3   203  VAL203      0.0266
    126  CG1       42.5530   25.6270   13.7710 C.3   203  VAL203      0.0020
    127  CG2       44.6610   24.4510   13.0110 C.3   203  VAL203      0.0020
    128  N         43.7060   27.7660   16.4230 N.am  204  SER204     -0.1938
    129  CA        43.0300   28.2510   17.6200 C.3   204  SER204      0.2055
    130  C         41.5390   28.5970   17.3680 C.2   204  SER204      0.2643
    131  O         40.6550   27.9540   17.9300 O.2   204  SER204     -0.2714
    132  CB        43.7920   29.4360   18.2110 C.3   204  SER204      0.2130
    133  OG        43.2680   29.7770   19.4780 O.3   204  SER204     -0.2179
    134  N         41.2590   29.6000   16.5450 N.am  205  TRP205     -0.1959
    135  CA        39.8620   30.0190   16.3340 C.3   205  TRP205      0.1771
    136  C         39.7590   30.8400   15.0790 C.2   205  TRP205      0.2620
    137  O         40.7520   31.1000   14.4230 O.2   205  TRP205     -0.2715
    138  CB        39.3210   30.8290   17.5690 C.3   205  TRP205      0.0590
    139  CG        40.1160   32.0630   17.9060 C.ar  205  TRP205      0.0006
    140  CD1       41.2350   32.1320   18.6880 C.ar  205  TRP205      0.0946
    141  CD2       39.8480   33.4090   17.4670 C.ar  205  TRP205      0.0152
    142  NE1       41.6890   33.4380   18.7530 N.ar  205  TRP205     -0.2442
    143  CE2       40.8530   34.2400   18.0200 C.ar  205  TRP205      0.0810
    144  CE3       38.8130   34.0070   16.7140 C.ar  205  TRP205      0.0012
    145  CZ2       40.8760   35.6340   17.8110 C.ar  205  TRP205      0.0191
    146  CZ3       38.8600   35.3770   16.4790 C.ar  205  TRP205      0.0001
    147  CH2       39.8690   36.1790   17.0440 C.ar  205  TRP205      0.0015
    148  N         38.5490   31.2290   14.7480 N.am  206  GLY206     -0.1940
    149  CA        38.2360   32.0900   13.6130 C.3   206  GLY206      0.2014
    150  C         36.7800   32.4750   13.7320 C.2   206  GLY206      0.2639
    151  O         36.0430   31.8390   14.4970 O.2   206  GLY206     -0.2714
    152  N         36.3720   33.5400   13.0300 N.am  207  GLU207     -0.1963
    153  CA        34.9790   34.0060   13.0320 C.3   207  GLU207      0.1733
    154  C         34.3160   33.2790   11.8650 C.2   207  GLU207      0.2617
    155  O         34.5530   33.5990   10.6920 O.2   207  GLU207     -0.2715
    156  CB        34.9160   35.5240   12.8920 C.3   207  GLU207      0.0429
    157  CG        35.3610   36.2260   14.1570 C.3   207  GLU207      0.1163
    158  CD        35.4680   37.7260   13.9930 C.2   207  GLU207      0.3649
    159  OE1       34.4180   38.3660   13.7590 O.co2 207  GLU207     -0.2457
    160  OE2       36.5990   38.2590   14.0810 O.co2 207  GLU207     -0.2457
    161  N         33.6160   32.2080   12.2030 N.am  208  GLY208     -0.1940
    162  CA        33.0820   31.3110   11.1980 C.3   208  GLY208      0.2014
    163  C         34.2490   30.6190   10.5140 C.2   208  GLY208      0.2639
    164  O         35.3400   30.5270   11.0990 O.2   208  GLY208     -0.2714
    165  N         34.0400   30.1240    9.2800 N.am  209  CYS209     -0.1953
    166  CA        35.1030   29.4460    8.5180 C.3   209  CYS209      0.1843
    167  C         35.0930   29.9210    7.1080 C.2   209  CYS209      0.2625
    168  O         34.0250   29.9790    6.4980 O.2   209  CYS209     -0.2714
    169  CB        34.9700   27.9300    8.5820 C.3   209  CYS209      0.0997
    170  SG        34.6510   27.3030   10.2320 S.3   209  CYS209     -0.0797
    171  N         36.2870   30.2480    6.5790 N.am  210  ALA210     -0.1963
    172  CA        36.5110   30.6920    5.2100 C.3   210  ALA210      0.1728
    173  C         35.7290   31.9770    4.8250 C.2   210  ALA210      0.2616
    174  O         35.6230   32.2920    3.6370 O.2   210  ALA210     -0.2715
    175  CB        36.2510   29.5500    4.2260 C.3   210  ALA210      0.0334
    176  N         35.2400   32.7440    5.8370 N.am  211  ARG211     -0.1977
    177  CA        34.5200   34.0110    5.6210 C.3   211  ARG211      0.1597
    178  C         35.4450   35.0470    4.9900 C.2   211  ARG211      0.2287
    179  O         36.6060   35.1760    5.4030 O.2   211  ARG211     -0.2864
    180  CB        33.9300   34.5700    6.9250 C.3   211  ARG211      0.0334
    181  CG        32.6920   33.8480    7.4170 C.3   211  ARG211      0.0492
    182  CD        32.0740   34.5350    8.6330 C.3   211  ARG211      0.2205
    183  NE        31.1180   33.6550    9.3100 N.pl3 211  ARG211     -0.0865
    184  CZ        30.6680   33.8300   10.5480 C.cat 211  ARG211      0.5346
    185  NH1       31.0780   34.8670   11.2710 N.pl3 211  ARG211      0.1354
    186  NH2       29.8140   32.9610   11.0800 N.pl3 211  ARG211      0.1354
    187  N         38.0030   37.6370    6.6590 N.3   214  LYS214     -0.1231
    188  CA        38.3700   37.0060    7.9300 C.3   214  LYS214      0.1693
    189  C         39.5040   35.9830    7.7290 C.2   214  LYS214      0.2592
    190  O         39.7900   35.6050    6.5890 O.2   214  LYS214     -0.2718
    191  CB        37.1460   36.3870    8.6450 C.3   214  LYS214      0.0285
    192  CG        36.0170   37.3760    8.9170 C.3   214  LYS214      0.0035
    193  CD        36.2720   38.2040   10.1660 C.3   214  LYS214      0.0206
    194  CE        35.2080   39.2500   10.3920 C.3   214  LYS214      0.1093
    195  NZ        35.5390   40.0830   11.5720 N.3   214  LYS214     -0.1314
    196  N         40.1720   35.5660    8.8290 N.am  215  TYR215     -0.1962
    197  CA        41.3090   34.6520    8.7490 C.3   215  TYR215      0.1771
    198  C         41.2930   33.6030    9.8480 C.2   215  TYR215      0.2620
    199  O         40.5740   33.7480   10.8390 O.2   215  TYR215     -0.2715
    200  CB        42.6340   35.4470    8.8380 C.3   215  TYR215      0.0574
    201  CG        42.7560   36.5690    7.8390 C.ar  215  TYR215     -0.0198
    202  CD1       42.9930   36.3060    6.4960 C.ar  215  TYR215     -0.0009
    203  CD2       42.5680   37.8950    8.2230 C.ar  215  TYR215     -0.0009
    204  CE1       43.0720   37.3360    5.5600 C.ar  215  TYR215      0.0417
    205  CE2       42.6440   38.9330    7.2950 C.ar  215  TYR215      0.0417
    206  CZ        42.9090   38.6490    5.9660 C.ar  215  TYR215      0.1957
    207  OH        43.0030   39.6570    5.0360 O.3   215  TYR215     -0.2866
    208  N         42.1230   32.5670    9.6660 N.am  216  GLY216     -0.1954
    209  CA        42.3430   31.5640   10.6900 C.3   216  GLY216      0.1869
    210  C         43.2680   32.1660   11.7220 C.2   216  GLY216      0.2309
    211  O         44.2140   32.8640   11.3500 O.2   216  GLY216     -0.2863
@<TRIPOS>BOND
     1   174   173    2
     2   175   172    1
     3    87    88    1
     4   173   172    1
     5   173   176   am
     6   178   179    2
     7   178   177    1
     8   207   206    1
     9   172   171    1
    10   204   206   ar
    11   204   202   ar
    12    88    91    1
    13    88    89    1
    14   177   176    1
    15   177   180    1
    16   206   205   ar
    17    90    89    2
    18    91    92    1
    19    89    95   am
    20   202   201   ar
    21   168   167    2
    22   171   167   am
    23   190   189    2
    24   187   188    1
    25    93    92   ar
    26   180   181    1
    27    59    60    1
    28    92    94   ar
    29   167   166    1
    30   205   203   ar
    31   181   182    1
    32    51    50    2
    33    95    96    1
    34   189   188    1
    35   189   196   am
    36    50    49    1
    37   201   203   ar
    38   201   200    1
    39   188   191    1
    40    63    60    1
    41    63    64    1
    42    60    61    1
    43    66    65   ar
    44   166   169    1
    45   166   165    1
    46   169   170    1
    47   182   183    1
    48   191   192    1
    49    96    97    1
    50    96    99    1
    51   197   196    1
    52   197   200    1
    53   197   198    1
    54    61    62    2
    55   192   193    1
    56    98    97    2
    57    65    64    1
    58    65    67   ar
    59    49    52    1
    60    49    48    1
    61   165   163   am
    62    97   100   am
    63   183   184    2
    64   104   105    1
    65   104   101    1
    66   208   198   am
    67   208   209    1
    68    52    53    1
    69   198   199    2
    70   105   170    1
    71   100   101    1
    72   193   194    1
    73   194   195    1
    74   163   164    2
    75   163   162    1
    76   184   186    1
    77   184   185    1
    78   101   102    1
    79   209   210    1
    80   155   154    2
    81    53    54    1
    82   162   161    1
    83   211   210    2
    84    55    54    1
    85    55    56    2
    86   154   161   am
    87   154   153    1
    88   102   103    2
    89   102   106   am
    90    58    56    1
    91    56    57    1
    92   106   107    1
    93   109   108    2
    94   156   153    1
    95   156   157    1
    96   127   125    1
    97   152   153    1
    98   152   150   am
    99   149   150    1
   100   149   148    1
   101   108   107    1
   102   150   151    2
   103   159   158   ar
   104   126   125    1
   105   107   110    1
   106   158   160   ar
   107   158   157    1
   108   110   111    1
   109   125   122    1
   110   137   136    2
   111   148   136   am
   112   122   121    1
   113   122   123    1
   114   136   135    1
   115   115   116    1
   116   111   112    1
   117   113   112    2
   118   112   114   am
   119   123   128   am
   120   123   124    2
   121   135   134    1
   122   135   138    1
   123   128   129    1
   124   116   117    1
   125   116   119    1
   126   146   144   ar
   127   146   147   ar
   128   134   130   am
   129   144   141   ar
   130   120   119    1
   131   147   145   ar
   132   117   118    2
   133   130   129    1
   134   130   131    2
   135   141   139   ar
   136   141   143   ar
   137   138   139    1
   138   129   132    1
   139    68    69    1
   140   145   143   ar
   141   139   140   ar
   142    77    75   ar
   143    77    78   ar
   144    75    73   ar
   145   143   142   ar
   146    71    70    2
   147   132   133    1
   148   140   142   ar
   149    69    70    1
   150    69    72    1
   151    70    79   am
   152    78    76   ar
   153    73    72    1
   154    73    74   ar
   155    81    80    1
   156    81    82    2
   157     9    10   ar
   158     9     7   ar
   159    79    80    1
   160    10     8   ar
   161    76    74   ar
   162    80    83    1
   163     7     6   ar
   164    45    43   ar
   165    45    46   ar
   166    43    41   ar
   167     8     6   ar
   168    83    85    1
   169    83    84    1
   170    84    86    1
   171     6     5    1
   172    41    40    1
   173    41    42   ar
   174    46    47    1
   175    46    44   ar
   176    40    37    1
   177    39    38    2
   178    42    44   ar
   179    32    31    2
   180     5     2    1
   181    38    37    1
   182    37    36    1
   183     3     4    2
   184     3     2    1
   185    31    36   am
   186    31    30    1
   187     2     1    1
   188    30    33    1
   189    30    29    1
   190    14    13    2
   191    23    22    2
   192    33    34    1
   193    33    35    1
   194    29    22   am
   195    22    21    1
   196    13    12    1
   197    13    20   am
   198    12    15    1
   199    12    11    1
   200    15    16    1
   201    21    20    1
   202    21    24    1
   203    16    17    1
   204    24    25    1
   205    17    18    1
   206    28    26   ar
   207    25    26    1
   208    26    27   ar
   209    18    19    1
