@<TRIPOS>MOLECULE
tmp/3kqcA00.pdb
 223 221 0 0 0
SMALL
GASTEIGER

@<TRIPOS>ATOM
      1  N         41.7230   24.9430   24.6700 N.3    42  HIS42      -0.1241
      2  CA        40.2680   24.9510   24.5520 C.3    42  HIS42       0.1621
      3  C         39.6840   23.6110   24.1230 C.2    42  HIS42       0.2264
      4  O         38.5090   23.3560   24.3930 O.2    42  HIS42      -0.2867
      5  CB        39.8000   26.1160   23.6740 C.3    42  HIS42       0.0745
      6  CG        39.6730   25.7880   22.2290 C.ar   42  HIS42       0.0817
      7  ND1       40.6310   26.1770   21.3190 N.ar   42  HIS42      -0.2268
      8  CD2       38.6750   25.1600   21.5750 C.ar   42  HIS42       0.1154
      9  CE1       40.1970   25.7600   20.1430 C.ar   42  HIS42       0.1986
     10  NE2       39.0390   25.1150   20.2530 N.ar   42  HIS42      -0.2212
     11  N         38.4030   31.2920   28.2110 N.3    82  LYS82      -0.1231
     12  CA        37.4150   31.3540   27.1430 C.3    82  LYS82       0.1693
     13  C         37.0270   32.7850   26.7670 C.2    82  LYS82       0.2592
     14  O         36.5530   33.0120   25.6510 O.2    82  LYS82      -0.2718
     15  CB        36.1690   30.5050   27.4670 C.3    82  LYS82       0.0285
     16  CG        35.8710   30.2510   28.9510 C.3    82  LYS82       0.0035
     17  CD        36.2630   28.8230   29.3610 C.3    82  LYS82       0.0206
     18  CE        35.4690   28.2820   30.5330 C.3    82  LYS82       0.1093
     19  NZ        34.0820   27.8940   30.1470 N.3    82  LYS82      -0.1314
     20  N         37.2600   33.7570   27.6790 N.am   83  GLU83      -0.1966
     21  CA        36.9140   35.1630   27.4450 C.3    83  GLU83       0.1733
     22  C         37.7940   35.8020   26.3980 C.2    83  GLU83       0.2617
     23  O         37.3180   36.6750   25.6720 O.2    83  GLU83      -0.2715
     24  CB        36.9680   36.0120   28.7430 C.3    83  GLU83       0.0429
     25  CG        36.8300   35.2600   30.0640 C.3    83  GLU83       0.1163
     26  CD        35.5040   34.5960   30.3740 C.2    83  GLU83       0.3649
     27  OE1       35.5040   33.6340   31.1750 O.co2  83  GLU83      -0.2457
     28  OE2       34.4660   35.0420   29.8340 O.co2  83  GLU83      -0.2457
     29  N         39.0890   35.4050   26.3420 N.am   84  THR84      -0.1937
     30  CA        40.0540   35.9910   25.3930 C.3    84  THR84       0.2028
     31  C         40.5820   35.0060   24.3350 C.2    84  THR84       0.2642
     32  O         41.0720   35.4460   23.2890 O.2    84  THR84      -0.2714
     33  CB        41.2620   36.5560   26.1590 C.3    84  THR84       0.1808
     34  OG1       41.9680   35.4530   26.7310 O.3    84  THR84      -0.2208
     35  CG2       40.8570   37.5590   27.2700 C.3    84  THR84       0.0379
     36  N         40.5820   33.6940   24.6620 N.am   85  TYR85      -0.1973
     37  CA        41.1640   32.6070   23.8540 C.3    85  TYR85       0.1639
     38  C         42.6760   32.7600   23.7560 C.2    85  TYR85       0.2290
     39  O         43.3050   32.1210   22.9170 O.2    85  TYR85      -0.2864
     40  CB        40.5060   32.4360   22.4720 C.3    85  TYR85       0.0560
     41  CG        39.4610   31.3490   22.4850 C.ar   85  TYR85      -0.0198
     42  CD1       38.3310   31.4500   23.2990 C.ar   85  TYR85      -0.0009
     43  CD2       39.5930   30.2150   21.6850 C.ar   85  TYR85      -0.0009
     44  CE1       37.3700   30.4430   23.3310 C.ar   85  TYR85       0.0417
     45  CE2       38.6290   29.2040   21.7040 C.ar   85  TYR85       0.0417
     46  CZ        37.5180   29.3260   22.5290 C.ar   85  TYR85       0.1957
     47  OH        36.5690   28.3370   22.6000 O.3    85  TYR85      -0.2866
     48  N         35.2750   20.3260    9.8980 N.3   132  ARG132     -0.1245
     49  CA        34.1890   20.5800    8.9450 C.3   132  ARG132      0.1563
     50  C         34.6890   21.0760    7.6330 C.2   132  ARG132      0.2260
     51  O         35.6380   21.8670    7.5990 O.2   132  ARG132     -0.2867
     52  CB        33.1720   21.5610    9.5420 C.3   132  ARG132      0.0307
     53  CG        32.3430   20.8800   10.6050 C.3   132  ARG132      0.0489
     54  CD        32.1610   21.7010   11.8470 C.3   132  ARG132      0.2205
     55  NE        31.1640   22.7490   11.6840 N.pl3 132  ARG132     -0.0865
     56  CZ        30.2410   23.0470   12.5930 C.cat 132  ARG132      0.5346
     57  NH1       30.1670   22.3590   13.7260 N.pl3 132  ARG132      0.1354
     58  NH2       29.3770   24.0320   12.3730 N.pl3 132  ARG132      0.1354
     59  N         31.2310   25.6010    6.8450 N.3   135  GLU135     -0.1245
     60  CA        30.9260   26.2160    8.1490 C.3   135  GLU135      0.1567
     61  C         29.8140   25.4600    8.8590 C.2   135  GLU135      0.2260
     62  O         29.9010   25.2240   10.0640 O.2   135  GLU135     -0.2867
     63  CB        30.5660   27.6860    7.9550 C.3   135  GLU135      0.0388
     64  CG        30.7940   28.5650    9.1670 C.3   135  GLU135      0.1160
     65  CD        30.4470   30.0110    8.8860 C.2   135  GLU135      0.3649
     66  OE1       31.2200   30.7000    8.1800 O.co2 135  GLU135     -0.2457
     67  OE2       29.3740   30.4470    9.3510 O.co2 135  GLU135     -0.2457
     68  N         37.3620   40.4890   17.7320 N.3   162  PHE162     -0.1227
     69  CA        38.0540   40.1460   18.9780 C.3   162  PHE162      0.1736
     70  C         39.5010   40.6300   19.0050 C.2   162  PHE162      0.2595
     71  O         40.0610   40.9570   17.9540 O.2   162  PHE162     -0.2718
     72  CB        37.9680   38.6300   19.2170 C.3   162  PHE162      0.0547
     73  CG        36.5470   38.1100   19.2380 C.ar  162  PHE162     -0.0202
     74  CD1       35.8180   38.0800   20.4210 C.ar  162  PHE162     -0.0042
     75  CD2       35.9250   37.6900   18.0680 C.ar  162  PHE162     -0.0042
     76  CE1       34.4950   37.6220   20.4370 C.ar  162  PHE162     -0.0003
     77  CE2       34.5990   37.2440   18.0820 C.ar  162  PHE162     -0.0003
     78  CZ        33.8980   37.2060   19.2690 C.ar  162  PHE162     -0.0000
     79  N         40.0880   40.7240   20.2170 N.am  163  ILE163     -0.1980
     80  CA        41.4710   41.1560   20.3810 C.3   163  ILE163      0.1595
     81  C         42.4100   40.0240   19.9410 C.2   163  ILE163      0.2287
     82  O         42.2950   38.8940   20.4330 O.2   163  ILE163     -0.2864
     83  CB        41.7930   41.6800   21.8200 C.3   163  ILE163      0.0276
     84  CG1       41.0480   42.9990   22.1220 C.3   163  ILE163      0.0022
     85  CG2       43.3030   41.8910   22.0170 C.3   163  ILE163      0.0022
     86  CD1       40.1370   42.8870   23.2250 C.3   163  ILE163      0.0001
     87  N         39.5850   27.7600    4.2170 N.3   179  ASP179     -0.1225
     88  CA        40.2040   27.9940    5.5200 C.3   179  ASP179      0.1805
     89  C         39.9860   26.8170    6.4170 C.2   179  ASP179      0.2598
     90  O         39.2920   25.8900    6.0330 O.2   179  ASP179     -0.2718
     91  CB        39.7130   29.3070    6.1910 C.3   179  ASP179      0.1424
     92  CG        40.8490   30.0280    6.9250 C.2   179  ASP179      0.3668
     93  OD1       41.1280   31.2170    6.5850 O.co2 179  ASP179     -0.2456
     94  OD2       41.4760   29.3980    7.8270 O.co2 179  ASP179     -0.2456
     95  N         40.5580   26.8540    7.6260 N.am  180  ALA180     -0.1966
     96  CA        40.3750   25.8200    8.6440 C.3   180  ALA180      0.1728
     97  C         38.9700   26.0570    9.2250 C.2   180  ALA180      0.2616
     98  O         38.3370   27.0660    8.9080 O.2   180  ALA180     -0.2715
     99  CB        41.4490   25.9480    9.7120 C.3   180  ALA180      0.0334
    100  N         38.4310   25.0960    9.9530 N.am  181  CYS181     -0.1954
    101  CA        37.0820   25.2220   10.4930 C.3   181  CYS181      0.1843
    102  C         37.0090   24.4620   11.7890 C.2   181  CYS181      0.2625
    103  O         38.0200   23.9170   12.2200 O.2   181  CYS181     -0.2714
    104  CB        36.0390   24.7290    9.4800 C.3   181  CYS181      0.0997
    105  SG        34.3260   25.2230    9.8730 S.3   181  CYS181     -0.0797
    106  N         35.8300   24.4480   12.4380 N.am  182  GLN182     -0.1977
    107  CA        35.5700   23.7310   13.6870 C.3   182  GLN182      0.1601
    108  C         35.9550   22.2650   13.5590 C.2   182  GLN182      0.2287
    109  O         35.6070   21.6040   12.5650 O.2   182  GLN182     -0.2864
    110  CB        34.0830   23.8610   14.0570 C.3   182  GLN182      0.0394
    111  CG        33.7370   23.3380   15.4520 C.3   182  GLN182      0.0908
    112  CD        32.3970   23.8190   15.9200 C.2   182  GLN182      0.2608
    113  OE1       32.1100   25.0220   15.9330 O.2   182  GLN182     -0.2717
    114  NE2       31.5660   22.8930   16.3780 N.am  182  GLN182     -0.0878
    115  N         40.7540   22.6520   15.2300 N.3   185  SER185     -0.1217
    116  CA        41.3030   23.2340   16.4500 C.3   185  SER185      0.1889
    117  C         42.2960   22.2870   17.0940 C.2   185  SER185      0.2288
    118  O         42.0150   21.1040   17.2060 O.2   185  SER185     -0.2866
    119  CB        40.1700   23.5260   17.4360 C.3   185  SER185      0.2089
    120  OG        39.5140   24.7330   17.1060 O.3   185  SER185     -0.2183
    121  N         45.9100   25.4920   15.3640 N.3   203  VAL203     -0.1231
    122  CA        44.5700   25.9830   14.9690 C.3   203  VAL203      0.1692
    123  C         43.8320   26.4140   16.2650 C.2   203  VAL203      0.2593
    124  O         43.6180   25.6020   17.1740 O.2   203  VAL203     -0.2718
    125  CB        43.7220   24.9560   14.1680 C.3   203  VAL203      0.0266
    126  CG1       42.3750   25.5660   13.7290 C.3   203  VAL203      0.0020
    127  CG2       44.4870   24.4080   12.9680 C.3   203  VAL203      0.0020
    128  N         43.5200   27.6930   16.3630 N.am  204  SER204     -0.1938
    129  CA        42.8620   28.1850   17.5700 C.3   204  SER204      0.2055
    130  C         41.3870   28.5620   17.3540 C.2   204  SER204      0.2643
    131  O         40.5150   27.9640   17.9790 O.2   204  SER204     -0.2714
    132  CB        43.6640   29.3300   18.1860 C.3   204  SER204      0.2130
    133  OG        43.1890   29.6510   19.4780 O.3   204  SER204     -0.2179
    134  N         41.1000   29.5470   16.5030 N.am  205  TRP205     -0.1959
    135  CA        39.7070   29.9850   16.3200 C.3   205  TRP205      0.1771
    136  C         39.5520   30.8100   15.0580 C.2   205  TRP205      0.2620
    137  O         40.5220   31.0850   14.3600 O.2   205  TRP205     -0.2715
    138  CB        39.2000   30.7820   17.5730 C.3   205  TRP205      0.0590
    139  CG        40.0010   32.0110   17.9110 C.ar  205  TRP205      0.0006
    140  CD1       41.0970   32.0800   18.7260 C.ar  205  TRP205      0.0946
    141  CD2       39.7300   33.3610   17.4830 C.ar  205  TRP205      0.0152
    142  NE1       41.5550   33.3840   18.7960 N.ar  205  TRP205     -0.2442
    143  CE2       40.7300   34.1900   18.0460 C.ar  205  TRP205      0.0810
    144  CE3       38.6980   33.9630   16.7310 C.ar  205  TRP205      0.0012
    145  CZ2       40.7480   35.5790   17.8500 C.ar  205  TRP205      0.0191
    146  CZ3       38.7520   35.3320   16.4910 C.ar  205  TRP205      0.0001
    147  CH2       39.7470   36.1280   17.0700 C.ar  205  TRP205      0.0015
    148  N         38.3210   31.1880   14.7620 N.am  206  GLY206     -0.1940
    149  CA        38.0010   32.0330   13.6190 C.3   206  GLY206      0.2014
    150  C         36.5460   32.4360   13.7250 C.2   206  GLY206      0.2639
    151  O         35.7890   31.7890   14.4440 O.2   206  GLY206     -0.2714
    152  N         36.1600   33.5280   13.0690 N.am  207  GLU207     -0.1963
    153  CA        34.7690   34.0120   13.0850 C.3   207  GLU207      0.1733
    154  C         34.1220   33.3380   11.8830 C.2   207  GLU207      0.2617
    155  O         34.3560   33.7360   10.7440 O.2   207  GLU207     -0.2715
    156  CB        34.7540   35.5290   12.9670 C.3   207  GLU207      0.0429
    157  CG        35.2900   36.1960   14.2170 C.3   207  GLU207      0.1163
    158  CD        35.2940   37.6990   14.0890 C.2   207  GLU207      0.3649
    159  OE1       34.1940   38.2690   13.9130 O.co2 207  GLU207     -0.2457
    160  OE2       36.3940   38.2990   14.1100 O.co2 207  GLU207     -0.2457
    161  N         33.4870   32.2110   12.1530 N.am  208  GLY208     -0.1940
    162  CA        32.9670   31.3580   11.1050 C.3   208  GLY208      0.2014
    163  C         34.1100   30.5830   10.4860 C.2   208  GLY208      0.2639
    164  O         35.1550   30.3810   11.1360 O.2   208  GLY208     -0.2714
    165  N         33.9050   30.1250    9.2290 N.am  209  CYS209     -0.1953
    166  CA        34.9070   29.3990    8.4500 C.3   209  CYS209      0.1843
    167  C         34.8970   29.8990    7.0460 C.2   209  CYS209      0.2625
    168  O         33.8330   29.9450    6.4210 O.2   209  CYS209     -0.2714
    169  CB        34.6840   27.8940    8.4880 C.3   209  CYS209      0.0997
    170  SG        34.4330   27.2290   10.1390 S.3   209  CYS209     -0.0797
    171  N         36.0890   30.2390    6.5280 N.am  210  ALA210     -0.1963
    172  CA        36.3140   30.6810    5.1510 C.3   210  ALA210      0.1728
    173  C         35.5210   31.9400    4.7660 C.2   210  ALA210      0.2616
    174  O         35.3950   32.2360    3.5800 O.2   210  ALA210     -0.2715
    175  CB        36.0470   29.5350    4.1710 C.3   210  ALA210      0.0334
    176  N         35.0620   32.7200    5.7760 N.am  211  ARG211     -0.1977
    177  CA        34.3370   33.9730    5.5530 C.3   211  ARG211      0.1597
    178  C         35.2530   35.0260    4.9400 C.2   211  ARG211      0.2287
    179  O         36.4300   35.1380    5.3200 O.2   211  ARG211     -0.2864
    180  CB        33.7130   34.5040    6.8480 C.3   211  ARG211      0.0334
    181  CG        32.5530   33.6860    7.3540 C.3   211  ARG211      0.0492
    182  CD        31.9170   34.3600    8.5460 C.3   211  ARG211      0.2205
    183  NE        30.9540   33.4820    9.2120 N.pl3 211  ARG211     -0.0865
    184  CZ        30.4380   33.7100   10.4140 C.cat 211  ARG211      0.5346
    185  NH1       30.7940   34.7890   11.1040 N.pl3 211  ARG211      0.1354
    186  NH2       29.5780   32.8520   10.9470 N.pl3 211  ARG211      0.1354
    187  N         37.8910   37.6190    6.6080 N.3   214  LYS214     -0.1231
    188  CA        38.2140   36.9830    7.8950 C.3   214  LYS214      0.1693
    189  C         39.3320   35.9640    7.7070 C.2   214  LYS214      0.2592
    190  O         39.6130   35.5720    6.5770 O.2   214  LYS214     -0.2718
    191  CB        36.9790   36.3460    8.5600 C.3   214  LYS214      0.0285
    192  CG        35.8470   37.3230    8.8330 C.3   214  LYS214      0.0035
    193  CD        36.0830   38.1340   10.0840 C.3   214  LYS214      0.0206
    194  CE        35.0290   39.1960   10.2900 C.3   214  LYS214      0.1093
    195  NZ        35.2530   39.9010   11.5720 N.3   214  LYS214     -0.1314
    196  N         40.0070   35.5690    8.7930 N.am  215  TYR215     -0.1962
    197  CA        41.1280   34.6310    8.6940 C.3   215  TYR215      0.1771
    198  C         41.0860   33.6000    9.8040 C.2   215  TYR215      0.2620
    199  O         40.3830   33.7970   10.7980 O.2   215  TYR215     -0.2715
    200  CB        42.4830   35.3940    8.7470 C.3   215  TYR215      0.0574
    201  CG        42.5930   36.5150    7.7450 C.ar  215  TYR215     -0.0198
    202  CD1       42.8030   36.2500    6.3970 C.ar  215  TYR215     -0.0009
    203  CD2       42.3970   37.8410    8.1260 C.ar  215  TYR215     -0.0009
    204  CE1       42.8360   37.2740    5.4530 C.ar  215  TYR215      0.0417
    205  CE2       42.4470   38.8760    7.1920 C.ar  215  TYR215      0.0417
    206  CZ        42.6890   38.5880    5.8600 C.ar  215  TYR215      0.1957
    207  OH        42.7920   39.5910    4.9280 O.3   215  TYR215     -0.2866
    208  N         41.8970   32.5410    9.6430 N.am  216  GLY216     -0.1954
    209  CA        42.1040   31.5460   10.6840 C.3   216  GLY216      0.1869
    210  C         43.0490   32.1400   11.7030 C.2   216  GLY216      0.2309
    211  O         44.0050   32.8200   11.3110 O.2   216  GLY216     -0.2863
    212  N         45.6080   31.4470   14.8660 N.3   218  TYR218     -0.1241
    213  CA        46.4880   30.3920   15.3340 C.3   218  TYR218      0.1605
    214  C         47.2460   30.8100   16.5860 C.2   218  TYR218      0.2264
    215  O         47.6020   31.9650   16.6950 O.2   218  TYR218     -0.2867
    216  CB        47.5120   30.0680   14.2200 C.3   218  TYR218      0.0534
    217  CG        46.9020   29.4870   12.9640 C.ar  218  TYR218     -0.0201
    218  CD1       46.3700   30.3150   11.9720 C.ar  218  TYR218     -0.0009
    219  CD2       46.8430   28.1090   12.7670 C.ar  218  TYR218     -0.0009
    220  CE1       45.7280   29.7830   10.8510 C.ar  218  TYR218      0.0417
    221  CE2       46.2530   27.5680   11.6210 C.ar  218  TYR218      0.0417
    222  CZ        45.6790   28.4080   10.6740 C.ar  218  TYR218      0.1957
    223  OH        45.0560   27.8760    9.5630 O.3   218  TYR218     -0.2866
@<TRIPOS>BOND
     1   174   173    2
     2   175   172    1
     3    87    88    1
     4   173   172    1
     5   173   176   am
     6   207   206    1
     7   178   179    2
     8   178   177    1
     9   172   171    1
    10   204   206   ar
    11   204   202   ar
    12    88    91    1
    13    88    89    1
    14   177   176    1
    15   177   180    1
    16   206   205   ar
    17    90    89    2
    18    91    92    1
    19   202   201   ar
    20    89    95   am
    21   168   167    2
    22   171   167   am
    23   190   189    2
    24    93    92   ar
    25   187   188    1
    26    59    60    1
    27   180   181    1
    28    92    94   ar
    29   167   166    1
    30   205   203   ar
    31   181   182    1
    32    51    50    2
    33    95    96    1
    34    50    49    1
    35   189   188    1
    36   189   196   am
    37   201   203   ar
    38   201   200    1
    39   188   191    1
    40    63    60    1
    41    63    64    1
    42    60    61    1
    43    66    65   ar
    44   166   169    1
    45   166   165    1
    46   169   170    1
    47   182   183    1
    48   191   192    1
    49    96    97    1
    50    96    99    1
    51   197   200    1
    52   197   196    1
    53   197   198    1
    54   192   193    1
    55    61    62    2
    56    65    64    1
    57    65    67   ar
    58    98    97    2
    59    49    52    1
    60    49    48    1
    61   183   184    2
    62    97   100   am
    63   165   163   am
    64   104   105    1
    65   104   101    1
    66    52    53    1
    67   223   222    1
    68   208   198   am
    69   208   209    1
    70   198   199    2
    71   105   170    1
    72   100   101    1
    73   193   194    1
    74   194   195    1
    75   184   186    1
    76   184   185    1
    77   163   162    1
    78   163   164    2
    79   101   102    1
    80    53    54    1
    81   222   220   ar
    82   222   221   ar
    83   209   210    1
    84   155   154    2
    85   220   218   ar
    86   162   161    1
    87   211   210    2
    88   221   219   ar
    89    55    54    1
    90    55    56    2
    91   102   103    2
    92   102   106   am
    93   154   161   am
    94   154   153    1
    95   218   217   ar
    96    58    56    1
    97   106   107    1
    98   109   108    2
    99    56    57    1
   100   219   217   ar
   101   217   216    1
   102   156   153    1
   103   156   157    1
   104   127   125    1
   105   152   153    1
   106   152   150   am
   107   108   107    1
   108   149   150    1
   109   149   148    1
   110   107   110    1
   111   150   151    2
   112   126   125    1
   113   159   158   ar
   114   110   111    1
   115   158   160   ar
   116   158   157    1
   117   125   122    1
   118   216   213    1
   119   137   136    2
   120   148   136   am
   121   212   213    1
   122   122   121    1
   123   122   123    1
   124   136   135    1
   125   115   116    1
   126   213   214    1
   127   111   112    1
   128   112   113    2
   129   112   114   am
   130   123   128   am
   131   123   124    2
   132   135   134    1
   133   135   138    1
   134   128   129    1
   135   116   117    1
   136   116   119    1
   137   146   144   ar
   138   146   147   ar
   139   134   130   am
   140   214   215    2
   141   144   141   ar
   142   147   145   ar
   143   117   118    2
   144   120   119    1
   145   130   129    1
   146   130   131    2
   147   141   139   ar
   148   141   143   ar
   149   129   132    1
   150   138   139    1
   151    68    69    1
   152   145   143   ar
   153   139   140   ar
   154    71    70    2
   155   143   142   ar
   156    75    77   ar
   157    75    73   ar
   158    77    78   ar
   159   132   133    1
   160   140   142   ar
   161    69    70    1
   162    69    72    1
   163    70    79   am
   164    72    73    1
   165    73    74   ar
   166    78    76   ar
   167    81    80    1
   168    81    82    2
   169     9    10   ar
   170     9     7   ar
   171    79    80    1
   172    10     8   ar
   173    80    83    1
   174    74    76   ar
   175     7     6   ar
   176     8     6   ar
   177    43    45   ar
   178    43    41   ar
   179    45    46   ar
   180    83    85    1
   181    83    84    1
   182    84    86    1
   183     6     5    1
   184    40    41    1
   185    40    37    1
   186    41    42   ar
   187    46    47    1
   188    46    44   ar
   189    39    38    2
   190    32    31    2
   191    42    44   ar
   192     5     2    1
   193    38    37    1
   194    37    36    1
   195     3     4    2
   196     3     2    1
   197    31    36   am
   198    31    30    1
   199     2     1    1
   200    30    33    1
   201    30    29    1
   202    14    13    2
   203    23    22    2
   204    33    34    1
   205    33    35    1
   206    29    22   am
   207    22    21    1
   208    13    12    1
   209    13    20   am
   210    12    15    1
   211    12    11    1
   212    21    20    1
   213    21    24    1
   214    15    16    1
   215    24    25    1
   216    16    17    1
   217    17    18    1
   218    28    26   ar
   219    25    26    1
   220    19    18    1
   221    26    27   ar
