@<TRIPOS>MOLECULE
tmp/3kqiA00.pdb
 150 147 0 0 0
SMALL
GASTEIGER

@<TRIPOS>ATOM
      1  N        -20.0470   42.2240   -3.3930 N.3     9  TYR9       -0.1241
      2  CA       -19.8430   43.6570   -3.5390 C.3     9  TYR9        0.1605
      3  C        -20.8460   44.2540   -4.5070 C.2     9  TYR9        0.2264
      4  O        -21.6000   43.5250   -5.1390 O.2     9  TYR9       -0.2867
      5  CB       -18.4330   43.9190   -4.1060 C.3     9  TYR9        0.0534
      6  CG       -17.3040   43.3410   -3.2910 C.ar    9  TYR9       -0.0201
      7  CD1      -16.7800   44.0340   -2.1930 C.ar    9  TYR9       -0.0009
      8  CD2      -16.7650   42.0910   -3.6060 C.ar    9  TYR9       -0.0009
      9  CE1      -15.7410   43.4990   -1.4490 C.ar    9  TYR9        0.0417
     10  CE2      -15.7230   41.5530   -2.8660 C.ar    9  TYR9        0.0417
     11  CZ       -15.2160   42.2570   -1.7980 C.ar    9  TYR9        0.1957
     12  OH       -14.1810   41.7170   -1.0700 O.3     9  TYR9       -0.2866
     13  N        -15.9420   38.9400   -5.9210 N.3    16  TYR16      -0.1241
     14  CA       -14.9340   39.6490   -6.6790 C.3    16  TYR16       0.1605
     15  C        -14.4970   38.8480   -7.9180 C.2    16  TYR16       0.2264
     16  O        -14.3530   37.6260   -7.8610 O.2    16  TYR16      -0.2867
     17  CB       -13.7510   39.9810   -5.7560 C.3    16  TYR16       0.0534
     18  CG       -12.6250   40.7460   -6.4230 C.ar   16  TYR16      -0.0201
     19  CD1      -12.8750   41.8630   -7.2280 C.ar   16  TYR16      -0.0009
     20  CD2      -11.3010   40.3680   -6.2120 C.ar   16  TYR16      -0.0009
     21  CE1      -11.8230   42.5600   -7.8340 C.ar   16  TYR16       0.0417
     22  CE2      -10.2470   41.0610   -6.8100 C.ar   16  TYR16       0.0417
     23  CZ       -10.5200   42.1470   -7.6220 C.ar   16  TYR16       0.1957
     24  OH        -9.4720   42.8310   -8.2120 O.3    16  TYR16      -0.2866
     25  N        -11.4280   39.3190  -10.6840 N.3    18  VAL18      -0.1231
     26  CA       -10.2090   40.1240  -10.9460 C.3    18  VAL18       0.1692
     27  C        -10.1150   40.6930  -12.3670 C.2    18  VAL18       0.2593
     28  O         -9.2510   41.5320  -12.6450 O.2    18  VAL18      -0.2718
     29  CB        -8.8940   39.3400  -10.6340 C.3    18  VAL18       0.0266
     30  CG1       -8.9090   38.8470   -9.1980 C.3    18  VAL18       0.0020
     31  CG2       -8.7080   38.1690  -11.6080 C.3    18  VAL18       0.0020
     32  N        -10.9850   40.2300  -13.2640 N.am   19  THR19      -0.1939
     33  CA       -10.9610   40.6960  -14.6580 C.3    19  THR19       0.2028
     34  C        -11.8110   41.9410  -14.8820 C.2    19  THR19       0.2642
     35  O        -11.8300   42.4860  -15.9880 O.2    19  THR19      -0.2714
     36  CB       -11.3970   39.5850  -15.6440 C.3    19  THR19       0.1808
     37  OG1      -12.7880   39.2960  -15.4700 O.3    19  THR19      -0.2208
     38  CG2      -10.5820   38.3300  -15.4050 C.3    19  THR19       0.0379
     39  N        -12.4860   42.4030  -13.8260 N.am   20  ARG20      -0.1963
     40  CA       -13.3630   43.5740  -13.9190 C.3    20  ARG20       0.1729
     41  C        -12.9080   44.7050  -13.0070 C.2    20  ARG20       0.2616
     42  O        -12.6110   44.4830  -11.8310 O.2    20  ARG20      -0.2715
     43  CB       -14.8060   43.1940  -13.5810 C.3    20  ARG20       0.0348
     44  CG       -15.3720   42.1510  -14.5340 C.3    20  ARG20       0.0492
     45  CD       -16.7640   41.7670  -14.1270 C.3    20  ARG20       0.2205
     46  NE       -17.7160   42.8550  -14.3430 N.pl3  20  ARG20      -0.0865
     47  CZ       -18.9730   42.8230  -13.9080 C.cat  20  ARG20       0.5346
     48  NH1      -19.4070   41.7730  -13.2270 N.pl3  20  ARG20       0.1354
     49  NH2      -19.7890   43.8420  -14.1450 N.pl3  20  ARG20       0.1354
     50  N        -12.8500   45.9070  -13.5730 N.am   21  PHE21      -0.1960
     51  CA       -12.4680   47.1100  -12.8450 C.3    21  PHE21       0.1771
     52  C        -13.4960   47.4460  -11.7500 C.2    21  PHE21       0.2619
     53  O        -14.7050   47.3280  -11.9700 O.2    21  PHE21      -0.2715
     54  CB       -12.3170   48.2880  -13.8220 C.3    21  PHE21       0.0574
     55  CG       -12.3180   49.6250  -13.1530 C.ar   21  PHE21      -0.0200
     56  CD1      -11.2000   50.0610  -12.4400 C.ar   21  PHE21      -0.0042
     57  CD2      -13.4500   50.4310  -13.2020 C.ar   21  PHE21      -0.0042
     58  CE1      -11.2110   51.3030  -11.7960 C.ar   21  PHE21      -0.0003
     59  CE2      -13.4650   51.6740  -12.5550 C.ar   21  PHE21      -0.0003
     60  CZ       -12.3510   52.0910  -11.8450 C.ar   21  PHE21      -0.0000
     61  N        -13.0090   47.8670  -10.5840 N.am   22  MET22      -0.1963
     62  CA       -13.8920   48.3250   -9.4950 C.3    22  MET22       0.1736
     63  C        -13.3970   49.5910   -8.8020 C.2    22  MET22       0.2616
     64  O        -12.1890   49.8610   -8.7560 O.2    22  MET22      -0.2715
     65  CB       -14.1100   47.2200   -8.4450 C.3    22  MET22       0.0427
     66  CG       -14.5950   45.8950   -9.0170 C.3    22  MET22       0.0599
     67  SD       -15.0150   44.7410   -7.6880 S.3    22  MET22      -0.1393
     68  CE       -16.7380   45.1380   -7.4000 C.3    22  MET22       0.0692
     69  N        -14.3400   50.3560   -8.2540 N.am   23  ILE23      -0.1963
     70  CA       -14.0250   51.5910   -7.5300 C.3    23  ILE23       0.1727
     71  C        -14.7310   51.5970   -6.1650 C.2    23  ILE23       0.2616
     72  O        -15.8670   51.1300   -6.0470 O.2    23  ILE23      -0.2715
     73  CB       -14.3720   52.8440   -8.4020 C.3    23  ILE23       0.0290
     74  CG1      -13.9380   54.1530   -7.7190 C.3    23  ILE23       0.0022
     75  CG2      -15.8620   52.8390   -8.8110 C.3    23  ILE23       0.0023
     76  CD1      -13.9400   55.3670   -8.6890 C.3    23  ILE23       0.0001
     77  N        -14.0440   52.0820   -5.1310 N.am   24  GLU24      -0.1977
     78  CA       -14.5890   52.0760   -3.7860 C.3    24  GLU24       0.1602
     79  C        -15.3800   53.3510   -3.5400 C.2    24  GLU24       0.2287
     80  O        -14.9060   54.4510   -3.8500 O.2    24  GLU24      -0.2864
     81  CB       -13.4510   51.9850   -2.7580 C.3    24  GLU24       0.0415
     82  CG       -13.9270   51.8260   -1.3220 C.3    24  GLU24       0.1163
     83  CD       -12.8330   52.1600   -0.3150 C.2    24  GLU24       0.3649
     84  OE1      -12.1320   53.1740   -0.5100 O.co2  24  GLU24      -0.2457
     85  OE2      -12.6970   51.4250    0.6780 O.co2  24  GLU24      -0.2457
     86  N        -17.5770   48.2600   -2.8100 N.3    31  TRP31      -0.1241
     87  CA       -16.8710   48.3700   -4.0790 C.3    31  TRP31       0.1605
     88  C        -17.8220   48.1380   -5.2260 C.2    31  TRP31       0.2264
     89  O        -18.7530   47.3420   -5.1020 O.2    31  TRP31      -0.2867
     90  CB       -15.7470   47.3440   -4.1380 C.3    31  TRP31       0.0550
     91  CG       -14.6460   47.6410   -3.1690 C.ar   31  TRP31       0.0003
     92  CD1      -14.6240   47.3780   -1.8160 C.ar   31  TRP31       0.0946
     93  CD2      -13.4060   48.2750   -3.4780 C.ar   31  TRP31       0.0152
     94  NE1      -13.4340   47.8160   -1.2770 N.ar   31  TRP31      -0.2442
     95  CE2      -12.6710   48.3710   -2.2740 C.ar   31  TRP31       0.0810
     96  CE3      -12.8460   48.7870   -4.6620 C.ar   31  TRP31       0.0012
     97  CZ2      -11.3930   48.9400   -2.2220 C.ar   31  TRP31       0.0191
     98  CZ3      -11.5710   49.3510   -4.6060 C.ar   31  TRP31       0.0001
     99  CH2      -10.8640   49.4190   -3.3920 C.ar   31  TRP31       0.0015
    100  N        -12.7730   52.6740  -16.4440 N.3    41  GLU41      -0.1245
    101  CA       -11.4900   52.4690  -15.7640 C.3    41  GLU41       0.1567
    102  C        -10.5370   53.6350  -16.0290 C.2    41  GLU41       0.2260
    103  O         -9.8690   54.1150  -15.1180 O.2    41  GLU41      -0.2867
    104  CB       -10.8510   51.1200  -16.1480 C.3    41  GLU41       0.0388
    105  CG        -9.4880   50.8620  -15.4850 C.3    41  GLU41       0.1160
    106  CD        -9.0450   49.4030  -15.5130 C.2    41  GLU41       0.3649
    107  OE1       -9.6800   48.5850  -16.2170 O.co2  41  GLU41      -0.2457
    108  OE2       -8.0520   49.0710  -14.8220 O.co2  41  GLU41      -0.2457
    109  N        -11.3340   56.8750  -13.9660 N.3    44  ALA44      -0.1245
    110  CA       -11.2420   56.8050  -12.5110 C.3    44  ALA44       0.1562
    111  C        -10.0560   57.5470  -11.8710 C.2    44  ALA44       0.2260
    112  O        -10.2190   58.1090  -10.7810 O.2    44  ALA44      -0.2867
    113  CB       -11.3010   55.3480  -12.0330 C.3    44  ALA44       0.0290
    114  N        -11.0430   60.8240  -10.5440 N.3    47  ILE47      -0.1231
    115  CA       -11.9790   60.9230   -9.4320 C.3    47  ILE47       0.1692
    116  C        -11.2320   61.0180   -8.0940 C.2    47  ILE47       0.2592
    117  O        -10.3710   60.1960   -7.7790 O.2    47  ILE47      -0.2718
    118  CB       -13.0390   59.7630   -9.4390 C.3    47  ILE47       0.0266
    119  CG1      -13.7780   59.7370  -10.7950 C.3    47  ILE47       0.0019
    120  CG2      -14.0180   59.9210   -8.2530 C.3    47  ILE47       0.0020
    121  CD1      -14.5740   58.4510  -11.0740 C.3    47  ILE47       0.0001
    122  N        -11.5550   62.0510   -7.3250 N.am   48  ASP48      -0.1974
    123  CA       -10.9930   62.2240   -5.9980 C.3    48  ASP48       0.1709
    124  C        -11.8420   61.4200   -5.0190 C.2    48  ASP48       0.2293
    125  O        -11.4630   60.3110   -4.6500 O.2    48  ASP48      -0.2864
    126  CB       -10.9550   63.7190   -5.6230 C.3    48  ASP48       0.1436
    127  CG       -10.3060   63.9770   -4.2640 C.2    48  ASP48       0.3671
    128  OD1      -10.4280   65.1190   -3.7670 O.co2  48  ASP48      -0.2456
    129  OD2       -9.6730   63.0560   -3.6960 O.co2  48  ASP48      -0.2456
    130  N        -15.0560   59.2910   -4.5890 N.3    50  TYR50      -0.1241
    131  CA       -16.1260   58.5720   -5.2680 C.3    50  TYR50       0.1605
    132  C        -17.2810   58.2670   -4.3230 C.2    50  TYR50       0.2264
    133  O        -17.0770   57.7230   -3.2350 O.2    50  TYR50      -0.2867
    134  CB       -15.6440   57.2720   -5.9350 C.3    50  TYR50       0.0534
    135  CG       -16.8020   56.5710   -6.6040 C.ar   50  TYR50      -0.0201
    136  CD1      -17.3820   57.1120   -7.7640 C.ar   50  TYR50      -0.0009
    137  CD2      -17.3640   55.4120   -6.0570 C.ar   50  TYR50      -0.0009
    138  CE1      -18.4760   56.5160   -8.3680 C.ar   50  TYR50       0.0417
    139  CE2      -18.4830   54.7990   -6.6640 C.ar   50  TYR50       0.0417
    140  CZ       -19.0220   55.3610   -7.8190 C.ar   50  TYR50       0.1957
    141  OH       -20.1160   54.7890   -8.4360 O.3    50  TYR50      -0.2866
    142  N        -10.2770   65.2950   -8.9220 N.3    65  LYS65      -0.1245
    143  CA        -8.9580   65.7920   -8.5130 C.3    65  LYS65       0.1561
    144  C         -8.6290   67.0960   -9.2380 C.2    65  LYS65       0.2260
    145  O         -8.7950   67.1860  -10.4550 O.2    65  LYS65      -0.2867
    146  CB        -7.8760   64.7530   -8.8330 C.3    65  LYS65       0.0271
    147  CG        -8.0200   63.4540   -8.0410 C.3    65  LYS65       0.0035
    148  CD        -6.8990   62.4710   -8.3800 C.3    65  LYS65       0.0206
    149  CE        -7.0690   61.1430   -7.6190 C.3    65  LYS65       0.1093
    150  NZ        -6.2600   60.0880   -8.3180 N.3    65  LYS65      -0.1314
@<TRIPOS>BOND
     1   100   101    1
     2   107   106   ar
     3   104   101    1
     4   104   105    1
     5   102   101    1
     6   102   103    2
     7    35    34    2
     8    36    37    1
     9    36    38    1
    10    36    33    1
    11   106   105    1
    12   106   108   ar
    13    34    33    1
    14    34    39   am
    15    33    32    1
    16    44    45    1
    17    44    43    1
    18    46    45    1
    19    46    47    2
    20    49    47    1
    21   109   110    1
    22    40    39    1
    23    40    43    1
    24    40    41    1
    25    47    48    1
    26    54    55    1
    27    54    51    1
    28    50    41   am
    29    50    51    1
    30    32    27   am
    31    57    55   ar
    32    57    59   ar
    33    55    56   ar
    34    41    42    2
    35    51    52    1
    36    28    27    2
    37    59    60   ar
    38   110   113    1
    39   110   111    1
    40    56    58   ar
    41    27    26    1
    42    53    52    2
    43   111   112    2
    44    60    58   ar
    45    52    61   am
    46    31    29    1
    47   121   119    1
    48    26    25    1
    49    26    29    1
    50   119   118    1
    51    29    30    1
    52    61    62    1
    53   114   115    1
    54   145   144    2
    55    62    63    1
    56    62    65    1
    57   118   115    1
    58   118   120    1
    59   115   116    1
    60   144   143    1
    61    66    65    1
    62    66    67    1
    63   142   143    1
    64   146   143    1
    65   146   147    1
    66    75    73    1
    67    63    64    2
    68    63    69   am
    69    76    74    1
    70   141   140    1
    71    73    74    1
    72    73    70    1
    73   148   147    1
    74   148   149    1
    75   138   140   ar
    76   138   136   ar
    77   150   149    1
    78    69    70    1
    79    24    23    1
    80   116   117    2
    81   116   122   am
    82    15    16    2
    83    15    14    1
    84    21    23   ar
    85    21    19   ar
    86   140   139   ar
    87   136   135   ar
    88    67    68    1
    89    23    22   ar
    90    70    71    1
    91   122   123    1
    92    19    18   ar
    93    22    20   ar
    94    14    13    1
    95    14    17    1
    96   139   137   ar
    97   135   137   ar
    98   135   134    1
    99    18    20   ar
   100    18    17    1
   101    71    72    2
   102    71    77   am
   103   123   126    1
   104   123   124    1
   105   134   131    1
   106   126   127    1
   107   131   130    1
   108   131   132    1
   109    88    89    2
   110    88    87    1
   111     4     3    2
   112    77    78    1
   113   124   125    2
   114    96    98   ar
   115    96    93   ar
   116    98    99   ar
   117     3     2    1
   118   132   133    2
   119   127   128   ar
   120   127   129   ar
   121    90    87    1
   122    90    91    1
   123     5     2    1
   124     5     6    1
   125    87    86    1
   126    80    79    2
   127    78    79    1
   128    78    81    1
   129     8     6   ar
   130     8    10   ar
   131     2     1    1
   132    93    91   ar
   133    93    95   ar
   134    99    97   ar
   135     6     7   ar
   136    91    92   ar
   137    10    11   ar
   138    81    82    1
   139    95    97   ar
   140    95    94   ar
   141     7     9   ar
   142    92    94   ar
   143    11     9   ar
   144    11    12    1
   145    82    83    1
   146    84    83   ar
   147    83    85   ar
