@<TRIPOS>MOLECULE
tmp/3kqlB00.pdb
 133 126 0 0 0
SMALL
GASTEIGER

@<TRIPOS>ATOM
      1  N        -34.1380   45.1740  -57.6170 N.3    18  THR18      -0.1203
      2  CA       -33.0530   46.0740  -57.2700 C.3    18  THR18       0.1994
      3  C        -33.0140   47.2350  -58.2470 C.2    18  THR18       0.2618
      4  O        -33.1990   47.0520  -59.4560 O.2    18  THR18      -0.2717
      5  CB       -31.7090   45.3560  -57.3260 C.3    18  THR18       0.1784
      6  OG1      -31.5370   44.7810  -58.6360 O.3    18  THR18      -0.2211
      7  CG2      -31.6590   44.2640  -56.2800 C.3    18  THR18       0.0376
      8  N        -32.7600   48.4280  -57.7210 N.am   19  GLY19      -0.1942
      9  CA       -32.7090   49.6000  -58.5670 C.3    19  GLY19       0.2014
     10  C        -34.0800   50.0260  -59.0760 C.2    19  GLY19       0.2640
     11  O        -34.1560   50.7480  -60.0610 O.2    19  GLY19      -0.2714
     12  N        -35.1600   49.5930  -58.4250 N.am   20  SER20      -0.1935
     13  CA       -36.5090   49.9780  -58.8530 C.3    20  SER20       0.2055
     14  C        -36.7900   51.4240  -58.4930 C.2    20  SER20       0.2644
     15  O        -37.2940   52.1860  -59.3190 O.2    20  SER20      -0.2714
     16  CB       -37.5920   49.1260  -58.1740 C.3    20  SER20       0.2130
     17  OG       -37.7550   47.8590  -58.7830 O.3    20  SER20      -0.2179
     18  N        -36.4710   51.7870  -57.2520 N.am   21  GLY21      -0.1939
     19  CA       -36.7060   53.1400  -56.7860 C.3    21  GLY21       0.2014
     20  C        -37.3840   53.1270  -55.4340 C.2    21  GLY21       0.2639
     21  O        -38.0720   54.0750  -55.0630 O.2    21  GLY21      -0.2714
     22  N        -37.1970   52.0480  -54.6840 N.am   22  LYS22      -0.1963
     23  CA       -37.8220   51.9540  -53.3670 C.3    22  LYS22       0.1728
     24  C        -37.2630   52.9880  -52.4200 C.2    22  LYS22       0.2617
     25  O        -37.9810   53.4980  -51.5710 O.2    22  LYS22      -0.2715
     26  CB       -37.5870   50.5840  -52.7400 C.3    22  LYS22       0.0311
     27  CG       -37.7760   49.4110  -53.6730 C.3    22  LYS22       0.0038
     28  CD       -37.3800   48.1480  -52.9550 C.3    22  LYS22       0.0206
     29  CE       -36.4890   47.2820  -53.8250 C.3    22  LYS22       0.1093
     30  NZ       -35.1010   47.7890  -53.9710 N.3    22  LYS22      -0.1314
     31  N        -35.9730   53.2830  -52.5730 N.am   23  SER23      -0.1936
     32  CA       -35.2570   54.2350  -51.7100 C.3    23  SER23       0.2055
     33  C        -35.2580   55.6950  -52.1420 C.2    23  SER23       0.2644
     34  O        -34.9570   56.5780  -51.3390 O.2    23  SER23      -0.2714
     35  CB       -33.8010   53.8030  -51.5600 C.3    23  SER23       0.2130
     36  OG       -33.6900   52.5560  -50.9120 O.3    23  SER23      -0.2179
     37  N        -35.5630   55.9470  -53.4070 N.am   24  THR24      -0.1936
     38  CA       -35.5520   57.3080  -53.9130 C.3    24  THR24       0.2028
     39  C        -36.9200   57.7580  -54.3860 C.2    24  THR24       0.2642
     40  O        -37.4900   58.7050  -53.8460 O.2    24  THR24      -0.2714
     41  CB       -34.5750   57.4300  -55.0740 C.3    24  THR24       0.1808
     42  OG1      -34.9040   56.4480  -56.0670 O.3    24  THR24      -0.2208
     43  CG2      -33.1600   57.2080  -54.5960 C.3    24  THR24       0.0379
     44  N        -37.4570   57.0780  -55.3910 N.am   25  LYS25      -0.1977
     45  CA       -38.7580   57.4590  -55.9170 C.3    25  LYS25       0.1596
     46  C        -39.8630   57.4140  -54.8740 C.2    25  LYS25       0.2287
     47  O        -40.5950   58.3740  -54.7050 O.2    25  LYS25      -0.2864
     48  CB       -39.1360   56.5760  -57.1040 C.3    25  LYS25       0.0298
     49  CG       -38.1710   56.6790  -58.2660 C.3    25  LYS25       0.0038
     50  CD       -38.6560   55.8800  -59.4710 C.3    25  LYS25       0.0206
     51  CE       -37.6310   55.8960  -60.5940 C.3    25  LYS25       0.1093
     52  NZ       -38.1250   55.1400  -61.7780 N.3    25  LYS25      -0.1314
     53  N        -24.8910   58.2660  -50.3140 N.3    49  GLY49      -0.1210
     54  CA       -25.1190   58.4080  -51.7410 C.3    49  GLY49       0.1956
     55  C        -26.3750   59.1430  -52.1740 C.2    49  GLY49       0.2611
     56  O        -26.3830   59.8620  -53.1790 O.2    49  GLY49      -0.2717
     57  N        -27.4480   58.9630  -51.4200 N.am   50  PHE50      -0.1976
     58  CA       -28.7110   59.5960  -51.7520 C.3    50  PHE50       0.1639
     59  C        -28.6620   61.1200  -51.7680 C.2    50  PHE50       0.2290
     60  O        -29.3790   61.7640  -52.5330 O.2    50  PHE50      -0.2864
     61  CB       -29.7700   59.1230  -50.7750 C.3    50  PHE50       0.0560
     62  CG       -29.9330   57.6400  -50.7480 C.ar   50  PHE50      -0.0200
     63  CD1      -30.3280   56.9570  -51.8930 C.ar   50  PHE50      -0.0042
     64  CD2      -29.7120   56.9240  -49.5740 C.ar   50  PHE50      -0.0042
     65  CE1      -30.5100   55.5810  -51.8770 C.ar   50  PHE50      -0.0003
     66  CE2      -29.8890   55.5430  -49.5380 C.ar   50  PHE50      -0.0003
     67  CZ       -30.2910   54.8670  -50.6940 C.ar   50  PHE50      -0.0000
     68  N        -27.7760   62.6920  -55.4000 N.3    53  TYR53      -0.1241
     69  CA       -28.7670   62.2690  -56.3750 C.3    53  TYR53       0.1605
     70  C        -30.1510   62.8520  -56.1080 C.2    53  TYR53       0.2264
     71  O        -30.7400   63.4750  -56.9840 O.2    53  TYR53      -0.2867
     72  CB       -28.8300   60.7450  -56.4400 C.3    53  TYR53       0.0534
     73  CG       -29.8440   60.2170  -57.4330 C.ar   53  TYR53      -0.0201
     74  CD1      -31.0640   59.7000  -57.0000 C.ar   53  TYR53      -0.0009
     75  CD2      -29.6000   60.2640  -58.8070 C.ar   53  TYR53      -0.0009
     76  CE1      -32.0200   59.2470  -57.9030 C.ar   53  TYR53       0.0417
     77  CE2      -30.5540   59.8110  -59.7260 C.ar   53  TYR53       0.0417
     78  CZ       -31.7620   59.3050  -59.2630 C.ar   53  TYR53       0.1957
     79  OH       -32.7220   58.8690  -60.1500 O.3    53  TYR53      -0.2866
     80  N        -33.8680   47.3330  -46.9720 N.3   103  GLU103     -0.1245
     81  CA       -33.1270   46.0950  -46.7970 C.3   103  GLU103      0.1567
     82  C        -33.5900   45.3800  -45.5390 C.2   103  GLU103      0.2260
     83  O        -32.7720   44.8310  -44.7760 O.2   103  GLU103     -0.2867
     84  CB       -31.6150   46.3760  -46.7100 C.3   103  GLU103      0.0388
     85  CG       -31.0610   47.3600  -47.7590 C.3   103  GLU103      0.1160
     86  CD       -31.3200   46.9520  -49.2160 C.2   103  GLU103      0.3649
     87  OE1      -31.0910   47.8030  -50.1030 O.co2 103  GLU103     -0.2457
     88  OE2      -31.7410   45.8040  -49.4860 O.co2 103  GLU103     -0.2457
     89  N        -28.1740   48.9970  -51.7150 N.3   229  GLY229     -0.1225
     90  CA       -28.5260   50.4010  -51.8610 C.3   229  GLY229      0.1811
     91  C        -27.5810   51.3490  -52.5630 C.2   229  GLY229      0.2280
     92  O        -27.9440   52.4900  -52.8380 O.2   229  GLY229     -0.2866
     93  N        -25.4400   52.9140  -55.6500 N.3   231  THR231     -0.1218
     94  CA       -25.4870   53.0660  -57.1120 C.3   231  THR231      0.1862
     95  C        -24.1900   53.7400  -57.5380 C.2   231  THR231      0.2287
     96  O        -24.0480   54.9550  -57.3970 O.2   231  THR231     -0.2866
     97  CB       -26.6370   54.0140  -57.5940 C.3   231  THR231      0.1770
     98  OG1      -27.9070   53.5060  -57.1980 O.3   231  THR231     -0.2211
     99  CG2      -26.5990   54.1540  -59.1030 C.3   231  THR231      0.0375
    100  N        -23.0430   53.4820  -60.6690 N.3   233  ASP233     -0.1239
    101  CA       -23.0750   53.5850  -62.1270 C.3   233  ASP233      0.1674
    102  C        -22.0090   52.6360  -62.7010 C.2   233  ASP233      0.2266
    103  O        -21.0730   53.0720  -63.3700 O.2   233  ASP233     -0.2867
    104  CB       -22.7770   55.0210  -62.5780 C.3   233  ASP233      0.1410
    105  CG       -23.0800   55.2480  -64.0570 C.2   233  ASP233      0.3668
    106  OD1      -22.6830   56.3060  -64.5960 O.co2 233  ASP233     -0.2456
    107  OD2      -23.7190   54.3790  -64.6830 O.co2 233  ASP233     -0.2456
    108  N        -25.9740   45.6300  -57.9700 N.3   276  ARG276     -0.1245
    109  CA       -25.1860   46.8630  -57.9530 C.3   276  ARG276      0.1563
    110  C        -25.0030   47.4210  -59.3740 C.2   276  ARG276      0.2260
    111  O        -24.5940   48.5700  -59.5540 O.2   276  ARG276     -0.2867
    112  CB       -23.8280   46.6380  -57.2730 C.3   276  ARG276      0.0307
    113  CG       -23.8460   46.6420  -55.7210 C.3   276  ARG276      0.0489
    114  CD       -25.0280   47.4050  -55.1420 C.3   276  ARG276      0.2205
    115  NE       -26.2060   46.5440  -55.0760 N.pl3 276  ARG276     -0.0865
    116  CZ       -27.4570   46.9760  -54.9410 C.cat 276  ARG276      0.5346
    117  NH1      -27.7180   48.2710  -54.8570 N.pl3 276  ARG276      0.1354
    118  NH2      -28.4540   46.1010  -54.8850 N.pl3 276  ARG276      0.1354
    119  N        -28.7160   49.3450  -63.0920 N.3   279  ARG279     -0.1231
    120  CA       -29.5560   50.2560  -62.3340 C.3   279  ARG279      0.1694
    121  C        -29.9540   51.4280  -63.2140 C.2   279  ARG279      0.2592
    122  O        -29.2490   52.4410  -63.2960 O.2   279  ARG279     -0.2718
    123  CB       -28.7870   50.7460  -61.1060 C.3   279  ARG279      0.0321
    124  CG       -28.2430   49.6140  -60.2610 C.3   279  ARG279      0.0489
    125  CD       -27.5450   50.1380  -59.0240 C.3   279  ARG279      0.2205
    126  NE       -28.4490   50.8270  -58.0970 N.pl3 279  ARG279     -0.0865
    127  CZ       -29.3270   50.2240  -57.3010 C.cat 279  ARG279      0.5346
    128  NH1      -29.4410   48.9020  -57.3030 N.pl3 279  ARG279      0.1354
    129  NH2      -30.0820   50.9460  -56.4870 N.pl3 279  ARG279      0.1354
    130  N        -31.1020   51.2970  -63.8650 N.am  280  GLY280     -0.1957
    131  CA       -31.5380   52.3500  -64.7590 C.3   280  GLY280      0.1869
    132  C        -31.0960   52.0930  -66.1950 C.2   280  GLY280      0.2309
    133  O        -31.6250   52.7090  -67.1140 O.2   280  GLY280     -0.2863
@<TRIPOS>BOND
     1   133   132    2
     2   132   131    1
     3   131   130    1
     4   107   105   ar
     5   106   105   ar
     6   105   104    1
     7   130   121   am
     8   103   102    2
     9   122   121    2
    10   121   120    1
    11   119   120    1
    12   102   101    1
    13   104   101    1
    14   120   123    1
    15   101   100    1
    16    52    51    1
    17   123   124    1
    18    51    50    1
    19   124   125    1
    20    79    78    1
    21    11    10    2
    22    77    78   ar
    23    77    75   ar
    24   111   110    2
    25    50    49    1
    26     4     3    2
    27   110   109    1
    28    15    14    2
    29    78    76   ar
    30    99    97    1
    31    10     9    1
    32    10    12   am
    33   125   126    1
    34    13    14    1
    35    13    12    1
    36    13    16    1
    37    75    73   ar
    38    17    16    1
    39     6     5    1
    40     9     8    1
    41    14    18   am
    42    49    48    1
    43     3     8   am
    44     3     2    1
    45   126   127    2
    46   108   109    1
    47   109   112    1
    48    76    74   ar
    49     1     2    1
    50    97    98    1
    51    97    94    1
    52    95    96    2
    53    95    94    1
    54    73    74   ar
    55    73    72    1
    56     5     2    1
    57     5     7    1
    58   128   127    1
    59   127   129    1
    60   112   113    1
    61    18    19    1
    62    94    93    1
    63    48    45    1
    64    71    70    2
    65    19    20    1
    66    72    69    1
    67    69    70    1
    68    69    68    1
    69    42    41    1
    70    45    44    1
    71    45    46    1
    72   113   114    1
    73    20    21    2
    74    20    22   am
    75    44    39   am
    76   114   115    1
    77   115   116    2
    78    41    43    1
    79    41    38    1
    80   116   118    1
    81   116   117    1
    82    46    47    2
    83    22    23    1
    84    39    38    1
    85    39    40    2
    86    30    29    1
    87    38    37    1
    88    29    28    1
    89    27    28    1
    90    27    26    1
    91    37    33   am
    92    23    26    1
    93    23    24    1
    94    56    55    2
    95    92    91    2
    96    31    24   am
    97    31    32    1
    98    91    90    1
    99    60    59    2
   100    24    25    2
   101    55    54    1
   102    55    57   am
   103    33    32    1
   104    33    34    2
   105    63    65   ar
   106    63    62   ar
   107    65    67   ar
   108    90    89    1
   109    59    58    1
   110    58    57    1
   111    58    61    1
   112    54    53    1
   113    32    35    1
   114    35    36    1
   115    61    62    1
   116    62    64   ar
   117    67    66   ar
   118    87    86   ar
   119    64    66   ar
   120    88    86   ar
   121    86    85    1
   122    85    84    1
   123    80    81    1
   124    81    84    1
   125    81    82    1
   126    82    83    2
