@<TRIPOS>MOLECULE
tmp/3kqoB01.pdb
 126 117 0 0 0
SMALL
GASTEIGER

@<TRIPOS>ATOM
      1  N         36.2130   59.2320  -25.3400 N.3    22  TYR22      -0.1241
      2  CA        34.8100   58.8570  -25.5350 C.3    22  TYR22       0.1605
      3  C         34.1360   58.5240  -24.2010 C.2    22  TYR22       0.2264
      4  O         33.0730   59.0530  -23.8850 O.2    22  TYR22      -0.2867
      5  CB        34.7020   57.6620  -26.4700 C.3    22  TYR22       0.0534
      6  CG        33.2840   57.2220  -26.7360 C.ar   22  TYR22      -0.0201
      7  CD1       32.4950   57.8850  -27.6700 C.ar   22  TYR22      -0.0009
      8  CD2       32.7350   56.1350  -26.0680 C.ar   22  TYR22      -0.0009
      9  CE1       31.1960   57.4820  -27.9290 C.ar   22  TYR22       0.0417
     10  CE2       31.4310   55.7210  -26.3150 C.ar   22  TYR22       0.0417
     11  CZ        30.6670   56.4040  -27.2420 C.ar   22  TYR22       0.1957
     12  OH        29.3790   55.9980  -27.4980 O.3    22  TYR22      -0.2866
     13  N         30.9620   60.7620  -22.7520 N.3    26  ASN26      -0.1225
     14  CA        29.5960   60.2540  -22.6480 C.3    26  ASN26       0.1785
     15  C         29.2370   59.5430  -21.3340 C.2    26  ASN26       0.2597
     16  O         28.0560   59.3980  -21.0080 O.2    26  ASN26      -0.2718
     17  CB        29.2760   59.3370  -23.8350 C.3    26  ASN26       0.1169
     18  CG        29.1190   60.0980  -25.1360 C.2    26  ASN26       0.2627
     19  OD1       28.1910   60.8870  -25.2950 O.2    26  ASN26      -0.2716
     20  ND2       30.0180   59.8500  -26.0820 N.am   26  ASN26      -0.0877
     21  N         30.2320   59.1050  -20.5710 N.am   27  TYR27      -0.1976
     22  CA        29.9230   58.2690  -19.4160 C.3    27  TYR27       0.1639
     23  C         30.4180   58.7900  -18.0660 C.2    27  TYR27       0.2290
     24  O         29.9540   58.3470  -17.0180 O.2    27  TYR27      -0.2864
     25  CB        30.3190   56.8210  -19.7040 C.3    27  TYR27       0.0560
     26  CG        29.5200   56.2990  -20.8790 C.ar   27  TYR27      -0.0198
     27  CD1       30.0510   56.2930  -22.1690 C.ar   27  TYR27      -0.0009
     28  CD2       28.2080   55.8870  -20.7080 C.ar   27  TYR27      -0.0009
     29  CE1       29.3060   55.8450  -23.2500 C.ar   27  TYR27       0.0417
     30  CE2       27.4520   55.4390  -21.7780 C.ar   27  TYR27       0.0417
     31  CZ        28.0070   55.4220  -23.0470 C.ar   27  TYR27       0.1957
     32  OH        27.2520   54.9700  -24.0990 O.3    27  TYR27      -0.2866
     33  N         27.0990   63.8870  -18.2880 N.3    31  ARG31      -0.1245
     34  CA        26.2520   62.8720  -18.9200 C.3    31  ARG31       0.1563
     35  C         26.2440   61.5820  -18.1130 C.2    31  ARG31       0.2260
     36  O         25.2800   60.8210  -18.1570 O.2    31  ARG31      -0.2867
     37  CB        26.6930   62.5940  -20.3640 C.3    31  ARG31       0.0307
     38  CG        26.4320   63.7490  -21.3160 C.3    31  ARG31       0.0489
     39  CD        26.7190   63.3920  -22.7660 C.3    31  ARG31       0.2205
     40  NE        26.3550   64.4900  -23.6600 N.pl3  31  ARG31      -0.0865
     41  CZ        26.4700   64.4640  -24.9880 C.cat  31  ARG31       0.5346
     42  NH1       26.9360   63.3830  -25.6050 N.pl3  31  ARG31       0.1354
     43  NH2       26.1150   65.5270  -25.7030 N.pl3  31  ARG31       0.1354
     44  N         20.3570   61.7690  -18.9970 N.3    40  VAL40      -0.1245
     45  CA        20.3250   60.7650  -20.0480 C.3    40  VAL40       0.1561
     46  C         20.7940   59.4040  -19.5520 C.2    40  VAL40       0.2260
     47  O         20.2930   58.3740  -19.9940 O.2    40  VAL40      -0.2867
     48  CB        21.1260   61.1830  -21.3100 C.3    40  VAL40       0.0252
     49  CG1       22.6020   61.3260  -20.9980 C.3    40  VAL40       0.0019
     50  CG2       20.9200   60.1570  -22.4110 C.3    40  VAL40       0.0019
     51  N         18.7180   55.9520  -20.1540 N.3    44  LYS44      -0.1245
     52  CA        19.2680   54.7770  -20.8220 C.3    44  LYS44       0.1561
     53  C         19.0090   53.5150  -20.0100 C.2    44  LYS44       0.2260
     54  O         18.3940   52.5660  -20.4940 O.2    44  LYS44      -0.2867
     55  CB        20.7740   54.9180  -21.0230 C.3    44  LYS44       0.0271
     56  CG        21.2120   55.8400  -22.1450 C.3    44  LYS44       0.0035
     57  CD        22.7070   55.6610  -22.3990 C.3    44  LYS44       0.0206
     58  CE        23.2880   56.7950  -23.2130 C.3    44  LYS44       0.1093
     59  NZ        24.7210   56.5550  -23.5220 N.3    44  LYS44      -0.1314
     60  N         24.1940   53.1120  -29.9790 N.3   169  PHE169     -0.1241
     61  CA        24.9520   54.2140  -30.5690 C.3   169  PHE169      0.1605
     62  C         26.0020   53.7470  -31.5660 C.2   169  PHE169      0.2264
     63  O         27.0770   54.3340  -31.6720 O.2   169  PHE169     -0.2867
     64  CB        25.5790   55.0780  -29.4710 C.3   169  PHE169      0.0534
     65  CG        24.5700   55.6490  -28.5210 C.ar  169  PHE169     -0.0203
     66  CD1       24.1900   54.9490  -27.3920 C.ar  169  PHE169     -0.0042
     67  CD2       23.9730   56.8690  -28.7770 C.ar  169  PHE169     -0.0042
     68  CE1       23.2470   55.4640  -26.5220 C.ar  169  PHE169     -0.0003
     69  CE2       23.0280   57.3900  -27.9130 C.ar  169  PHE169     -0.0003
     70  CZ        22.6640   56.6850  -26.7820 C.ar  169  PHE169     -0.0000
     71  N         21.6430   57.9700  -31.1710 N.3   203  ALA203     -0.1245
     72  CA        21.5470   59.4220  -31.2150 C.3   203  ALA203      0.1562
     73  C         20.5720   59.8980  -32.2910 C.2   203  ALA203      0.2260
     74  O         20.5180   59.3400  -33.3830 O.2   203  ALA203     -0.2867
     75  CB        22.9250   60.0200  -31.4560 C.3   203  ALA203      0.0290
     76  N         22.0880   63.7060  -34.9850 N.3   206  GLU206     -0.1245
     77  CA        23.5030   63.9630  -34.7340 C.3   206  GLU206      0.1567
     78  C         24.3090   63.8540  -36.0220 C.2   206  GLU206      0.2260
     79  O         24.1580   62.8850  -36.7660 O.2   206  GLU206     -0.2867
     80  CB        24.0550   62.9810  -33.6980 C.3   206  GLU206      0.0388
     81  CG        25.4850   63.2750  -33.2840 C.3   206  GLU206      0.1160
     82  CD        26.0190   62.2860  -32.2680 C.2   206  GLU206      0.3649
     83  OE1       25.4450   62.1970  -31.1660 O.co2 206  GLU206     -0.2457
     84  OE2       27.0220   61.6050  -32.5670 O.co2 206  GLU206     -0.2457
     85  N         30.6090   63.8590  -33.7620 N.3   209  TYR209     -0.1241
     86  CA        31.0280   63.7810  -32.3630 C.3   209  TYR209      0.1605
     87  C         32.5390   63.6240  -32.2440 C.2   209  TYR209      0.2264
     88  O         33.2080   63.2000  -33.1850 O.2   209  TYR209     -0.2867
     89  CB        30.2820   62.6740  -31.5990 C.3   209  TYR209      0.0534
     90  CG        30.7540   61.2540  -31.8460 C.ar  209  TYR209     -0.0201
     91  CD1       31.5900   60.6120  -30.9370 C.ar  209  TYR209     -0.0009
     92  CD2       30.3350   60.5380  -32.9670 C.ar  209  TYR209     -0.0009
     93  CE1       32.0140   59.3060  -31.1460 C.ar  209  TYR209      0.0417
     94  CE2       30.7530   59.2320  -33.1850 C.ar  209  TYR209      0.0417
     95  CZ        31.5940   58.6210  -32.2680 C.ar  209  TYR209      0.1957
     96  OH        32.0140   57.3220  -32.4710 O.3   209  TYR209     -0.2866
     97  N         17.6260   65.7430  -25.4540 N.3   245  MET245     -0.1245
     98  CA        18.8200   66.1320  -24.7150 C.3   245  MET245      0.1570
     99  C         18.6740   67.5260  -24.1110 C.2   245  MET245      0.2261
    100  O         18.4480   68.4940  -24.8250 O.2   245  MET245     -0.2867
    101  CB        20.0520   66.0760  -25.6180 C.3   245  MET245      0.0387
    102  CG        21.3760   66.0570  -24.8710 C.3   245  MET245      0.0595
    103  SD        21.6660   64.5280  -23.9580 S.3   245  MET245     -0.1393
    104  CE        21.5660   63.2950  -25.2390 C.3   245  MET245      0.0692
    105  N         29.5220   66.8070  -29.1890 N.3   254  ASP254     -0.1239
    106  CA        28.7720   66.4160  -30.3780 C.3   254  ASP254      0.1674
    107  C         27.6570   67.4220  -30.6470 C.2   254  ASP254      0.2266
    108  O         27.5900   68.4710  -30.0080 O.2   254  ASP254     -0.2867
    109  CB        28.2010   65.0050  -30.2090 C.3   254  ASP254      0.1410
    110  CG        27.4160   64.8480  -28.9230 C.2   254  ASP254      0.3668
    111  OD1       27.5210   63.7770  -28.2850 O.co2 254  ASP254     -0.2456
    112  OD2       26.7020   65.8010  -28.5430 O.co2 254  ASP254     -0.2456
    113  N         24.3740   66.1500  -30.8210 N.3   256  VAL256     -0.1245
    114  CA        23.2070   65.3120  -30.5700 C.3   256  VAL256      0.1561
    115  C         22.0430   66.1700  -30.0880 C.2   256  VAL256      0.2260
    116  O         22.2300   67.0680  -29.2760 O.2   256  VAL256     -0.2867
    117  CB        23.5070   64.1920  -29.5340 C.3   256  VAL256      0.0252
    118  CG1       23.7530   64.7790  -28.1490 C.3   256  VAL256      0.0019
    119  CG2       22.3710   63.1840  -29.4920 C.3   256  VAL256      0.0019
    120  N         17.9990   61.2260  -27.9620 N.3   259  VAL259     -0.1245
    121  CA        18.3390   59.8100  -27.9790 C.3   259  VAL259      0.1561
    122  C         17.0730   58.9870  -28.1710 C.2   259  VAL259      0.2260
    123  O         16.0210   59.3230  -27.6290 O.2   259  VAL259     -0.2867
    124  CB        18.9960   59.3960  -26.6490 C.3   259  VAL259      0.0252
    125  CG1       19.2260   57.8970  -26.6070 C.3   259  VAL259      0.0019
    126  CG2       20.2880   60.1740  -26.4360 C.3   259  VAL259      0.0019
@<TRIPOS>BOND
     1    79    78    2
     2    78    77    1
     3    76    77    1
     4    77    80    1
     5    85    86    1
     6    80    81    1
     7    74    73    2
     8    81    82    1
     9    94    92   ar
    10    94    95   ar
    11    88    87    2
    12    92    90   ar
    13    84    82   ar
    14    96    95    1
    15    86    87    1
    16    86    89    1
    17    73    72    1
    18    82    83   ar
    19    95    93   ar
    20    90    89    1
    21    90    91   ar
    22    63    62    2
    23    62    61    1
    24    75    72    1
    25    72    71    1
    26    93    91   ar
    27   113   114    1
    28   107   106    1
    29   107   108    2
    30   114   115    1
    31   114   117    1
    32    61    60    1
    33    61    64    1
    34   106   109    1
    35   106   105    1
    36   109   110    1
    37   115   116    2
    38   117   119    1
    39   117   118    1
    40    64    65    1
    41   110   112   ar
    42   110   111   ar
    43    67    65   ar
    44    67    69   ar
    45    65    66   ar
    46   122   121    1
    47   122   123    2
    48   121   120    1
    49   121   124    1
    50     9     7   ar
    51     9    11   ar
    52    69    70   ar
    53     7     6   ar
    54    12    11    1
    55    66    68   ar
    56    11    10   ar
    57    70    68   ar
    58     6     5    1
    59     6     8   ar
    60   124   125    1
    61   124   126    1
    62     5     2    1
    63    10     8   ar
    64    20    18   am
    65    43    41    1
    66   101   102    1
    67   101    98    1
    68    42    41    1
    69     2     1    1
    70     2     3    1
    71    97    98    1
    72    19    18    2
    73   104   103    1
    74    18    17    1
    75    41    40    2
    76   102   103    1
    77   100    99    2
    78    98    99    1
    79     3     4    2
    80    32    31    1
    81    17    14    1
    82    40    39    1
    83    59    58    1
    84    29    31   ar
    85    29    27   ar
    86    58    57    1
    87    31    30   ar
    88    39    38    1
    89    13    14    1
    90    14    15    1
    91    50    48    1
    92    57    56    1
    93    27    26   ar
    94    56    55    1
    95    30    28   ar
    96    15    16    2
    97    15    21   am
    98    38    37    1
    99    48    49    1
   100    48    45    1
   101    55    52    1
   102    26    28   ar
   103    26    25    1
   104    52    51    1
   105    52    53    1
   106    21    22    1
   107    54    53    2
   108    37    34    1
   109    45    46    1
   110    45    44    1
   111    47    46    2
   112    25    22    1
   113    22    23    1
   114    34    33    1
   115    34    35    1
   116    36    35    2
   117    23    24    2
