@<TRIPOS>MOLECULE
tmp/3kqpB01.pdb
 131 121 0 0 0
SMALL
GASTEIGER

@<TRIPOS>ATOM
      1  N         36.2220   59.6090  -25.0760 N.3    22  TYR22      -0.1241
      2  CA        34.8080   59.2590  -25.2410 C.3    22  TYR22       0.1605
      3  C         34.1510   58.8660  -23.9070 C.2    22  TYR22       0.2264
      4  O         33.0380   59.3010  -23.6060 O.2    22  TYR22      -0.2867
      5  CB        34.6580   58.1210  -26.2520 C.3    22  TYR22       0.0534
      6  CG        33.2370   57.6440  -26.4560 C.ar   22  TYR22      -0.0201
      7  CD1       32.3560   58.3470  -27.2760 C.ar   22  TYR22      -0.0009
      8  CD2       32.7790   56.4770  -25.8470 C.ar   22  TYR22      -0.0009
      9  CE1       31.0520   57.9080  -27.4760 C.ar   22  TYR22       0.0417
     10  CE2       31.4750   56.0280  -26.0400 C.ar   22  TYR22       0.0417
     11  CZ        30.6190   56.7510  -26.8560 C.ar   22  TYR22       0.1957
     12  OH        29.3250   56.3150  -27.0570 O.3    22  TYR22      -0.2866
     13  N         30.9830   61.1330  -22.2780 N.3    26  ASN26      -0.1225
     14  CA        29.5980   60.6850  -22.1490 C.3    26  ASN26       0.1785
     15  C         29.2760   59.9840  -20.8200 C.2    26  ASN26       0.2597
     16  O         28.1240   59.9760  -20.3730 O.2    26  ASN26      -0.2718
     17  CB        29.2180   59.7760  -23.3250 C.3    26  ASN26       0.1169
     18  CG        29.1330   60.5270  -24.6500 C.2    26  ASN26       0.2627
     19  OD1       28.1460   61.2040  -24.9290 O.2    26  ASN26      -0.2716
     20  ND2       30.1650   60.3960  -25.4760 N.am   26  ASN26      -0.0877
     21  N         30.2880   59.4040  -20.1820 N.am   27  TYR27      -0.1976
     22  CA        30.0250   58.5440  -19.0340 C.3    27  TYR27       0.1639
     23  C         30.5890   59.0440  -17.7030 C.2    27  TYR27       0.2290
     24  O         30.2230   58.5380  -16.6430 O.2    27  TYR27      -0.2864
     25  CB        30.4100   57.1000  -19.3650 C.3    27  TYR27       0.0560
     26  CG        29.5730   56.6190  -20.5300 C.ar   27  TYR27      -0.0198
     27  CD1       30.0940   56.5750  -21.8250 C.ar   27  TYR27      -0.0009
     28  CD2       28.2370   56.2860  -20.3470 C.ar   27  TYR27      -0.0009
     29  CE1       29.3160   56.1780  -22.8910 C.ar   27  TYR27       0.0417
     30  CE2       27.4520   55.8930  -21.4120 C.ar   27  TYR27       0.0417
     31  CZ        27.9990   55.8420  -22.6780 C.ar   27  TYR27       0.1957
     32  OH        27.2200   55.4380  -23.7250 O.3    27  TYR27      -0.2866
     33  N         27.1700   64.2540  -17.7790 N.3    31  ARG31      -0.1245
     34  CA        26.2850   63.2650  -18.3920 C.3    31  ARG31       0.1563
     35  C         26.3190   61.9600  -17.6210 C.2    31  ARG31       0.2260
     36  O         25.3670   61.1840  -17.6600 O.2    31  ARG31      -0.2867
     37  CB        26.6640   63.0050  -19.8500 C.3    31  ARG31       0.0307
     38  CG        26.3600   64.1580  -20.7820 C.3    31  ARG31       0.0489
     39  CD        26.6300   63.7850  -22.2240 C.3    31  ARG31       0.2205
     40  NE        26.3320   64.9030  -23.1090 N.pl3  31  ARG31      -0.0865
     41  CZ        26.3500   64.8330  -24.4360 C.cat  31  ARG31       0.5346
     42  NH1       26.6470   63.6860  -25.0530 N.pl3  31  ARG31       0.1354
     43  NH2       26.0640   65.9150  -25.1470 N.pl3  31  ARG31       0.1354
     44  N         20.3050   61.9240  -18.6760 N.3    40  VAL40      -0.1245
     45  CA        20.2230   60.9660  -19.7670 C.3    40  VAL40       0.1561
     46  C         20.7120   59.5880  -19.3520 C.2    40  VAL40       0.2260
     47  O         20.1510   58.5740  -19.7640 O.2    40  VAL40      -0.2867
     48  CB        20.9470   61.4700  -21.0650 C.3    40  VAL40       0.0252
     49  CG1       22.4530   61.5000  -20.8880 C.3    40  VAL40       0.0019
     50  CG2       20.5700   60.6030  -22.2500 C.3    40  VAL40       0.0019
     51  N         18.5280   56.1920  -19.8800 N.3    44  LYS44      -0.1245
     52  CA        19.0190   55.0460  -20.6470 C.3    44  LYS44       0.1561
     53  C         18.9120   53.7550  -19.8390 C.2    44  LYS44       0.2260
     54  O         18.3730   52.7520  -20.3220 O.2    44  LYS44      -0.2867
     55  CB        20.4640   55.2620  -21.1080 C.3    44  LYS44       0.0271
     56  CG        20.6190   56.2960  -22.2120 C.3    44  LYS44       0.0035
     57  CD        21.8980   56.0680  -23.0170 C.3    44  LYS44       0.0206
     58  CE        23.1320   56.4180  -22.2130 C.3    44  LYS44       0.1093
     59  NZ        24.3720   56.3130  -23.0140 N.3    44  LYS44      -0.1314
     60  N         24.1400   53.6900  -29.7500 N.3   169  PHE169     -0.1241
     61  CA        24.9010   54.7850  -30.3430 C.3   169  PHE169      0.1605
     62  C         25.9600   54.3050  -31.3420 C.2   169  PHE169      0.2264
     63  O         27.0260   54.9090  -31.4810 O.2   169  PHE169     -0.2867
     64  CB        25.5040   55.6610  -29.2360 C.3   169  PHE169      0.0534
     65  CG        24.4740   56.1960  -28.2800 C.ar  169  PHE169     -0.0203
     66  CD1       24.1360   55.4850  -27.1360 C.ar  169  PHE169     -0.0042
     67  CD2       23.8090   57.3790  -28.5440 C.ar  169  PHE169     -0.0042
     68  CE1       23.1710   55.9590  -26.2680 C.ar  169  PHE169     -0.0003
     69  CE2       22.8400   57.8590  -27.6770 C.ar  169  PHE169     -0.0003
     70  CZ        22.5230   57.1460  -26.5340 C.ar  169  PHE169     -0.0000
     71  N         26.1960   56.4390  -35.7200 N.3   173  ALA173     -0.1245
     72  CA        27.5340   56.9830  -35.5260 C.3   173  ALA173      0.1562
     73  C         28.5450   56.4930  -36.5650 C.2   173  ALA173      0.2260
     74  O         29.6640   56.9890  -36.6080 O.2   173  ALA173     -0.2867
     75  CB        28.0400   56.6740  -34.1140 C.3   173  ALA173      0.0290
     76  N         21.5430   58.4370  -30.7960 N.3   203  ALA203     -0.1245
     77  CA        21.3830   59.8800  -30.8460 C.3   203  ALA203      0.1562
     78  C         20.3870   60.2780  -31.9330 C.2   203  ALA203      0.2260
     79  O         20.3440   59.6590  -32.9900 O.2   203  ALA203     -0.2867
     80  CB        22.7250   60.5400  -31.0940 C.3   203  ALA203      0.0290
     81  N         21.8080   64.0660  -34.6670 N.3   206  GLU206     -0.1245
     82  CA        23.2110   64.3220  -34.3870 C.3   206  GLU206      0.1567
     83  C         24.0020   64.2160  -35.6810 C.2   206  GLU206      0.2260
     84  O         23.7950   63.2810  -36.4490 O.2   206  GLU206     -0.2867
     85  CB        23.7360   63.3040  -33.3770 C.3   206  GLU206      0.0388
     86  CG        25.1250   63.5740  -32.8450 C.3   206  GLU206      0.1160
     87  CD        25.6290   62.4270  -31.9750 C.2   206  GLU206      0.3649
     88  OE1       25.9630   62.6710  -30.7980 O.co2 206  GLU206     -0.2457
     89  OE2       25.6670   61.2760  -32.4650 O.co2 206  GLU206     -0.2457
     90  N         30.2050   64.0400  -33.2540 N.3   209  TYR209     -0.1241
     91  CA        30.6170   63.9320  -31.8560 C.3   209  TYR209      0.1605
     92  C         32.1360   63.7960  -31.7600 C.2   209  TYR209      0.2264
     93  O         32.7870   63.4150  -32.7300 O.2   209  TYR209     -0.2867
     94  CB        29.8800   62.7970  -31.1150 C.3   209  TYR209      0.0534
     95  CG        30.3730   61.3870  -31.3870 C.ar  209  TYR209     -0.0201
     96  CD1       31.1470   60.7090  -30.4470 C.ar  209  TYR209     -0.0009
     97  CD2       30.0440   60.7230  -32.5710 C.ar  209  TYR209     -0.0009
     98  CE1       31.5900   59.4160  -30.6830 C.ar  209  TYR209      0.0417
     99  CE2       30.4830   59.4300  -32.8170 C.ar  209  TYR209      0.0417
    100  CZ        31.2540   58.7790  -31.8660 C.ar  209  TYR209      0.1957
    101  OH        31.6970   57.4940  -32.0980 O.3   209  TYR209     -0.2866
    102  N         17.4850   66.0140  -25.1160 N.3   245  MET245     -0.1245
    103  CA        18.6910   66.3770  -24.3880 C.3   245  MET245      0.1570
    104  C         18.5220   67.7240  -23.6770 C.2   245  MET245      0.2261
    105  O         18.2260   68.7300  -24.3070 O.2   245  MET245     -0.2867
    106  CB        19.8950   66.4090  -25.3320 C.3   245  MET245      0.0387
    107  CG        21.2400   66.2530  -24.6300 C.3   245  MET245      0.0595
    108  SD        21.5260   64.5880  -23.9860 S.3   245  MET245     -0.1393
    109  CE        21.1870   63.6130  -25.4410 C.3   245  MET245      0.0692
    110  N         29.2920   67.0750  -28.7560 N.3   254  ASP254     -0.1239
    111  CA        28.4830   66.6550  -29.8940 C.3   254  ASP254      0.1674
    112  C         27.3580   67.6520  -30.1010 C.2   254  ASP254      0.2266
    113  O         27.2570   68.6420  -29.3790 O.2   254  ASP254     -0.2867
    114  CB        27.9150   65.2420  -29.6820 C.3   254  ASP254      0.1410
    115  CG        27.0830   65.1230  -28.4090 C.2   254  ASP254      0.3668
    116  OD1       27.1030   64.0380  -27.7790 O.co2 254  ASP254     -0.2456
    117  OD2       26.4060   66.1070  -28.0400 O.co2 254  ASP254     -0.2456
    118  N         24.1170   66.3490  -30.4580 N.3   256  VAL256     -0.1245
    119  CA        22.9390   65.5210  -30.1950 C.3   256  VAL256      0.1561
    120  C         21.7840   66.3430  -29.6040 C.2   256  VAL256      0.2260
    121  O         21.9720   67.1290  -28.6730 O.2   256  VAL256     -0.2867
    122  CB        23.2850   64.3270  -29.2590 C.3   256  VAL256      0.0252
    123  CG1       23.8230   64.8300  -27.9390 C.3   256  VAL256      0.0019
    124  CG2       22.0680   63.4530  -29.0290 C.3   256  VAL256      0.0019
    125  N         17.8310   61.5060  -27.6090 N.3   259  VAL259     -0.1245
    126  CA        18.1960   60.1010  -27.6510 C.3   259  VAL259      0.1561
    127  C         16.9200   59.2890  -27.8340 C.2   259  VAL259      0.2260
    128  O         15.8660   59.6300  -27.2900 O.2   259  VAL259     -0.2867
    129  CB        18.8730   59.6730  -26.3330 C.3   259  VAL259      0.0252
    130  CG1       19.2690   58.2000  -26.3770 C.3   259  VAL259      0.0019
    131  CG2       20.0700   60.5740  -26.0350 C.3   259  VAL259      0.0019
@<TRIPOS>BOND
     1    74    73    2
     2    73    72    1
     3    84    83    2
     4    71    72    1
     5    83    82    1
     6    72    75    1
     7    81    82    1
     8    82    85    1
     9    85    86    1
    10    90    91    1
    11    79    78    2
    12    86    87    1
    13    99    97   ar
    14    99   100   ar
    15    93    92    2
    16    97    95   ar
    17    89    87   ar
    18   101   100    1
    19    87    88   ar
    20    78    77    1
    21   100    98   ar
    22    91    92    1
    23    91    94    1
    24    63    62    2
    25    95    94    1
    26    95    96   ar
    27    62    61    1
    28    80    77    1
    29    77    76    1
    30    98    96   ar
    31   118   119    1
    32    61    60    1
    33    61    64    1
    34   119   120    1
    35   119   122    1
    36   112   111    1
    37   112   113    2
    38   111   114    1
    39   111   110    1
    40   114   115    1
    41   120   121    2
    42   122   124    1
    43   122   123    1
    44    64    65    1
    45    67    65   ar
    46    67    69   ar
    47   115   117   ar
    48   115   116   ar
    49    65    66   ar
    50   127   126    1
    51   127   128    2
    52    69    70   ar
    53   126   125    1
    54   126   129    1
    55     9     7   ar
    56     9    11   ar
    57     7     6   ar
    58    66    68   ar
    59    12    11    1
    60    11    10   ar
    61    70    68   ar
    62     6     5    1
    63     6     8   ar
    64   130   129    1
    65   129   131    1
    66     5     2    1
    67    10     8   ar
    68    20    18   am
    69   109   108    1
    70   106   107    1
    71   106   103    1
    72     2     1    1
    73     2     3    1
    74    43    41    1
    75   102   103    1
    76    42    41    1
    77    19    18    2
    78    18    17    1
    79   107   108    1
    80    41    40    2
    81   103   104    1
    82   105   104    2
    83     3     4    2
    84    32    31    1
    85    17    14    1
    86    40    39    1
    87    57    58    1
    88    57    56    1
    89    59    58    1
    90    29    31   ar
    91    29    27   ar
    92    31    30   ar
    93    13    14    1
    94    50    48    1
    95    39    38    1
    96    56    55    1
    97    14    15    1
    98    27    26   ar
    99    30    28   ar
   100    55    52    1
   101    48    49    1
   102    48    45    1
   103    15    16    2
   104    15    21   am
   105    38    37    1
   106    52    51    1
   107    52    53    1
   108    26    28   ar
   109    26    25    1
   110    54    53    2
   111    21    22    1
   112    37    34    1
   113    45    46    1
   114    45    44    1
   115    47    46    2
   116    25    22    1
   117    22    23    1
   118    34    33    1
   119    34    35    1
   120    23    24    2
   121    36    35    2
