@<TRIPOS>MOLECULE
tmp/3kqqA01.pdb
 126 117 0 0 0
SMALL
GASTEIGER

@<TRIPOS>ATOM
      1  N         37.8800   48.7020   15.9700 N.3    12  TYR12      -0.1241
      2  CA        36.4600   48.4350   16.1700 C.3    12  TYR12       0.1605
      3  C         35.7300   48.3910   14.8310 C.2    12  TYR12       0.2264
      4  O         34.9410   47.4720   14.5750 O.2    12  TYR12      -0.2867
      5  CB        35.8210   49.4690   17.1030 C.3    12  TYR12       0.0534
      6  CG        34.3160   49.3120   17.2680 C.ar   12  TYR12      -0.0201
      7  CD1       33.7820   48.4490   18.2280 C.ar   12  TYR12      -0.0009
      8  CD2       33.4250   50.0380   16.4690 C.ar   12  TYR12      -0.0009
      9  CE1       32.4080   48.3070   18.3820 C.ar   12  TYR12       0.0417
     10  CE2       32.0470   49.9030   16.6190 C.ar   12  TYR12       0.0417
     11  CZ        31.5480   49.0360   17.5720 C.ar   12  TYR12       0.1957
     12  OH        30.1920   48.8980   17.7250 O.3    12  TYR12      -0.2866
     13  N         33.9520   44.9590   13.0310 N.3    16  ASN16      -0.1225
     14  CA        32.4950   44.9900   12.9720 C.3    16  ASN16       0.1785
     15  C         31.8890   45.4710   11.6580 C.2    16  ASN16       0.2597
     16  O         30.7550   45.1130   11.3370 O.2    16  ASN16      -0.2718
     17  CB        31.9380   45.8180   14.1330 C.3    16  ASN16       0.1169
     18  CG        32.2160   45.1850   15.4830 C.2    16  ASN16       0.2627
     19  OD1       31.8050   44.0590   15.7510 O.2    16  ASN16      -0.2716
     20  ND2       32.9270   45.9050   16.3340 N.am   16  ASN16      -0.0877
     21  N         32.6300   46.2770   10.8980 N.am   17  TYR17      -0.1976
     22  CA        32.0510   46.8920    9.7030 C.3    17  TYR17       0.1639
     23  C         32.8350   46.6500    8.4200 C.2    17  TYR17       0.2290
     24  O         32.4960   47.1780    7.3680 O.2    17  TYR17      -0.2864
     25  CB        31.7280   48.3680    9.9550 C.3    17  TYR17       0.0560
     26  CG        30.7130   48.4870   11.0750 C.ar   17  TYR17      -0.0198
     27  CD1       31.1220   48.6040   12.4060 C.ar   17  TYR17      -0.0009
     28  CD2       29.3480   48.3970   10.8120 C.ar   17  TYR17      -0.0009
     29  CE1       30.1940   48.6760   13.4370 C.ar   17  TYR17       0.0417
     30  CE2       28.4190   48.4660   11.8300 C.ar   17  TYR17       0.0417
     31  CZ        28.8430   48.6030   13.1420 C.ar   17  TYR17       0.1957
     32  OH        27.9100   48.6700   14.1510 O.3    17  TYR17      -0.2866
     33  N         31.5540   40.5760    8.5560 N.3    21  ARG21      -0.1245
     34  CA        30.3530   41.2210    9.0900 C.3    21  ARG21       0.1563
     35  C         29.9670   42.4220    8.2660 C.2    21  ARG21       0.2260
     36  O         28.8170   42.8670    8.2910 O.2    21  ARG21      -0.2867
     37  CB        30.5600   41.6390   10.5370 C.3    21  ARG21       0.0307
     38  CG        30.7580   40.4540   11.4370 C.3    21  ARG21       0.0489
     39  CD        30.7210   40.8510   12.8610 C.3    21  ARG21       0.2205
     40  NE        30.5790   39.6790   13.7090 N.pl3  21  ARG21      -0.0865
     41  CZ        30.3630   39.7370   15.0190 C.cat  21  ARG21       0.5346
     42  NH1       30.2600   40.9190   15.6250 N.pl3  21  ARG21       0.1354
     43  NH2       30.2520   38.6170   15.7190 N.pl3  21  ARG21       0.1354
     44  N         24.2240   40.2500    9.2420 N.3    30  VAL30      -0.1245
     45  CA        23.7970   41.2040   10.2690 C.3    30  VAL30       0.1561
     46  C         23.6670   42.6450    9.7570 C.2    30  VAL30       0.2260
     47  O         22.7430   43.3700   10.1320 O.2    30  VAL30      -0.2867
     48  CB        24.7380   41.1520   11.5210 C.3    30  VAL30       0.0252
     49  CG1       26.1770   41.5490   11.1510 C.3    30  VAL30       0.0019
     50  CG2       24.1780   41.9990   12.6810 C.3    30  VAL30       0.0019
     51  N         20.2570   44.8230   10.1990 N.3    34  LYS34      -0.1245
     52  CA        20.1390   46.0920   10.9000 C.3    34  LYS34       0.1561
     53  C         19.5870   47.2060   10.0060 C.2    34  LYS34       0.2260
     54  O         18.6430   47.9050   10.3810 O.2    34  LYS34      -0.2867
     55  CB        21.4820   46.4870   11.4940 C.3    34  LYS34       0.0271
     56  CG        21.9340   45.5670   12.6060 C.3    34  LYS34       0.0035
     57  CD        23.1600   46.1170   13.3210 C.3    34  LYS34       0.0206
     58  CE        24.3430   46.2940   12.3700 C.3    34  LYS34       0.1093
     59  NZ        25.5400   46.6850   13.1450 N.3    34  LYS34      -0.1314
     60  N         24.2720   49.3350   20.2280 N.3   159  PHE159     -0.1241
     61  CA        25.4230   48.6500   20.8130 C.3   159  PHE159      0.1605
     62  C         26.1560   49.5010   21.8510 C.2   159  PHE159      0.2264
     63  O         27.3570   49.3610   22.0670 O.2   159  PHE159     -0.2867
     64  CB        26.3760   48.1860   19.7070 C.3   159  PHE159      0.0534
     65  CG        25.7170   47.3070   18.6900 C.ar  159  PHE159     -0.0203
     66  CD1       25.3200   47.8230   17.4590 C.ar  159  PHE159     -0.0042
     67  CD2       25.4710   45.9640   18.9690 C.ar  159  PHE159     -0.0042
     68  CE1       24.7080   47.0090   16.5190 C.ar  159  PHE159     -0.0003
     69  CE2       24.8590   45.1430   18.0380 C.ar  159  PHE159     -0.0003
     70  CZ        24.4750   45.6640   16.8090 C.ar  159  PHE159     -0.0000
     71  N         23.4050   44.0470   21.3420 N.3   193  ALA193     -0.1245
     72  CA        23.8650   42.6750   21.2750 C.3   193  ALA193      0.1562
     73  C         23.1360   41.7880   22.2840 C.2   193  ALA193      0.2260
     74  O         22.8410   42.2040   23.4100 O.2   193  ALA193     -0.2867
     75  CB        25.3590   42.6300   21.4940 C.3   193  ALA193      0.0290
     76  N         25.8530   38.8850   24.9280 N.3   196  GLU196     -0.1245
     77  CA        27.2700   39.1680   24.7330 C.3   196  GLU196      0.1567
     78  C         27.9070   39.4950   26.0950 C.2   196  GLU196      0.2260
     79  O         27.2570   40.0840   26.9700 O.2   196  GLU196     -0.2867
     80  CB        27.4400   40.3550   23.7650 C.3   196  GLU196      0.0388
     81  CG        28.8700   40.8510   23.6490 C.3   196  GLU196      0.1160
     82  CD        28.9860   42.1410   22.8510 C.2   196  GLU196      0.3649
     83  OE1       28.0350   42.9440   22.8890 O.co2 196  GLU196     -0.2457
     84  OE2       30.0280   42.3540   22.1920 O.co2 196  GLU196     -0.2457
     85  N         33.8980   42.0340   24.0250 N.3   199  TYR199     -0.1241
     86  CA        34.3090   42.2310   22.6410 C.3   199  TYR199      0.1605
     87  C         35.6060   43.0250   22.6150 C.2   199  TYR199      0.2264
     88  O         35.9190   43.7630   23.5560 O.2   199  TYR199     -0.2867
     89  CB        33.2290   42.9440   21.8300 C.3   199  TYR199      0.0534
     90  CG        33.0810   44.4180   22.1360 C.ar  199  TYR199     -0.0201
     91  CD1       33.6680   45.3730   21.3150 C.ar  199  TYR199     -0.0009
     92  CD2       32.3440   44.8600   23.2370 C.ar  199  TYR199     -0.0009
     93  CE1       33.5260   46.7290   21.5700 C.ar  199  TYR199      0.0417
     94  CE2       32.2000   46.2210   23.5080 C.ar  199  TYR199      0.0417
     95  CZ        32.7960   47.1480   22.6640 C.ar  199  TYR199      0.1957
     96  OH        32.6730   48.4980   22.8970 O.3   199  TYR199     -0.2866
     97  N         22.9330   35.1530   15.3590 N.3   235  MET235     -0.1245
     98  CA        24.2350   35.2800   14.7200 C.3   235  MET235      0.1570
     99  C         24.6880   33.9910   14.0130 C.2   235  MET235      0.2261
    100  O         25.0080   33.0030   14.6570 O.2   235  MET235     -0.2867
    101  CB        25.2810   35.7530   15.7330 C.3   235  MET235      0.0387
    102  CG        26.5800   36.2340   15.0970 C.3   235  MET235      0.0595
    103  SD        26.4390   37.7630   14.1290 S.3   235  MET235     -0.1393
    104  CE        26.4180   38.9740   15.4520 C.3   235  MET235      0.0692
    105  N         34.4380   38.9450   19.4480 N.3   244  ASP244     -0.1239
    106  CA        33.4980   39.0900   20.5500 C.3   244  ASP244      0.1674
    107  C         32.7780   37.7720   20.7530 C.2   244  ASP244      0.2266
    108  O         33.1450   36.7580   20.1650 O.2   244  ASP244     -0.2867
    109  CB        32.4910   40.2210   20.2880 C.3   244  ASP244      0.1410
    110  CG        31.6590   40.0070   19.0190 C.2   244  ASP244      0.3668
    111  OD1       31.2350   38.8700   18.7320 O.co2 244  ASP244     -0.2456
    112  OD2       31.4060   40.9980   18.3070 O.co2 244  ASP244     -0.2456
    113  N         29.0740   37.7450   20.8810 N.3   246  VAL246     -0.1245
    114  CA        27.6550   38.0470   20.7660 C.3   246  VAL246      0.1561
    115  C         26.9030   36.8900   20.1170 C.2   246  VAL246      0.2260
    116  O         27.4340   36.2270   19.2280 O.2   246  VAL246     -0.2867
    117  CB        27.3860   39.4240   20.0900 C.3   246  VAL246      0.0252
    118  CG1       28.6740   40.1450   19.8020 C.3   246  VAL246      0.0019
    119  CG2       26.4910   39.2890   18.8500 C.3   246  VAL246      0.0019
    120  N         21.4520   39.8120   17.6930 N.3   249  VAL249     -0.1245
    121  CA        21.2350   41.2400   17.7760 C.3   249  VAL249      0.1561
    122  C         19.7420   41.4620   17.9120 C.2   249  VAL249      0.2260
    123  O         18.9480   40.8280   17.2140 O.2   249  VAL249     -0.2867
    124  CB        21.7660   41.9620   16.5100 C.3   249  VAL249      0.0252
    125  CG1       21.3930   43.4450   16.5180 C.3   249  VAL249      0.0019
    126  CG2       23.2710   41.7630   16.3720 C.3   249  VAL249      0.0019
@<TRIPOS>BOND
     1    24    23    2
     2    35    36    2
     3    35    34    1
     4    23    22    1
     5    33    34    1
     6    34    37    1
     7    44    45    1
     8    22    25    1
     9    22    21    1
    10    46    47    2
    11    46    45    1
    12    25    26    1
    13    53    54    2
    14    53    52    1
    15    51    52    1
    16    45    48    1
    17    37    38    1
    18    28    26   ar
    19    28    30   ar
    20    21    15   am
    21    52    55    1
    22    26    27   ar
    23    49    48    1
    24    16    15    2
    25    38    39    1
    26    55    56    1
    27    48    50    1
    28    15    14    1
    29    30    31   ar
    30    58    59    1
    31    58    57    1
    32    27    29   ar
    33    56    57    1
    34    39    40    1
    35    14    13    1
    36    14    17    1
    37    31    29   ar
    38    31    32    1
    39    40    41    2
    40    99   100    2
    41    99    98    1
    42   103   102    1
    43   103   104    1
    44    17    18    1
    45     4     3    2
    46    98    97    1
    47    98   101    1
    48     3     2    1
    49    41    42    1
    50    41    43    1
    51   102   101    1
    52    18    19    2
    53    18    20   am
    54     1     2    1
    55     2     5    1
    56   126   124    1
    57     8    10   ar
    58     8     6   ar
    59   124   125    1
    60   124   121    1
    61    68    70   ar
    62    68    66   ar
    63    10    11   ar
    64    70    69   ar
    65     5     6    1
    66   123   122    2
    67     6     7   ar
    68    66    65   ar
    69    11    12    1
    70    11     9   ar
    71   120   121    1
    72   121   122    1
    73    69    67   ar
    74     7     9   ar
    75   112   110   ar
    76    65    67   ar
    77    65    64    1
    78   111   110   ar
    79   119   117    1
    80   110   109    1
    81   116   115    2
    82   105   106    1
    83    64    61    1
    84   118   117    1
    85   117   114    1
    86   115   114    1
    87   108   107    2
    88    60    61    1
    89   109   106    1
    90   106   107    1
    91   114   113    1
    92    61    62    1
    93    72    71    1
    94    72    75    1
    95    72    73    1
    96    91    93   ar
    97    91    90   ar
    98    93    95   ar
    99    89    90    1
   100    89    86    1
   101    62    63    2
   102    90    92   ar
   103    84    82   ar
   104    73    74    2
   105    87    86    1
   106    87    88    2
   107    86    85    1
   108    95    96    1
   109    95    94   ar
   110    82    83   ar
   111    82    81    1
   112    92    94   ar
   113    81    80    1
   114    80    77    1
   115    77    76    1
   116    77    78    1
   117    78    79    2
