@<TRIPOS>MOLECULE
tmp/3kqrD00.pdb
 100 92 0 0 0
SMALL
GASTEIGER

@<TRIPOS>ATOM
      1  N         49.7820    7.9890   -3.5000 N.3    58  ASP58      -0.1225
      2  CA        49.3250    7.8850   -2.1020 C.3    58  ASP58       0.1805
      3  C         47.9800    7.1890   -2.0350 C.2    58  ASP58       0.2597
      4  O         47.1260    7.3590   -2.8920 O.2    58  ASP58      -0.2718
      5  CB        49.2110    9.2710   -1.4600 C.3    58  ASP58       0.1424
      6  CG        48.9370    9.1890    0.0380 C.2    58  ASP58       0.3668
      7  OD1       49.6200    8.3680    0.6980 O.co2  58  ASP58      -0.2456
      8  OD2       48.1150    9.9650    0.5570 O.co2  58  ASP58      -0.2456
      9  N         47.7830    6.4160   -0.9650 N.am   59  ASN59      -0.1974
     10  CA        46.4710    5.8200   -0.6860 C.3    59  ASN59       0.1688
     11  C         45.9820    4.9960   -1.8750 C.2    59  ASN59       0.2292
     12  O         44.8220    5.0610   -2.2730 O.2    59  ASN59      -0.2864
     13  CB        45.4380    6.8850   -0.2820 C.3    59  ASN59       0.1181
     14  CG        45.8460    7.6410    0.9360 C.2    59  ASN59       0.2629
     15  OD1       46.8240    7.2910    1.5810 O.2    59  ASN59      -0.2716
     16  ND2       45.1010    8.6950    1.2650 N.am   59  ASN59      -0.0877
     17  N         44.0360    1.6360    0.8080 N.3    62  LEU62      -0.1245
     18  CA        44.1510    1.9680    2.2140 C.3    62  LEU62       0.1561
     19  C         42.8840    1.5890    2.9440 C.2    62  LEU62       0.2260
     20  O         41.7920    1.9260    2.5230 O.2    62  LEU62      -0.2867
     21  CB        44.4370    3.4800    2.3690 C.3    62  LEU62       0.0270
     22  CG        44.2990    4.0570    3.7780 C.3    62  LEU62       0.0019
     23  CD1       45.3720    3.5290    4.7310 C.3    62  LEU62       0.0001
     24  CD2       44.3560    5.6100    3.7210 C.3    62  LEU62       0.0001
     25  N         41.1290    2.2150    6.4830 N.3    64  TYR64      -0.1241
     26  CA        41.2860    3.2910    7.4540 C.3    64  TYR64       0.1605
     27  C         40.0710    3.2860    8.3690 C.2    64  TYR64       0.2264
     28  O         38.9460    3.1600    7.8930 O.2    64  TYR64      -0.2867
     29  CB        41.4010    4.6270    6.7000 C.3    64  TYR64       0.0534
     30  CG        41.8950    5.7730    7.5320 C.ar   64  TYR64      -0.0201
     31  CD1       43.2360    5.8850    7.8450 C.ar   64  TYR64      -0.0009
     32  CD2       41.0210    6.7910    7.9420 C.ar   64  TYR64      -0.0009
     33  CE1       43.7130    6.9630    8.6070 C.ar   64  TYR64       0.0417
     34  CE2       41.4980    7.8720    8.7020 C.ar   64  TYR64       0.0417
     35  CZ        42.8530    7.9310    9.0060 C.ar   64  TYR64       0.1957
     36  OH        43.3710    9.0090    9.7490 O.3    64  TYR64      -0.2866
     37  N         37.8620    5.4310   10.5990 N.3    66  GLU66      -0.1245
     38  CA        37.5470    6.8260   10.8020 C.3    66  GLU66       0.1567
     39  C         37.2620    7.1820   12.2730 C.2    66  GLU66       0.2260
     40  O         37.7110    8.1970   12.8130 O.2    66  GLU66      -0.2867
     41  CB        36.2910    7.1520    9.9830 C.3    66  GLU66       0.0388
     42  CG        36.4120    6.9000    8.4680 C.3    66  GLU66       0.1160
     43  CD        37.4040    7.8170    7.7230 C.2    66  GLU66       0.3649
     44  OE1       37.8850    8.8040    8.3600 O.co2  66  GLU66      -0.2457
     45  OE2       37.7040    7.5680    6.5020 O.co2  66  GLU66      -0.2457
     46  N         40.1270    3.1460    0.6030 N.3    74  TYR74      -0.1241
     47  CA        40.5960    3.9940   -0.4730 C.3    74  TYR74       0.1605
     48  C         41.1570    3.0960   -1.5690 C.2    74  TYR74       0.2264
     49  O         41.8810    2.1370   -1.3020 O.2    74  TYR74      -0.2867
     50  CB        41.7210    4.9160   -0.0310 C.3    74  TYR74       0.0534
     51  CG        41.3350    6.0020    0.8930 C.ar   74  TYR74      -0.0201
     52  CD1       40.9700    5.7560    2.2050 C.ar   74  TYR74      -0.0009
     53  CD2       41.3940    7.3280    0.4630 C.ar   74  TYR74      -0.0009
     54  CE1       40.6440    6.7840    3.0660 C.ar   74  TYR74       0.0417
     55  CE2       41.1030    8.3490    1.3120 C.ar   74  TYR74       0.0417
     56  CZ        40.7090    8.0880    2.5960 C.ar   74  TYR74       0.1957
     57  OH        40.4240    9.1310    3.4500 O.3    74  TYR74      -0.2866
     58  N         37.7150    7.2820   -2.0550 N.3    79  LYS79      -0.1245
     59  CA        37.2840    6.5370   -0.8760 C.3    79  LYS79       0.1561
     60  C         35.7900    6.2480   -0.8390 C.2    79  LYS79       0.2260
     61  O         34.9550    6.9680   -1.4350 O.2    79  LYS79      -0.2867
     62  CB        37.6770    7.2570    0.4100 C.3    79  LYS79       0.0271
     63  CG        36.7040    8.3030    0.8450 C.3    79  LYS79       0.0035
     64  CD        37.2450    9.1720    1.9560 C.3    79  LYS79       0.0206
     65  CE        37.2640    8.4660    3.2810 C.3    79  LYS79       0.1093
     66  NZ        37.6360    9.4140    4.3770 N.3    79  LYS79      -0.1314
     67  N         50.3710    5.0410    8.6590 N.3   136  GLU136     -0.1245
     68  CA        49.7970    5.4130    7.3850 C.3   136  GLU136      0.1567
     69  C         50.8760    6.0910    6.5360 C.2   136  GLU136      0.2260
     70  O         51.5370    7.0530    7.0120 O.2   136  GLU136     -0.2867
     71  CB        48.6600    6.4020    7.6670 C.3   136  GLU136      0.0388
     72  CG        47.5670    6.4810    6.6070 C.3   136  GLU136      0.1160
     73  CD        47.9820    7.2000    5.3400 C.2   136  GLU136      0.3649
     74  OE1       48.5270    8.3220    5.4710 O.co2 136  GLU136     -0.2457
     75  OE2       47.7490    6.7050    4.2180 O.co2 136  GLU136     -0.2457
     76  N         52.3850    8.4380    3.6100 N.3   138  ASP138     -0.1239
     77  CA        52.1120    9.5080    2.6270 C.3   138  ASP138      0.1674
     78  C         53.1580    9.5620    1.5150 C.2   138  ASP138      0.2266
     79  O         52.9670   10.2770    0.5360 O.2   138  ASP138     -0.2867
     80  CB        51.9900   10.8740    3.3060 C.3   138  ASP138      0.1410
     81  CG        50.7120   11.0380    4.0280 C.2   138  ASP138      0.3668
     82  OD1       49.7410   10.2890    3.7310 O.co2 138  ASP138     -0.2456
     83  OD2       50.6310   11.9330    4.9160 O.co2 138  ASP138     -0.2456
     84  N         52.5560    9.6030   10.1270 N.3   145  ASP145     -0.1239
     85  CA        51.8840   10.6180   10.9120 C.3   145  ASP145      0.1674
     86  C         51.4270    9.9760   12.2370 C.2   145  ASP145      0.2266
     87  O         50.5820    9.0700   12.2510 O.2   145  ASP145     -0.2867
     88  CB        50.6930   11.1390   10.1080 C.3   145  ASP145      0.1410
     89  CG        49.8550   12.1790   10.8540 C.2   145  ASP145      0.3668
     90  OD1       49.9930   12.3220   12.0900 O.co2 145  ASP145     -0.2456
     91  OD2       49.0070   12.8220   10.1750 O.co2 145  ASP145     -0.2456
     92  N         47.8460    9.0980   13.0480 N.3   148  GLN148     -0.1245
     93  CA        47.1870    8.0440   12.2730 C.3   148  GLN148      0.1566
     94  C         47.7750    6.6710   12.5890 C.2   148  GLN148      0.2260
     95  O         47.3880    5.6840   11.9470 O.2   148  GLN148     -0.2867
     96  CB        47.3660    8.2830   10.7690 C.3   148  GLN148      0.0367
     97  CG        46.7520    9.6100   10.3170 C.3   148  GLN148      0.0905
     98  CD        46.8830    9.8420    8.8250 C.2   148  GLN148      0.2608
     99  OE1       47.9890    9.8890    8.2980 O.2   148  GLN148     -0.2717
    100  NE2       45.7530    9.9330    8.1300 N.am  148  GLN148     -0.0878
@<TRIPOS>BOND
     1     1     2    1
     2     4     3    2
     3    12    11    2
     4     2     3    1
     5     2     5    1
     6    58    59    1
     7     3     9   am
     8    11    10    1
     9    48    49    2
    10    48    47    1
    11     5     6    1
    12    61    60    2
    13     9    10    1
    14    59    60    1
    15    59    62    1
    16    10    13    1
    17    47    50    1
    18    47    46    1
    19    13    14    1
    20    50    51    1
    21     6     8   ar
    22     6     7   ar
    23    62    63    1
    24    53    51   ar
    25    53    55   ar
    26    79    78    2
    27    17    18    1
    28    63    64    1
    29    51    52   ar
    30    14    16   am
    31    14    15    2
    32    55    56   ar
    33    78    77    1
    34    64    65    1
    35    52    54   ar
    36    18    21    1
    37    18    19    1
    38    21    22    1
    39    20    19    2
    40    56    54   ar
    41    56    57    1
    42    77    80    1
    43    77    76    1
    44    65    66    1
    45    80    81    1
    46    24    22    1
    47    82    81   ar
    48    22    23    1
    49    81    83   ar
    50    75    73   ar
    51    73    74   ar
    52    73    72    1
    53    25    26    1
    54    45    43   ar
    55    69    70    2
    56    69    68    1
    57    72    71    1
    58    29    26    1
    59    29    30    1
    60    68    71    1
    61    68    67    1
    62    26    27    1
    63    30    31   ar
    64    30    32   ar
    65    43    44   ar
    66    43    42    1
    67    31    33   ar
    68    28    27    2
    69    32    34   ar
    70   100    98   am
    71    99    98    2
    72    42    41    1
    73    33    35   ar
    74    34    35   ar
    75    98    97    1
    76    35    36    1
    77    41    38    1
    78    88    89    1
    79    88    85    1
    80    84    85    1
    81    91    89   ar
    82    97    96    1
    83    37    38    1
    84    96    93    1
    85    38    39    1
    86    89    90   ar
    87    85    86    1
    88    95    94    2
    89    86    87    2
    90    93    94    1
    91    93    92    1
    92    39    40    2
