@<TRIPOS>MOLECULE
tmp/3kqtA01.pdb
 126 117 0 0 0
SMALL
GASTEIGER

@<TRIPOS>ATOM
      1  N         37.3620   48.5570   15.9520 N.3    12  TYR12      -0.1241
      2  CA        35.9460   48.2910   16.1510 C.3    12  TYR12       0.1605
      3  C         35.2100   48.2130   14.8030 C.2    12  TYR12       0.2264
      4  O         34.4450   47.2760   14.5480 O.2    12  TYR12      -0.2867
      5  CB        35.3080   49.3470   17.0710 C.3    12  TYR12       0.0534
      6  CG        33.8070   49.1840   17.2090 C.ar   12  TYR12      -0.0201
      7  CD1       33.2630   48.1830   18.0110 C.ar   12  TYR12      -0.0009
      8  CD2       32.9310   50.0210   16.5230 C.ar   12  TYR12      -0.0009
      9  CE1       31.8850   48.0280   18.1240 C.ar   12  TYR12       0.0417
     10  CE2       31.5550   49.8780   16.6360 C.ar   12  TYR12       0.0417
     11  CZ        31.0400   48.8790   17.4300 C.ar   12  TYR12       0.1957
     12  OH        29.6790   48.7400   17.5340 O.3    12  TYR12      -0.2866
     13  N         33.3930   44.8050   13.0230 N.3    16  ASN16      -0.1225
     14  CA        31.9360   44.7270   12.9480 C.3    16  ASN16       0.1785
     15  C         31.3150   45.2080   11.6420 C.2    16  ASN16       0.2597
     16  O         30.1750   44.8680   11.3450 O.2    16  ASN16      -0.2718
     17  CB        31.2960   45.4710   14.1260 C.3    16  ASN16       0.1169
     18  CG        31.7030   44.8890   15.4670 C.2    16  ASN16       0.2627
     19  OD1       31.2330   43.8280   15.8580 O.2    16  ASN16      -0.2716
     20  ND2       32.5880   45.5800   16.1700 N.am   16  ASN16      -0.0877
     21  N         32.0590   45.9810   10.8600 N.am   17  TYR17      -0.1976
     22  CA        31.4850   46.5960    9.6690 C.3    17  TYR17       0.1639
     23  C         32.3170   46.3920    8.4140 C.2    17  TYR17       0.2290
     24  O         32.0720   47.0290    7.3900 O.2    17  TYR17      -0.2864
     25  CB        31.1880   48.0670    9.9380 C.3    17  TYR17       0.0560
     26  CG        30.3130   48.1960   11.1570 C.ar   17  TYR17      -0.0198
     27  CD1       30.8540   48.4950   12.4010 C.ar   17  TYR17      -0.0009
     28  CD2       28.9530   47.9450   11.0750 C.ar   17  TYR17      -0.0009
     29  CE1       30.0540   48.5840   13.5140 C.ar   17  TYR17       0.0417
     30  CE2       28.1510   48.0280   12.1780 C.ar   17  TYR17       0.0417
     31  CZ        28.7010   48.3460   13.3950 C.ar   17  TYR17       0.1957
     32  OH        27.8820   48.4260   14.4900 O.3    17  TYR17      -0.2866
     33  N         30.9170   40.4510    8.4770 N.3    21  ARG21      -0.1245
     34  CA        29.7470   41.1290    9.0510 C.3    21  ARG21       0.1563
     35  C         29.3410   42.3370    8.2460 C.2    21  ARG21       0.2260
     36  O         28.1850   42.7430    8.2830 O.2    21  ARG21      -0.2867
     37  CB        29.9950   41.5350   10.5110 C.3    21  ARG21       0.0307
     38  CG        29.9880   40.3540   11.4680 C.3    21  ARG21       0.0489
     39  CD        30.2530   40.7690   12.9020 C.3    21  ARG21       0.2205
     40  NE        30.2740   39.6070   13.7860 N.pl3  21  ARG21      -0.0865
     41  CZ        30.2580   39.6840   15.1130 C.cat  21  ARG21       0.5346
     42  NH1       30.2120   40.8680   15.7050 N.pl3  21  ARG21       0.1354
     43  NH2       30.2780   38.5820   15.8430 N.pl3  21  ARG21       0.1354
     44  N         23.6020   39.9480    8.7590 N.3    30  VAL30      -0.1245
     45  CA        23.1430   40.8520    9.8100 C.3    30  VAL30       0.1561
     46  C         23.0500   42.3110    9.3630 C.2    30  VAL30       0.2260
     47  O         22.1870   43.0580    9.8310 O.2    30  VAL30      -0.2867
     48  CB        24.0420   40.7700   11.0660 C.3    30  VAL30       0.0252
     49  CG1       25.4250   41.3800   10.7860 C.3    30  VAL30       0.0019
     50  CG2       23.3720   41.4670   12.2450 C.3    30  VAL30       0.0019
     51  N         19.6320   44.5980    9.8210 N.3    34  LYS34      -0.1245
     52  CA        19.5340   45.8510   10.5800 C.3    34  LYS34       0.1561
     53  C         18.9790   46.9950    9.7340 C.2    34  LYS34       0.2260
     54  O         18.0570   47.6930   10.1570 O.2    34  LYS34      -0.2867
     55  CB        20.8840   46.2500   11.1780 C.3    34  LYS34       0.0271
     56  CG        21.4460   45.2220   12.1600 C.3    34  LYS34       0.0035
     57  CD        22.4960   45.8270   13.0820 C.3    34  LYS34       0.0206
     58  CE        23.6710   46.4510   12.3240 C.3    34  LYS34       0.1093
     59  NZ        24.7100   45.4710   11.9120 N.3    34  LYS34      -0.1314
     60  N         23.7010   49.2800   19.8960 N.3   159  PHE159     -0.1241
     61  CA        24.8070   48.5850   20.5400 C.3   159  PHE159      0.1605
     62  C         25.4900   49.4160   21.6190 C.2   159  PHE159      0.2264
     63  O         26.6910   49.2810   21.8440 O.2   159  PHE159     -0.2867
     64  CB        25.8390   48.1390   19.5070 C.3   159  PHE159      0.0534
     65  CG        25.3030   47.1740   18.4990 C.ar  159  PHE159     -0.0203
     66  CD1       25.1930   47.5330   17.1690 C.ar  159  PHE159     -0.0042
     67  CD2       24.8980   45.9060   18.8830 C.ar  159  PHE159     -0.0042
     68  CE1       24.7010   46.6400   16.2370 C.ar  159  PHE159     -0.0003
     69  CE2       24.4020   45.0130   17.9580 C.ar  159  PHE159     -0.0003
     70  CZ        24.3050   45.3780   16.6320 C.ar  159  PHE159     -0.0000
     71  N         22.8340   44.0110   21.1290 N.3   193  ALA193     -0.1245
     72  CA        23.3040   42.6390   21.1000 C.3   193  ALA193      0.1562
     73  C         22.5460   41.8090   22.1310 C.2   193  ALA193      0.2260
     74  O         22.2660   42.2880   23.2370 O.2   193  ALA193     -0.2867
     75  CB        24.8020   42.5930   21.3640 C.3   193  ALA193      0.0290
     76  N         25.2810   38.8430   24.8360 N.3   196  GLU196     -0.1245
     77  CA        26.7000   39.1200   24.6380 C.3   196  GLU196      0.1567
     78  C         27.3140   39.4670   25.9900 C.2   196  GLU196      0.2260
     79  O         26.6530   40.1000   26.8230 O.2   196  GLU196     -0.2867
     80  CB        26.8960   40.2830   23.6520 C.3   196  GLU196      0.0388
     81  CG        28.3480   40.7260   23.4810 C.3   196  GLU196      0.1160
     82  CD        28.5160   41.9860   22.6060 C.2   196  GLU196      0.3649
     83  OE1       29.5160   42.0730   21.8570 O.co2 196  GLU196     -0.2457
     84  OE2       27.6600   42.8940   22.6700 O.co2 196  GLU196     -0.2457
     85  N         33.3450   42.0760   24.0220 N.3   199  TYR199     -0.1241
     86  CA        33.8350   42.2560   22.6630 C.3   199  TYR199      0.1605
     87  C         35.1520   43.0130   22.6740 C.2   199  TYR199      0.2264
     88  O         35.5350   43.6160   23.6850 O.2   199  TYR199     -0.2867
     89  CB        32.8170   42.9750   21.7850 C.3   199  TYR199      0.0534
     90  CG        32.6250   44.4320   22.1160 C.ar  199  TYR199     -0.0201
     91  CD1       33.1760   45.4170   21.3080 C.ar  199  TYR199     -0.0009
     92  CD2       31.8780   44.8310   23.2230 C.ar  199  TYR199     -0.0009
     93  CE1       32.9960   46.7620   21.5890 C.ar  199  TYR199      0.0417
     94  CE2       31.6900   46.1800   23.5120 C.ar  199  TYR199      0.0417
     95  CZ        32.2540   47.1370   22.6860 C.ar  199  TYR199      0.1957
     96  OH        32.0820   48.4720   22.9370 O.3   199  TYR199     -0.2866
     97  N         22.3400   35.0430   15.2530 N.3   235  MET235     -0.1245
     98  CA        23.6500   35.2120   14.6270 C.3   235  MET235      0.1570
     99  C         24.1300   33.8820   14.0300 C.2   235  MET235      0.2261
    100  O         24.2920   32.8970   14.7460 O.2   235  MET235     -0.2867
    101  CB        24.6320   35.7580   15.6820 C.3   235  MET235      0.0387
    102  CG        25.8500   36.5270   15.1670 C.3   235  MET235      0.0595
    103  SD        25.5500   38.1910   14.5190 S.3   235  MET235     -0.1393
    104  CE        23.8920   38.5070   15.0750 C.3   235  MET235      0.0692
    105  N         33.8560   38.8870   19.4700 N.3   244  ASP244     -0.1239
    106  CA        32.9310   38.9640   20.5900 C.3   244  ASP244      0.1674
    107  C         32.2250   37.6230   20.7550 C.2   244  ASP244      0.2266
    108  O         32.6300   36.6210   20.1530 O.2   244  ASP244     -0.2867
    109  CB        31.9210   40.0990   20.3970 C.3   244  ASP244      0.1410
    110  CG        31.0830   39.9360   19.1320 C.2   244  ASP244      0.3668
    111  OD1       30.7040   38.7930   18.8040 O.co2 244  ASP244     -0.2456
    112  OD2       30.7920   40.9580   18.4710 O.co2 244  ASP244     -0.2456
    113  N         28.5530   37.6450   20.7570 N.3   246  VAL246     -0.1245
    114  CA        27.1500   37.9980   20.5640 C.3   246  VAL246      0.1561
    115  C         26.3930   36.7780   20.0240 C.2   246  VAL246      0.2260
    116  O         26.9040   36.0450   19.1730 O.2   246  VAL246     -0.2867
    117  CB        26.9840   39.2430   19.6440 C.3   246  VAL246      0.0252
    118  CG1       27.7460   39.0590   18.3560 C.3   246  VAL246      0.0019
    119  CG2       25.5160   39.5130   19.3450 C.3   246  VAL246      0.0019
    120  N         21.0130   39.6770   17.5020 N.3   249  VAL249     -0.1245
    121  CA        20.8050   41.1160   17.5210 C.3   249  VAL249      0.1561
    122  C         19.3110   41.3780   17.6360 C.2   249  VAL249      0.2260
    123  O         18.5070   40.7080   16.9920 O.2   249  VAL249     -0.2867
    124  CB        21.3450   41.7950   16.2400 C.3   249  VAL249      0.0252
    125  CG1       21.0280   43.2640   16.2520 C.3   249  VAL249      0.0019
    126  CG2       22.8520   41.5720   16.0960 C.3   249  VAL249      0.0019
@<TRIPOS>BOND
     1    24    23    2
     2    35    36    2
     3    35    34    1
     4    23    22    1
     5    33    34    1
     6    44    45    1
     7    34    37    1
     8    46    45    1
     9    46    47    2
    10    22    25    1
    11    22    21    1
    12    53    54    2
    13    53    52    1
    14    45    48    1
    15    51    52    1
    16    25    26    1
    17    37    38    1
    18    52    55    1
    19    49    48    1
    20    21    15   am
    21    48    50    1
    22    28    26   ar
    23    28    30   ar
    24    26    27   ar
    25    55    56    1
    26    16    15    2
    27    38    39    1
    28    15    14    1
    29    59    58    1
    30    56    57    1
    31    30    31   ar
    32    58    57    1
    33    27    29   ar
    34    39    40    1
    35    14    13    1
    36    14    17    1
    37    31    29   ar
    38    31    32    1
    39    40    41    2
    40    99    98    1
    41    99   100    2
    42    17    18    1
    43   103   104    1
    44   103   102    1
    45     4     3    2
    46    98    97    1
    47    98   101    1
    48     3     2    1
    49    41    42    1
    50    41    43    1
    51   102   101    1
    52    18    19    2
    53    18    20   am
    54     1     2    1
    55   126   124    1
    56     2     5    1
    57    68    70   ar
    58    68    66   ar
    59   124   125    1
    60   124   121    1
    61     8    10   ar
    62     8     6   ar
    63    70    69   ar
    64    10    11   ar
    65   123   122    2
    66     5     6    1
    67    66    65   ar
    68     6     7   ar
    69    11    12    1
    70    11     9   ar
    71   120   121    1
    72   121   122    1
    73    69    67   ar
    74     7     9   ar
    75   118   117    1
    76   112   110   ar
    77    65    67   ar
    78    65    64    1
    79   111   110   ar
    80   110   109    1
    81   116   115    2
    82   119   117    1
    83   105   106    1
    84    64    61    1
    85   117   114    1
    86    60    61    1
    87   115   114    1
    88   108   107    2
    89   109   106    1
    90    61    62    1
    91   114   113    1
    92   106   107    1
    93    72    71    1
    94    72    75    1
    95    72    73    1
    96    91    93   ar
    97    91    90   ar
    98    93    95   ar
    99    62    63    2
   100    89    90    1
   101    89    86    1
   102    83    82   ar
   103    90    92   ar
   104    73    74    2
   105    82    84   ar
   106    82    81    1
   107    86    87    1
   108    86    85    1
   109    87    88    2
   110    95    96    1
   111    95    94   ar
   112    92    94   ar
   113    81    80    1
   114    80    77    1
   115    77    76    1
   116    77    78    1
   117    78    79    2
