@<TRIPOS>MOLECULE
tmp/3kqvB01.pdb
 131 121 0 0 0
SMALL
GASTEIGER

@<TRIPOS>ATOM
      1  N         36.3510   59.4980  -25.2600 N.3    22  TYR22      -0.1241
      2  CA        34.9500   59.1580  -25.4800 C.3    22  TYR22       0.1605
      3  C         34.2560   58.8270  -24.1590 C.2    22  TYR22       0.2264
      4  O         33.1380   59.2800  -23.9030 O.2    22  TYR22      -0.2867
      5  CB        34.8340   57.9790  -26.4480 C.3    22  TYR22       0.0534
      6  CG        33.4150   57.5130  -26.6550 C.ar   22  TYR22      -0.0201
      7  CD1       32.5840   58.1480  -27.5650 C.ar   22  TYR22      -0.0009
      8  CD2       32.9040   56.4420  -25.9320 C.ar   22  TYR22      -0.0009
      9  CE1       31.2790   57.7320  -27.7540 C.ar   22  TYR22       0.0417
     10  CE2       31.6020   56.0130  -26.1170 C.ar   22  TYR22       0.0417
     11  CZ        30.7920   56.6620  -27.0260 C.ar   22  TYR22       0.1957
     12  OH        29.4920   56.2420  -27.2150 O.3    22  TYR22      -0.2866
     13  N         31.2350   61.1300  -22.4480 N.3    26  ASN26      -0.1225
     14  CA        29.8730   60.6070  -22.4060 C.3    26  ASN26       0.1785
     15  C         29.4680   59.8820  -21.1180 C.2    26  ASN26       0.2597
     16  O         28.2780   59.7850  -20.8060 O.2    26  ASN26      -0.2718
     17  CB        29.6240   59.7030  -23.6150 C.3    26  ASN26       0.1169
     18  CG        29.5970   60.4730  -24.9210 C.2    26  ASN26       0.2627
     19  OD1       28.6030   61.1180  -25.2510 O.2    26  ASN26      -0.2716
     20  ND2       30.6890   60.4040  -25.6750 N.am   26  ASN26      -0.0877
     21  N         30.4460   59.3800  -20.3680 N.am   27  TYR27      -0.1976
     22  CA        30.1280   58.5390  -19.2130 C.3    27  TYR27       0.1639
     23  C         30.7080   59.0020  -17.8720 C.2    27  TYR27       0.2290
     24  O         30.4770   58.3730  -16.8390 O.2    27  TYR27      -0.2864
     25  CB        30.4440   57.0760  -19.5310 C.3    27  TYR27       0.0560
     26  CG        29.6120   56.6140  -20.7050 C.ar   27  TYR27      -0.0198
     27  CD1       30.1410   56.5750  -21.9910 C.ar   27  TYR27      -0.0009
     28  CD2       28.2720   56.2930  -20.5380 C.ar   27  TYR27      -0.0009
     29  CE1       29.3630   56.1840  -23.0730 C.ar   27  TYR27       0.0417
     30  CE2       27.4900   55.9020  -21.6100 C.ar   27  TYR27       0.0417
     31  CZ        28.0410   55.8480  -22.8720 C.ar   27  TYR27       0.1957
     32  OH        27.2550   55.4610  -23.9300 O.3    27  TYR27      -0.2866
     33  N         27.1700   64.3240  -18.0240 N.3    31  ARG31      -0.1245
     34  CA        26.3130   63.3170  -18.6530 C.3    31  ARG31       0.1563
     35  C         26.3320   61.9950  -17.8910 C.2    31  ARG31       0.2260
     36  O         25.3620   61.2370  -17.9250 O.2    31  ARG31      -0.2867
     37  CB        26.6950   63.1010  -20.1180 C.3    31  ARG31       0.0307
     38  CG        26.4100   64.3070  -20.9900 C.3    31  ARG31       0.0489
     39  CD        26.6080   64.0050  -22.4550 C.3    31  ARG31       0.2205
     40  NE        26.2080   65.1370  -23.2870 N.pl3  31  ARG31      -0.0865
     41  CZ        26.1620   65.1040  -24.6130 C.cat  31  ARG31       0.5346
     42  NH1       26.4930   63.9890  -25.2520 N.pl3  31  ARG31       0.1354
     43  NH2       25.7870   66.1810  -25.3010 N.pl3  31  ARG31       0.1354
     44  N         20.4660   61.9340  -18.8840 N.3    40  VAL40      -0.1245
     45  CA        20.4050   60.9630  -19.9710 C.3    40  VAL40       0.1561
     46  C         20.8400   59.5680  -19.5120 C.2    40  VAL40       0.2260
     47  O         20.3050   58.5630  -19.9710 O.2    40  VAL40      -0.2867
     48  CB        21.2230   61.4300  -21.2070 C.3    40  VAL40       0.0252
     49  CG1       22.7060   61.5210  -20.8770 C.3    40  VAL40       0.0019
     50  CG2       20.9910   60.4980  -22.3930 C.3    40  VAL40       0.0019
     51  N         18.5570   56.1600  -20.1060 N.3    44  LYS44      -0.1245
     52  CA        19.0280   54.9700  -20.8160 C.3    44  LYS44       0.1561
     53  C         18.9090   53.6950  -19.9730 C.2    44  LYS44       0.2260
     54  O         18.3640   52.6900  -20.4310 O.2    44  LYS44      -0.2867
     55  CB        20.4740   55.1580  -21.2740 C.3    44  LYS44       0.0271
     56  CG        20.6440   56.2490  -22.3160 C.3    44  LYS44       0.0035
     57  CD        21.9420   56.0850  -23.0870 C.3    44  LYS44       0.0206
     58  CE        23.1580   56.2960  -22.2050 C.3    44  LYS44       0.1093
     59  NZ        24.4190   56.3290  -23.0090 N.3    44  LYS44      -0.1314
     60  N         24.1840   53.5310  -29.9000 N.3   169  PHE169     -0.1241
     61  CA        24.9720   54.5910  -30.5200 C.3   169  PHE169      0.1605
     62  C         26.0020   54.0840  -31.5250 C.2   169  PHE169      0.2264
     63  O         27.0840   54.6550  -31.6520 O.2   169  PHE169     -0.2867
     64  CB        25.6360   55.4530  -29.4440 C.3   169  PHE169      0.0534
     65  CG        24.6600   56.0640  -28.4840 C.ar  169  PHE169     -0.0203
     66  CD1       24.3940   55.4610  -27.2690 C.ar  169  PHE169     -0.0042
     67  CD2       23.9870   57.2270  -28.8080 C.ar  169  PHE169     -0.0042
     68  CE1       23.4930   56.0160  -26.3850 C.ar  169  PHE169     -0.0003
     69  CE2       23.0780   57.7870  -27.9290 C.ar  169  PHE169     -0.0003
     70  CZ        22.8310   57.1800  -26.7140 C.ar  169  PHE169     -0.0000
     71  N         26.2520   56.3270  -35.9420 N.3   173  ALA173     -0.1245
     72  CA        27.5700   56.9240  -35.7300 C.3   173  ALA173      0.1562
     73  C         28.6200   56.4290  -36.7190 C.2   173  ALA173      0.2260
     74  O         29.7460   56.9300  -36.7350 O.2   173  ALA173     -0.2867
     75  CB        28.0420   56.6890  -34.2960 C.3   173  ALA173      0.0290
     76  N         21.4660   58.3320  -31.1070 N.3   203  ALA203     -0.1245
     77  CA        21.3760   59.7850  -31.1340 C.3   203  ALA203      0.1562
     78  C         20.3950   60.2730  -32.1980 C.2   203  ALA203      0.2260
     79  O         20.3490   59.7330  -33.3000 O.2   203  ALA203     -0.2867
     80  CB        22.7500   60.3760  -31.3930 C.3   203  ALA203      0.0290
     81  N         21.8380   64.1750  -34.8670 N.3   206  GLU206     -0.1245
     82  CA        23.2320   64.4760  -34.5810 C.3   206  GLU206      0.1567
     83  C         24.0610   64.3920  -35.8500 C.2   206  GLU206      0.2260
     84  O         23.8790   63.4790  -36.6530 O.2   206  GLU206     -0.2867
     85  CB        23.7850   63.5010  -33.5440 C.3   206  GLU206      0.0388
     86  CG        25.2710   63.6540  -33.2890 C.3   206  GLU206      0.1160
     87  CD        25.7510   62.8080  -32.1200 C.2   206  GLU206      0.3649
     88  OE1       25.4720   63.1760  -30.9590 O.co2 206  GLU206     -0.2457
     89  OE2       26.4190   61.7830  -32.3660 O.co2 206  GLU206     -0.2457
     90  N         30.3200   64.1930  -33.3510 N.3   209  TYR209     -0.1241
     91  CA        30.7390   64.0990  -31.9560 C.3   209  TYR209      0.1605
     92  C         32.2550   63.9690  -31.8500 C.2   209  TYR209      0.2264
     93  O         32.9300   63.6400  -32.8250 O.2   209  TYR209     -0.2867
     94  CB        30.0210   62.9610  -31.2150 C.3   209  TYR209      0.0534
     95  CG        30.5150   61.5590  -31.5120 C.ar  209  TYR209     -0.0201
     96  CD1       31.3440   60.8930  -30.6150 C.ar  209  TYR209     -0.0009
     97  CD2       30.1290   60.8880  -32.6730 C.ar  209  TYR209     -0.0009
     98  CE1       31.7930   59.6070  -30.8690 C.ar  209  TYR209      0.0417
     99  CE2       30.5710   59.5960  -32.9380 C.ar  209  TYR209      0.0417
    100  CZ        31.4020   58.9600  -32.0240 C.ar  209  TYR209      0.1957
    101  OH        31.8530   57.6790  -32.2630 O.3   209  TYR209     -0.2866
    102  N         17.5390   66.1610  -25.1870 N.3   245  MET245     -0.1245
    103  CA        18.7410   66.5290  -24.4450 C.3   245  MET245      0.1570
    104  C         18.6150   67.9100  -23.8090 C.2   245  MET245      0.2261
    105  O         18.4500   68.9060  -24.5070 O.2   245  MET245     -0.2867
    106  CB        19.9740   66.4810  -25.3510 C.3   245  MET245      0.0387
    107  CG        21.2990   66.5470  -24.5930 C.3   245  MET245      0.0595
    108  SD        21.6970   65.0220  -23.7150 S.3   245  MET245     -0.1393
    109  CE        21.8010   63.8590  -25.0650 C.3   245  MET245      0.0692
    110  N         29.2850   67.1810  -28.8380 N.3   254  ASP254     -0.1239
    111  CA        28.4820   66.7530  -29.9830 C.3   254  ASP254      0.1674
    112  C         27.3770   67.7740  -30.2460 C.2   254  ASP254      0.2266
    113  O         27.2510   68.7540  -29.5160 O.2   254  ASP254     -0.2867
    114  CB        27.8870   65.3540  -29.7440 C.3   254  ASP254      0.1410
    115  CG        27.0270   65.2840  -28.4840 C.2   254  ASP254      0.3668
    116  OD1       27.0190   64.2220  -27.8220 O.co2 254  ASP254     -0.2456
    117  OD2       26.3600   66.2890  -28.1510 O.co2 254  ASP254     -0.2456
    118  N         24.1320   66.5630  -30.5580 N.3   256  VAL256     -0.1245
    119  CA        22.9820   65.6860  -30.3680 C.3   256  VAL256      0.1561
    120  C         21.7740   66.4780  -29.8670 C.2   256  VAL256      0.2260
    121  O         21.8940   67.3160  -28.9710 O.2   256  VAL256     -0.2867
    122  CB        23.3050   64.5340  -29.3770 C.3   256  VAL256      0.0252
    123  CG1       23.4980   65.0720  -27.9670 C.3   256  VAL256      0.0019
    124  CG2       22.2050   63.4840  -29.3930 C.3   256  VAL256      0.0019
    125  N         17.8390   61.5170  -27.7380 N.3   259  VAL259     -0.1245
    126  CA        18.2020   60.1100  -27.7670 C.3   259  VAL259      0.1561
    127  C         16.9380   59.2880  -27.9600 C.2   259  VAL259      0.2260
    128  O         15.8930   59.6060  -27.3900 O.2   259  VAL259     -0.2867
    129  CB        18.8820   59.6920  -26.4490 C.3   259  VAL259      0.0252
    130  CG1       19.1440   58.1880  -26.4240 C.3   259  VAL259      0.0019
    131  CG2       20.1670   60.4830  -26.2460 C.3   259  VAL259      0.0019
@<TRIPOS>BOND
     1    74    73    2
     2    73    72    1
     3    84    83    2
     4    71    72    1
     5    83    82    1
     6    72    75    1
     7    81    82    1
     8    82    85    1
     9    85    86    1
    10    90    91    1
    11    79    78    2
    12    86    87    1
    13    99    97   ar
    14    99   100   ar
    15    93    92    2
    16    97    95   ar
    17    89    87   ar
    18   101   100    1
    19    78    77    1
    20    87    88   ar
    21   100    98   ar
    22    91    92    1
    23    91    94    1
    24    63    62    2
    25    62    61    1
    26    95    94    1
    27    95    96   ar
    28    80    77    1
    29    77    76    1
    30    98    96   ar
    31   118   119    1
    32    61    60    1
    33    61    64    1
    34   119   120    1
    35   119   122    1
    36   112   111    1
    37   112   113    2
    38   111   114    1
    39   111   110    1
    40   120   121    2
    41   114   115    1
    42    64    65    1
    43   124   122    1
    44   122   123    1
    45    67    65   ar
    46    67    69   ar
    47    65    66   ar
    48   115   117   ar
    49   115   116   ar
    50   127   126    1
    51   127   128    2
    52    69    70   ar
    53   126   125    1
    54   126   129    1
    55     9     7   ar
    56     9    11   ar
    57     7     6   ar
    58    66    68   ar
    59    12    11    1
    60    11    10   ar
    61    70    68   ar
    62     6     5    1
    63     6     8   ar
    64   129   130    1
    65   129   131    1
    66     5     2    1
    67    10     8   ar
    68    20    18   am
    69     2     1    1
    70     2     3    1
    71   106   107    1
    72   106   103    1
    73    43    41    1
    74    42    41    1
    75    19    18    2
    76   102   103    1
    77   109   108    1
    78    18    17    1
    79    41    40    2
    80   107   108    1
    81   105   104    2
    82   103   104    1
    83     3     4    2
    84    32    31    1
    85    17    14    1
    86    40    39    1
    87    57    56    1
    88    57    58    1
    89    29    31   ar
    90    29    27   ar
    91    59    58    1
    92    31    30   ar
    93    39    38    1
    94    13    14    1
    95    14    15    1
    96    50    48    1
    97    56    55    1
    98    27    26   ar
    99    30    28   ar
   100    55    52    1
   101    48    49    1
   102    48    45    1
   103    15    16    2
   104    15    21   am
   105    38    37    1
   106    52    51    1
   107    52    53    1
   108    26    28   ar
   109    26    25    1
   110    54    53    2
   111    21    22    1
   112    37    34    1
   113    47    46    2
   114    45    46    1
   115    45    44    1
   116    25    22    1
   117    22    23    1
   118    34    33    1
   119    34    35    1
   120    36    35    2
   121    23    24    2
