@<TRIPOS>MOLECULE
tmp/3kqwB01.pdb
 131 121 0 0 0
SMALL
GASTEIGER

@<TRIPOS>ATOM
      1  N         36.3970   59.2150  -25.3350 N.3    22  TYR22      -0.1241
      2  CA        34.9860   58.8950  -25.5540 C.3    22  TYR22       0.1605
      3  C         34.2530   58.6250  -24.2310 C.2    22  TYR22       0.2264
      4  O         33.1560   59.1430  -24.0020 O.2    22  TYR22      -0.2867
      5  CB        34.8620   57.6910  -26.4830 C.3    22  TYR22       0.0534
      6  CG        33.4470   57.2650  -26.7410 C.ar   22  TYR22      -0.0201
      7  CD1       32.6350   57.9770  -27.6180 C.ar   22  TYR22      -0.0009
      8  CD2       32.9150   56.1430  -26.1140 C.ar   22  TYR22      -0.0009
      9  CE1       31.3210   57.5830  -27.8590 C.ar   22  TYR22       0.0417
     10  CE2       31.6010   55.7370  -26.3470 C.ar   22  TYR22       0.0417
     11  CZ        30.8110   56.4630  -27.2200 C.ar   22  TYR22       0.1957
     12  OH        29.5150   56.0640  -27.4590 O.3    22  TYR22      -0.2866
     13  N         31.0990   61.0400  -22.6690 N.3    26  ASN26      -0.1225
     14  CA        29.7350   60.5050  -22.6780 C.3    26  ASN26       0.1785
     15  C         29.3120   59.7490  -21.4130 C.2    26  ASN26       0.2597
     16  O         28.1160   59.5780  -21.1560 O.2    26  ASN26      -0.2718
     17  CB        29.5580   59.5780  -23.8790 C.3    26  ASN26       0.1169
     18  CG        29.7180   60.3030  -25.1980 C.2    26  ASN26       0.2627
     19  OD1       28.9040   61.1510  -25.5450 O.2    26  ASN26      -0.2716
     20  ND2       30.7680   59.9720  -25.9380 N.am   26  ASN26      -0.0877
     21  N         30.2840   59.2980  -20.6230 N.am   27  TYR27      -0.1976
     22  CA        29.9750   58.4160  -19.5010 C.3    27  TYR27       0.1639
     23  C         30.4830   58.8860  -18.1360 C.2    27  TYR27       0.2290
     24  O         30.0020   58.4230  -17.1090 O.2    27  TYR27      -0.2864
     25  CB        30.4030   56.9880  -19.8300 C.3    27  TYR27       0.0560
     26  CG        29.5970   56.4610  -20.9830 C.ar   27  TYR27      -0.0198
     27  CD1       30.1230   56.4180  -22.2790 C.ar   27  TYR27      -0.0009
     28  CD2       28.2800   56.0730  -20.7940 C.ar   27  TYR27      -0.0009
     29  CE1       29.3580   55.9560  -23.3480 C.ar   27  TYR27       0.0417
     30  CE2       27.5080   55.6100  -21.8520 C.ar   27  TYR27       0.0417
     31  CZ        28.0490   55.5520  -23.1250 C.ar   27  TYR27       0.1957
     32  OH        27.2680   55.0810  -24.1520 O.3    27  TYR27      -0.2866
     33  N         27.2250   63.9340  -18.1320 N.3    31  ARG31      -0.1245
     34  CA        26.3890   62.9300  -18.7930 C.3    31  ARG31       0.1563
     35  C         26.3480   61.6580  -17.9660 C.2    31  ARG31       0.2260
     36  O         25.3630   60.9120  -17.9920 O.2    31  ARG31      -0.2867
     37  CB        26.8780   62.6400  -20.2220 C.3    31  ARG31       0.0307
     38  CG        26.5250   63.7500  -21.2250 C.3    31  ARG31       0.0489
     39  CD        27.0230   63.5080  -22.6630 C.3    31  ARG31       0.2205
     40  NE        26.5520   64.5630  -23.5670 N.pl3  31  ARG31      -0.0865
     41  CZ        26.6590   64.5400  -24.9020 C.cat  31  ARG31       0.5346
     42  NH1       27.2200   63.5040  -25.5220 N.pl3  31  ARG31       0.1354
     43  NH2       26.2050   65.5630  -25.6300 N.pl3  31  ARG31       0.1354
     44  N         20.3780   61.7600  -19.0800 N.3    40  VAL40      -0.1245
     45  CA        20.4120   60.7480  -20.1230 C.3    40  VAL40       0.1561
     46  C         20.8770   59.3940  -19.6000 C.2    40  VAL40       0.2260
     47  O         20.3910   58.3530  -20.0510 O.2    40  VAL40      -0.2867
     48  CB        21.2750   61.1830  -21.3510 C.3    40  VAL40       0.0252
     49  CG1       22.7690   61.2050  -21.0020 C.3    40  VAL40       0.0019
     50  CG2       21.0370   60.2440  -22.5150 C.3    40  VAL40       0.0019
     51  N         18.6050   55.9820  -20.1580 N.3    44  LYS44      -0.1245
     52  CA        19.1090   54.7960  -20.8680 C.3    44  LYS44       0.1561
     53  C         18.9010   53.5100  -20.0710 C.2    44  LYS44       0.2260
     54  O         18.3030   52.5520  -20.5690 O.2    44  LYS44      -0.2867
     55  CB        20.5850   54.9460  -21.2260 C.3    44  LYS44       0.0271
     56  CG        20.8700   55.9930  -22.2890 C.3    44  LYS44       0.0035
     57  CD        22.2050   55.7470  -22.9860 C.3    44  LYS44       0.0206
     58  CE        23.3500   56.4220  -22.2630 C.3    44  LYS44       0.1093
     59  NZ        24.5780   56.5110  -23.1220 N.3    44  LYS44      -0.1314
     60  N         24.3510   53.3830  -30.0590 N.3   169  PHE169     -0.1241
     61  CA        25.1740   54.4290  -30.6540 C.3   169  PHE169      0.1605
     62  C         26.2080   53.8850  -31.6380 C.2   169  PHE169      0.2264
     63  O         27.3320   54.3890  -31.7390 O.2   169  PHE169     -0.2867
     64  CB        25.8370   55.2300  -29.5410 C.3   169  PHE169      0.0534
     65  CG        24.8570   55.8050  -28.5860 C.ar  169  PHE169     -0.0203
     66  CD1       24.6220   55.1980  -27.3700 C.ar  169  PHE169     -0.0042
     67  CD2       24.1320   56.9310  -28.9190 C.ar  169  PHE169     -0.0042
     68  CE1       23.6940   55.7190  -26.4910 C.ar  169  PHE169     -0.0003
     69  CE2       23.2050   57.4560  -28.0470 C.ar  169  PHE169     -0.0003
     70  CZ        22.9840   56.8430  -26.8260 C.ar  169  PHE169     -0.0000
     71  N         26.4330   56.1160  -36.0180 N.3   173  ALA173     -0.1245
     72  CA        27.7740   56.6800  -35.8320 C.3   173  ALA173      0.1562
     73  C         28.7970   56.1790  -36.8430 C.2   173  ALA173      0.2260
     74  O         29.8870   56.7500  -36.9510 O.2   173  ALA173     -0.2867
     75  CB        28.2910   56.4440  -34.4200 C.3   173  ALA173      0.0290
     76  N         21.6860   58.1380  -31.2670 N.3   203  ALA203     -0.1245
     77  CA        21.5920   59.5870  -31.3210 C.3   203  ALA203      0.1562
     78  C         20.6410   60.0670  -32.4160 C.2   203  ALA203      0.2260
     79  O         20.6600   59.5490  -33.5280 O.2   203  ALA203     -0.2867
     80  CB        22.9690   60.1660  -31.5560 C.3   203  ALA203      0.0290
     81  N         22.0030   63.8340  -35.0620 N.3   206  GLU206     -0.1245
     82  CA        23.4190   64.0620  -34.8050 C.3   206  GLU206      0.1567
     83  C         24.2270   64.0130  -36.0890 C.2   206  GLU206      0.2260
     84  O         24.0350   63.1100  -36.9050 O.2   206  GLU206     -0.2867
     85  CB        23.9670   63.0000  -33.8540 C.3   206  GLU206      0.0388
     86  CG        25.1470   63.4850  -33.0540 C.3   206  GLU206      0.1160
     87  CD        25.8160   62.3860  -32.2730 C.2   206  GLU206      0.3649
     88  OE1       25.9010   62.5020  -31.0280 O.co2 206  GLU206     -0.2457
     89  OE2       26.2560   61.4100  -32.9140 O.co2 206  GLU206     -0.2457
     90  N         30.5150   64.0080  -33.5250 N.3   209  TYR209     -0.1241
     91  CA        30.9070   63.9190  -32.1220 C.3   209  TYR209      0.1605
     92  C         32.4210   63.7430  -32.0230 C.2   209  TYR209      0.2264
     93  O         33.0710   63.2760  -32.9620 O.2   209  TYR209     -0.2867
     94  CB        30.1700   62.7820  -31.3960 C.3   209  TYR209      0.0534
     95  CG        30.6810   61.3900  -31.7120 C.ar  209  TYR209     -0.0201
     96  CD1       31.5360   60.7220  -30.8330 C.ar  209  TYR209     -0.0009
     97  CD2       30.3010   60.7310  -32.8850 C.ar  209  TYR209     -0.0009
     98  CE1       32.0040   59.4320  -31.1100 C.ar  209  TYR209      0.0417
     99  CE2       30.7650   59.4400  -33.1800 C.ar  209  TYR209      0.0417
    100  CZ        31.6160   58.7960  -32.2860 C.ar  209  TYR209      0.1957
    101  OH        32.0740   57.5230  -32.5730 O.3   209  TYR209     -0.2866
    102  N         17.6350   66.0210  -25.5040 N.3   245  MET245     -0.1245
    103  CA        18.8220   66.4380  -24.7670 C.3   245  MET245      0.1570
    104  C         18.6210   67.7930  -24.1000 C.2   245  MET245      0.2261
    105  O         18.3420   68.7780  -24.7720 O.2   245  MET245     -0.2867
    106  CB        20.0460   66.4660  -25.6830 C.3   245  MET245      0.0387
    107  CG        21.3710   66.3290  -24.9470 C.3   245  MET245      0.0595
    108  SD        21.5390   64.7500  -24.0780 S.3   245  MET245     -0.1393
    109  CE        20.9390   63.6050  -25.3170 C.3   245  MET245      0.0692
    110  N         29.4160   66.9010  -29.1160 N.3   254  ASP254     -0.1239
    111  CA        28.6570   66.5280  -30.3080 C.3   254  ASP254      0.1674
    112  C         27.5700   67.5600  -30.5710 C.2   254  ASP254      0.2266
    113  O         27.4880   68.5740  -29.8730 O.2   254  ASP254     -0.2867
    114  CB        28.0470   65.1360  -30.1380 C.3   254  ASP254      0.1410
    115  CG        27.3540   64.9730  -28.8080 C.2   254  ASP254      0.3668
    116  OD1       27.5430   63.9170  -28.1560 O.co2 254  ASP254     -0.2456
    117  OD2       26.6390   65.9210  -28.4070 O.co2 254  ASP254     -0.2456
    118  N         24.2890   66.3830  -30.7990 N.3   256  VAL256     -0.1245
    119  CA        23.1460   65.4930  -30.6260 C.3   256  VAL256      0.1561
    120  C         21.9460   66.2750  -30.0780 C.2   256  VAL256      0.2260
    121  O         22.0700   67.0330  -29.1170 O.2   256  VAL256     -0.2867
    122  CB        23.5040   64.2680  -29.7200 C.3   256  VAL256      0.0252
    123  CG1       24.0590   64.7240  -28.4070 C.3   256  VAL256      0.0019
    124  CG2       22.3000   63.3740  -29.4780 C.3   256  VAL256      0.0019
    125  N         18.0400   61.3680  -28.0010 N.3   259  VAL259     -0.1245
    126  CA        18.3870   59.9490  -28.0590 C.3   259  VAL259      0.1561
    127  C         17.1230   59.1110  -28.2490 C.2   259  VAL259      0.2260
    128  O         16.0730   59.4170  -27.6790 O.2   259  VAL259     -0.2867
    129  CB        19.1030   59.4950  -26.7550 C.3   259  VAL259      0.0252
    130  CG1       19.3770   58.0000  -26.7750 C.3   259  VAL259      0.0019
    131  CG2       20.3840   60.2830  -26.5390 C.3   259  VAL259      0.0019
@<TRIPOS>BOND
     1    74    73    2
     2    84    83    2
     3    73    72    1
     4    83    82    1
     5    71    72    1
     6    72    75    1
     7    81    82    1
     8    82    85    1
     9    85    86    1
    10    79    78    2
    11    90    91    1
    12    99    97   ar
    13    99   100   ar
    14    86    87    1
    15    93    92    2
    16    89    87   ar
    17    97    95   ar
    18   101   100    1
    19    78    77    1
    20   100    98   ar
    21    87    88   ar
    22    91    92    1
    23    91    94    1
    24    63    62    2
    25    95    94    1
    26    95    96   ar
    27    62    61    1
    28    80    77    1
    29    77    76    1
    30    98    96   ar
    31   118   119    1
    32    61    60    1
    33    61    64    1
    34   119   120    1
    35   119   122    1
    36   112   111    1
    37   112   113    2
    38   111   114    1
    39   111   110    1
    40   114   115    1
    41   120   121    2
    42   122   124    1
    43   122   123    1
    44    64    65    1
    45    67    65   ar
    46    67    69   ar
    47   115   117   ar
    48   115   116   ar
    49    65    66   ar
    50   127   126    1
    51   127   128    2
    52   126   125    1
    53   126   129    1
    54    69    70   ar
    55     9     7   ar
    56     9    11   ar
    57     7     6   ar
    58    12    11    1
    59    66    68   ar
    60    11    10   ar
    61    70    68   ar
    62   130   129    1
    63   129   131    1
    64     6     5    1
    65     6     8   ar
    66     5     2    1
    67    10     8   ar
    68    20    18   am
    69   106   107    1
    70   106   103    1
    71    43    41    1
    72     2     1    1
    73     2     3    1
    74    19    18    2
    75    42    41    1
    76   102   103    1
    77   109   108    1
    78    18    17    1
    79   107   108    1
    80    41    40    2
    81   105   104    2
    82   103   104    1
    83     3     4    2
    84    32    31    1
    85    17    14    1
    86    40    39    1
    87    29    31   ar
    88    29    27   ar
    89    31    30   ar
    90    59    58    1
    91    57    56    1
    92    57    58    1
    93    14    13    1
    94    14    15    1
    95    39    38    1
    96    50    48    1
    97    56    55    1
    98    27    26   ar
    99    30    28   ar
   100    15    16    2
   101    15    21   am
   102    48    49    1
   103    48    45    1
   104    55    52    1
   105    38    37    1
   106    26    28   ar
   107    26    25    1
   108    52    51    1
   109    52    53    1
   110    21    22    1
   111    54    53    2
   112    37    34    1
   113    45    46    1
   114    45    44    1
   115    47    46    2
   116    25    22    1
   117    22    23    1
   118    34    33    1
   119    34    35    1
   120    23    24    2
   121    36    35    2
