@<TRIPOS>MOLECULE
tmp/3kqyB01.pdb
 126 117 0 0 0
SMALL
GASTEIGER

@<TRIPOS>ATOM
      1  N         36.5900   59.3450  -24.9010 N.3    22  TYR22      -0.1241
      2  CA        35.1880   59.0340  -25.1720 C.3    22  TYR22       0.1605
      3  C         34.4330   58.6620  -23.9000 C.2    22  TYR22       0.2264
      4  O         33.3140   59.1320  -23.6710 O.2    22  TYR22      -0.2867
      5  CB        35.0800   57.8940  -26.1870 C.3    22  TYR22       0.0534
      6  CG        33.6690   57.4150  -26.4260 C.ar   22  TYR22      -0.0201
      7  CD1       32.7720   58.1750  -27.1680 C.ar   22  TYR22      -0.0009
      8  CD2       33.2330   56.2010  -25.9150 C.ar   22  TYR22      -0.0009
      9  CE1       31.4750   57.7390  -27.3910 C.ar   22  TYR22       0.0417
     10  CE2       31.9400   55.7550  -26.1330 C.ar   22  TYR22       0.0417
     11  CZ        31.0670   56.5260  -26.8690 C.ar   22  TYR22       0.1957
     12  OH        29.7850   56.0740  -27.0830 O.3    22  TYR22      -0.2866
     13  N         31.3420   61.0170  -22.1970 N.3    26  ASN26      -0.1225
     14  CA        29.9760   60.5020  -22.1920 C.3    26  ASN26       0.1785
     15  C         29.5330   59.8110  -20.9040 C.2    26  ASN26       0.2597
     16  O         28.3470   59.8160  -20.5720 O.2    26  ASN26      -0.2718
     17  CB        29.7810   59.5540  -23.3750 C.3    26  ASN26       0.1169
     18  CG        29.8730   60.2670  -24.7050 C.2    26  ASN26       0.2627
     19  OD1       28.9070   60.8750  -25.1560 O.2    26  ASN26      -0.2716
     20  ND2       31.0400   60.2020  -25.3380 N.am   26  ASN26      -0.0877
     21  N         30.4730   59.2180  -20.1770 N.am   27  TYR27      -0.1976
     22  CA        30.1000   58.4050  -19.0240 C.3    27  TYR27       0.1639
     23  C         30.7020   58.8510  -17.6860 C.2    27  TYR27       0.2290
     24  O         30.4870   58.2160  -16.6550 O.2    27  TYR27      -0.2864
     25  CB        30.3410   56.9310  -19.3450 C.3    27  TYR27       0.0560
     26  CG        29.6110   56.5710  -20.6110 C.ar   27  TYR27      -0.0198
     27  CD1       30.2930   56.3780  -21.8060 C.ar   27  TYR27      -0.0009
     28  CD2       28.2250   56.5130  -20.6300 C.ar   27  TYR27      -0.0009
     29  CE1       29.6100   56.0860  -22.9750 C.ar   27  TYR27       0.0417
     30  CE2       27.5370   56.2240  -21.7880 C.ar   27  TYR27       0.0417
     31  CZ        28.2320   56.0110  -22.9590 C.ar   27  TYR27       0.1957
     32  OH        27.5370   55.7220  -24.1120 O.3    27  TYR27      -0.2866
     33  N         27.3920   64.0830  -17.7950 N.3    31  ARG31      -0.1245
     34  CA        26.5260   63.0900  -18.4310 C.3    31  ARG31       0.1563
     35  C         26.4710   61.7890  -17.6330 C.2    31  ARG31       0.2260
     36  O         25.4320   61.1290  -17.5690 O.2    31  ARG31      -0.2867
     37  CB        26.9560   62.8290  -19.8810 C.3    31  ARG31       0.0307
     38  CG        26.8110   64.0580  -20.7740 C.3    31  ARG31       0.0489
     39  CD        26.9100   63.7300  -22.2590 C.3    31  ARG31       0.2205
     40  NE        26.4500   64.8570  -23.0690 N.pl3  31  ARG31      -0.0865
     41  CZ        26.4120   64.8650  -24.3970 C.cat  31  ARG31       0.5346
     42  NH1       26.8090   63.8010  -25.0820 N.pl3  31  ARG31       0.1354
     43  NH2       25.9750   65.9420  -25.0400 N.pl3  31  ARG31       0.1354
     44  N         20.2840   61.7370  -18.5230 N.3    40  VAL40      -0.1245
     45  CA        20.2180   60.8050  -19.6370 C.3    40  VAL40       0.1561
     46  C         20.6510   59.4050  -19.2120 C.2    40  VAL40       0.2260
     47  O         20.0460   58.4120  -19.6200 O.2    40  VAL40      -0.2867
     48  CB        21.0590   61.3040  -20.8420 C.3    40  VAL40       0.0252
     49  CG1       22.5270   61.4240  -20.4620 C.3    40  VAL40       0.0019
     50  CG2       20.8770   60.3770  -22.0400 C.3    40  VAL40       0.0019
     51  N         18.3670   56.1290  -19.8050 N.3    44  LYS44      -0.1245
     52  CA        18.8160   54.9470  -20.5410 C.3    44  LYS44       0.1561
     53  C         18.6450   53.6670  -19.7230 C.2    44  LYS44       0.2260
     54  O         18.0270   52.7050  -20.1820 O.2    44  LYS44      -0.2867
     55  CB        20.2840   55.0820  -20.9560 C.3    44  LYS44       0.0271
     56  CG        20.5370   56.0670  -22.0920 C.3    44  LYS44       0.0035
     57  CD        21.9530   55.9000  -22.6490 C.3    44  LYS44       0.0206
     58  CE        22.9910   56.6130  -21.7870 C.3    44  LYS44       0.1093
     59  NZ        24.3770   56.1970  -22.1360 N.3    44  LYS44      -0.1314
     60  N         24.3350   53.6490  -29.7210 N.3   169  PHE169     -0.1241
     61  CA        25.1460   54.6790  -30.3660 C.3   169  PHE169      0.1605
     62  C         26.1640   54.1330  -31.3710 C.2   169  PHE169      0.2264
     63  O         27.2590   54.6800  -31.5060 O.2   169  PHE169     -0.2867
     64  CB        25.8540   55.5380  -29.3140 C.3   169  PHE169      0.0534
     65  CG        24.9250   56.1470  -28.3010 C.ar  169  PHE169     -0.0203
     66  CD1       24.8940   55.6750  -26.9930 C.ar  169  PHE169     -0.0042
     67  CD2       24.0850   57.1900  -28.6520 C.ar  169  PHE169     -0.0042
     68  CE1       24.0460   56.2320  -26.0560 C.ar  169  PHE169     -0.0003
     69  CE2       23.2260   57.7580  -27.7130 C.ar  169  PHE169     -0.0003
     70  CZ        23.2100   57.2760  -26.4110 C.ar  169  PHE169     -0.0000
     71  N         21.7670   58.4690  -30.7870 N.3   203  ALA203     -0.1245
     72  CA        21.6360   59.9210  -30.8680 C.3   203  ALA203      0.1562
     73  C         20.6270   60.3640  -31.9340 C.2   203  ALA203      0.2260
     74  O         20.5590   59.7840  -33.0150 O.2   203  ALA203     -0.2867
     75  CB        22.9930   60.5440  -31.1470 C.3   203  ALA203      0.0290
     76  N         22.0490   64.2820  -34.6540 N.3   206  GLU206     -0.1245
     77  CA        23.4480   64.5370  -34.3520 C.3   206  GLU206      0.1567
     78  C         24.2850   64.4680  -35.6210 C.2   206  GLU206      0.2260
     79  O         24.0680   63.5960  -36.4580 O.2   206  GLU206     -0.2867
     80  CB        23.9460   63.4960  -33.3540 C.3   206  GLU206      0.0388
     81  CG        25.4350   63.5110  -33.1210 C.3   206  GLU206      0.1160
     82  CD        25.8200   62.7120  -31.8920 C.2   206  GLU206      0.3649
     83  OE1       25.5520   63.1860  -30.7680 O.co2 206  GLU206     -0.2457
     84  OE2       26.3880   61.6130  -32.0520 O.co2 206  GLU206     -0.2457
     85  N         30.5680   64.2000  -33.0510 N.3   209  TYR209     -0.1241
     86  CA        30.9370   64.0590  -31.6510 C.3   209  TYR209      0.1605
     87  C         32.4460   63.9140  -31.5430 C.2   209  TYR209      0.2264
     88  O         33.1070   63.5390  -32.5140 O.2   209  TYR209     -0.2867
     89  CB        30.2120   62.8780  -30.9960 C.3   209  TYR209      0.0534
     90  CG        30.7320   61.5000  -31.3540 C.ar  209  TYR209     -0.0201
     91  CD1       31.6640   60.8550  -30.5460 C.ar  209  TYR209     -0.0009
     92  CD2       30.2650   60.8270  -32.4790 C.ar  209  TYR209     -0.0009
     93  CE1       32.1300   59.5870  -30.8590 C.ar  209  TYR209      0.0417
     94  CE2       30.7250   59.5600  -32.7980 C.ar  209  TYR209      0.0417
     95  CZ        31.6580   58.9450  -31.9840 C.ar  209  TYR209      0.1957
     96  OH        32.1200   57.6840  -32.2940 O.3   209  TYR209     -0.2866
     97  N         17.7110   66.0950  -24.8650 N.3   245  MET245     -0.1245
     98  CA        18.8930   66.5280  -24.1320 C.3   245  MET245      0.1570
     99  C         18.7470   67.9500  -23.5970 C.2   245  MET245      0.2261
    100  O         18.6150   68.8970  -24.3690 O.2   245  MET245     -0.2867
    101  CB        20.1330   66.4270  -25.0130 C.3   245  MET245      0.0387
    102  CG        21.4200   66.2570  -24.2350 C.3   245  MET245      0.0595
    103  SD        21.5690   64.5850  -23.5810 S.3   245  MET245     -0.1393
    104  CE        21.8000   63.6590  -25.0810 C.3   245  MET245      0.0692
    105  N         29.5180   66.9980  -28.3950 N.3   254  ASP254     -0.1239
    106  CA        28.7590   66.6550  -29.5920 C.3   254  ASP254      0.1674
    107  C         27.6680   67.6860  -29.8470 C.2   254  ASP254      0.2266
    108  O         27.6080   68.7170  -29.1770 O.2   254  ASP254     -0.2867
    109  CB        28.1650   65.2430  -29.4880 C.3   254  ASP254      0.1410
    110  CG        27.2990   65.0540  -28.2460 C.2   254  ASP254      0.3668
    111  OD1       27.2910   63.9330  -27.6920 O.co2 254  ASP254     -0.2456
    112  OD2       26.6230   66.0180  -27.8250 O.co2 254  ASP254     -0.2456
    113  N         24.3640   66.4690  -30.2150 N.3   256  VAL256     -0.1245
    114  CA        23.1690   65.6540  -30.0320 C.3   256  VAL256      0.1561
    115  C         22.0150   66.5120  -29.5270 C.2   256  VAL256      0.2260
    116  O         22.2150   67.4410  -28.7470 O.2   256  VAL256     -0.2867
    117  CB        23.4180   64.4770  -29.0520 C.3   256  VAL256      0.0252
    118  CG1       23.7360   65.0010  -27.6620 C.3   256  VAL256      0.0019
    119  CG2       22.2170   63.5560  -29.0130 C.3   256  VAL256      0.0019
    120  N         18.0210   61.5100  -27.4520 N.3   259  VAL259     -0.1245
    121  CA        18.4150   60.1100  -27.5290 C.3   259  VAL259      0.1561
    122  C         17.1500   59.3130  -27.7250 C.2   259  VAL259      0.2260
    123  O         16.1150   59.6560  -27.1560 O.2   259  VAL259     -0.2867
    124  CB        19.1050   59.6330  -26.2350 C.3   259  VAL259      0.0252
    125  CG1       19.5890   58.1880  -26.3800 C.3   259  VAL259      0.0019
    126  CG2       20.2560   60.5520  -25.8810 C.3   259  VAL259      0.0019
@<TRIPOS>BOND
     1    79    78    2
     2    78    77    1
     3    76    77    1
     4    77    80    1
     5    80    81    1
     6    81    82    1
     7    85    86    1
     8    74    73    2
     9    94    92   ar
    10    94    95   ar
    11    88    87    2
    12    92    90   ar
    13    96    95    1
    14    84    82   ar
    15    95    93   ar
    16    73    72    1
    17    82    83   ar
    18    86    87    1
    19    86    89    1
    20    63    62    2
    21    62    61    1
    22    90    89    1
    23    90    91   ar
    24    75    72    1
    25    72    71    1
    26    93    91   ar
    27    61    60    1
    28    61    64    1
    29   113   114    1
    30   114   115    1
    31   114   117    1
    32   107   106    1
    33   107   108    2
    34   106   109    1
    35   106   105    1
    36   115   116    2
    37   109   110    1
    38    64    65    1
    39   117   119    1
    40   117   118    1
    41    67    65   ar
    42    67    69   ar
    43    65    66   ar
    44   110   112   ar
    45   110   111   ar
    46   122   121    1
    47   122   123    2
    48    69    70   ar
    49   121   120    1
    50   121   124    1
    51     9     7   ar
    52     9    11   ar
    53     7     6   ar
    54    12    11    1
    55    66    68   ar
    56    11    10   ar
    57     6     5    1
    58     6     8   ar
    59    70    68   ar
    60   125   124    1
    61   124   126    1
    62     5     2    1
    63    10     8   ar
    64    20    18   am
    65     2     1    1
    66     2     3    1
    67    19    18    2
    68    42    41    1
    69   104   103    1
    70    43    41    1
    71   101   102    1
    72   101    98    1
    73    97    98    1
    74    18    17    1
    75    41    40    2
    76   100    99    2
    77   102   103    1
    78    98    99    1
    79    32    31    1
    80     3     4    2
    81    17    14    1
    82    40    39    1
    83    29    31   ar
    84    29    27   ar
    85    31    30   ar
    86    57    56    1
    87    57    58    1
    88    39    38    1
    89    13    14    1
    90    14    15    1
    91    59    58    1
    92    56    55    1
    93    50    48    1
    94    27    26   ar
    95    30    28   ar
    96    55    52    1
    97    15    16    2
    98    15    21   am
    99    48    49    1
   100    48    45    1
   101    38    37    1
   102    28    26   ar
   103    26    25    1
   104    52    51    1
   105    52    53    1
   106    54    53    2
   107    21    22    1
   108    37    34    1
   109    45    46    1
   110    45    44    1
   111    47    46    2
   112    25    22    1
   113    22    23    1
   114    34    33    1
   115    34    35    1
   116    23    24    2
   117    35    36    2
