@<TRIPOS>MOLECULE
tmp/3kqzG01.pdb
 128 119 0 0 0
SMALL
GASTEIGER

@<TRIPOS>ATOM
      1  N         86.0490   83.6610  144.6210 N.3   285  LYS285     -0.1245
      2  CA        86.4900   83.1030  143.3520 C.3   285  LYS285      0.1561
      3  C         85.3320   83.3790  142.3810 C.2   285  LYS285      0.2260
      4  O         84.1540   83.1240  142.7090 O.2   285  LYS285     -0.2867
      5  CB        86.7670   81.5930  143.4690 C.3   285  LYS285      0.0271
      6  CG        87.0940   80.9240  142.1240 C.3   285  LYS285      0.0035
      7  CD        87.3030   79.4260  142.2790 C.3   285  LYS285      0.0206
      8  CE        87.7580   78.8570  140.9640 C.3   285  LYS285      0.1093
      9  NZ        87.7380   77.3680  140.7810 N.3   285  LYS285     -0.1314
     10  N         84.1640   77.1930  134.2000 N.3   290  ASP290     -0.1239
     11  CA        85.4570   76.5550  134.3170 C.3   290  ASP290      0.1674
     12  C         85.5010   75.3210  133.4890 C.2   290  ASP290      0.2266
     13  O         85.0760   74.2420  133.9380 O.2   290  ASP290     -0.2867
     14  CB        85.8130   76.2320  135.7630 C.3   290  ASP290      0.1410
     15  CG        87.2800   75.8130  135.8980 C.2   290  ASP290      0.3668
     16  OD1       88.0490   75.9010  134.9010 O.co2 290  ASP290     -0.2456
     17  OD2       87.6910   75.4030  136.9870 O.co2 290  ASP290     -0.2456
     18  N         88.1540   69.6280  131.6350 N.3   297  LYS297     -0.1245
     19  CA        87.3830   68.7120  132.4600 C.3   297  LYS297      0.1561
     20  C         86.7000   67.6930  131.5610 C.2   297  LYS297      0.2260
     21  O         85.5950   67.9250  131.0980 O.2   297  LYS297     -0.2867
     22  CB        86.3720   69.4560  133.2840 C.3   297  LYS297      0.0271
     23  CG        86.9900   70.3490  134.3060 C.3   297  LYS297      0.0035
     24  CD        85.9280   71.2160  134.9250 C.3   297  LYS297      0.0206
     25  CE        86.5890   72.2960  135.7680 C.3   297  LYS297      0.1093
     26  NZ        87.0320   71.8560  137.1600 N.3   297  LYS297     -0.1314
     27  N         82.9890   62.2860  136.3110 N.3   301  GLY301     -0.1210
     28  CA        82.8360   62.8830  137.6250 C.3   301  GLY301      0.1956
     29  C         83.4080   64.2770  137.7160 C.2   301  GLY301      0.2613
     30  O         83.2900   64.9220  138.7750 O.2   301  GLY301     -0.2717
     31  N         84.0070   64.7560  136.6190 N.am  302  SER302     -0.1938
     32  CA        84.5120   66.1250  136.5660 C.3   302  SER302      0.2055
     33  C         83.3970   67.1880  136.4430 C.2   302  SER302      0.2642
     34  O         83.6190   68.3450  136.7680 O.2   302  SER302     -0.2714
     35  CB        85.6290   66.2840  135.5200 C.3   302  SER302      0.2130
     36  OG        85.1130   66.1240  134.2080 O.3   302  SER302     -0.2179
     37  N         82.1980   66.7730  136.0450 N.am  303  MET303     -0.1976
     38  CA        80.9550   67.6260  136.0920 C.3   303  MET303      0.1605
     39  C         81.1120   68.9880  135.4210 C.2   303  MET303      0.2287
     40  O         80.7780   70.0280  136.0120 O.2   303  MET303     -0.2864
     41  CB        80.4480   67.8510  137.5310 C.3   303  MET303      0.0413
     42  CG        80.3790   66.6060  138.3840 C.3   303  MET303      0.0598
     43  SD        79.7470   66.8800  140.0490 S.3   303  MET303     -0.1393
     44  CE        80.6140   68.4080  140.4940 C.3   303  MET303      0.0692
     45  N         79.8380   73.6360  135.8800 N.3   307  MET307     -0.1245
     46  CA        80.9170   74.5950  136.1130 C.3   307  MET307      0.1570
     47  C         80.5800   76.0550  136.0270 C.2   307  MET307      0.2261
     48  O         81.4620   76.8690  136.2410 O.2   307  MET307     -0.2867
     49  CB        82.1430   74.2450  135.2930 C.3   307  MET307      0.0387
     50  CG        82.7740   72.9410  135.8050 C.3   307  MET307      0.0595
     51  SD        83.2730   73.0660  137.5320 S.3   307  MET307     -0.1393
     52  CE        82.8190   71.4620  138.1620 C.3   307  MET307      0.0692
     53  N         79.0590   77.1160  138.2430 N.3   309  PHE309     -0.1227
     54  CA        78.9680   77.3670  139.6740 C.3   309  PHE309      0.1736
     55  C         80.3130   77.7770  140.2570 C.2   309  PHE309      0.2595
     56  O         80.4020   78.1700  141.4090 O.2   309  PHE309     -0.2718
     57  CB        78.3710   76.1760  140.3730 C.3   309  PHE309      0.0547
     58  CG        79.3750   75.2570  140.9900 C.ar  309  PHE309     -0.0202
     59  CD1       79.2570   74.9220  142.3230 C.ar  309  PHE309     -0.0042
     60  CD2       80.4290   74.7180  140.2350 C.ar  309  PHE309     -0.0042
     61  CE1       80.1610   74.0670  142.9270 C.ar  309  PHE309     -0.0003
     62  CE2       81.3700   73.8970  140.8150 C.ar  309  PHE309     -0.0003
     63  CZ        81.2260   73.5320  142.1710 C.ar  309  PHE309     -0.0000
     64  N         81.3440   77.7260  139.4030 N.am  310  ASP310     -0.1974
     65  CA        82.6880   78.1570  139.7690 C.3   310  ASP310      0.1709
     66  C         82.7750   79.6630  140.1110 C.2   310  ASP310      0.2293
     67  O         83.8660   80.2010  140.3370 O.2   310  ASP310     -0.2864
     68  CB        83.7870   77.7230  138.7540 C.3   310  ASP310      0.1436
     69  CG        85.0900   77.2640  139.4540 C.2   310  ASP310      0.3671
     70  OD1       84.9880   76.8640  140.6100 O.co2 310  ASP310     -0.2456
     71  OD2       86.2350   77.2660  138.8760 O.co2 310  ASP310     -0.2456
     72  N         93.4150   73.8940  135.0530 N.3   370  ASP370     -0.1239
     73  CA        92.1970   73.7480  135.8360 C.3   370  ASP370      0.1674
     74  C         92.4300   74.1100  137.3130 C.2   370  ASP370      0.2266
     75  O         91.5010   74.1830  138.0960 O.2   370  ASP370     -0.2867
     76  CB        91.6060   72.3220  135.7180 C.3   370  ASP370      0.1410
     77  CG        90.1600   72.1990  136.2830 C.2   370  ASP370      0.3668
     78  OD1       89.4500   73.2080  136.5730 O.co2 370  ASP370     -0.2456
     79  OD2       89.7170   71.0400  136.3750 O.co2 370  ASP370     -0.2456
     80  N         85.0290   77.9710  145.3210 N.3   397  THR397     -0.1203
     81  CA        84.8310   76.5800  144.9040 C.3   397  THR397      0.1994
     82  C         86.1510   76.1290  144.3330 C.2   397  THR397      0.2617
     83  O         86.3170   76.0460  143.1170 O.2   397  THR397     -0.2717
     84  CB        83.7410   76.4470  143.8350 C.3   397  THR397      0.1784
     85  OG1       84.0110   77.3550  142.7630 O.3   397  THR397     -0.2211
     86  CG2       82.4060   76.7930  144.4360 C.3   397  THR397      0.0376
     87  N         87.1030   75.8440  145.2060 N.am  398  LEU398     -0.1979
     88  CA        88.4870   75.7230  144.7780 C.3   398  LEU398      0.1596
     89  C         88.8330   74.3210  144.4150 C.2   398  LEU398      0.2287
     90  O         89.4650   74.0760  143.3730 O.2   398  LEU398     -0.2864
     91  CB        89.4550   76.2330  145.8420 C.3   398  LEU398      0.0297
     92  CG        90.7560   76.8810  145.3650 C.3   398  LEU398      0.0022
     93  CD1       90.4760   77.8800  144.2770 C.3   398  LEU398      0.0001
     94  CD2       91.5330   77.5510  146.4900 C.3   398  LEU398      0.0001
     95  N         87.6900   70.1700  143.9680 N.3   400  GLY400     -0.1210
     96  CA        86.8190   69.0160  143.9760 C.3   400  GLY400      0.1956
     97  C         87.1000   68.0540  145.1320 C.2   400  GLY400      0.2611
     98  O         86.1800   67.3330  145.6260 O.2   400  GLY400     -0.2717
     99  N         88.3550   68.0660  145.5980 N.am  401  ALA401     -0.1979
    100  CA        88.7660   67.2010  146.7170 C.3   401  ALA401      0.1597
    101  C         87.9050   67.4200  147.9600 C.2   401  ALA401      0.2287
    102  O         87.7570   66.4860  148.7510 O.2   401  ALA401     -0.2864
    103  CB        90.2160   67.3540  147.0300 C.3   401  ALA401      0.0319
    104  N         84.8560   67.3280  148.1120 N.3   403  LEU403     -0.1231
    105  CA        83.7600   66.3930  148.1180 C.3   403  LEU403      0.1693
    106  C         84.2340   65.1380  148.7970 C.2   403  LEU403      0.2592
    107  O         83.4200   64.3960  149.3750 O.2   403  LEU403     -0.2718
    108  CB        83.2790   66.0980  146.7040 C.3   403  LEU403      0.0284
    109  CG        82.3410   67.1250  146.0210 C.3   403  LEU403      0.0019
    110  CD1       82.3620   66.9190  144.4800 C.3   403  LEU403      0.0001
    111  CD2       80.8760   67.1010  146.5340 C.3   403  LEU403      0.0001
    112  N         85.5460   64.8920  148.7330 N.am  404  TYR404     -0.1976
    113  CA        86.0920   63.6850  149.3010 C.3   404  TYR404      0.1639
    114  C         86.5020   63.8750  150.7130 C.2   404  TYR404      0.2290
    115  O         86.6940   62.8870  151.4060 O.2   404  TYR404     -0.2864
    116  CB        87.2530   63.1230  148.4730 C.3   404  TYR404      0.0560
    117  CG        86.8030   62.6600  147.1220 C.ar  404  TYR404     -0.0198
    118  CD1       86.7670   63.5270  146.0590 C.ar  404  TYR404     -0.0009
    119  CD2       86.3970   61.3500  146.9140 C.ar  404  TYR404     -0.0009
    120  CE1       86.3480   63.1230  144.8000 C.ar  404  TYR404      0.0417
    121  CE2       85.9810   60.9230  145.6640 C.ar  404  TYR404      0.0417
    122  CZ        85.9460   61.8280  144.6010 C.ar  404  TYR404      0.1957
    123  OH        85.5080   61.4360  143.3470 O.3   404  TYR404     -0.2866
    124  N         83.7400   74.4690  147.2390 N.3   488  ALA488     -0.1245
    125  CA        83.5940   73.4960  146.1630 C.3   488  ALA488      0.1562
    126  C         82.5860   72.3700  146.4920 C.2   488  ALA488      0.2260
    127  O         81.8030   71.9920  145.6130 O.2   488  ALA488     -0.2867
    128  CB        84.9230   72.9220  145.8080 C.3   488  ALA488      0.0290
@<TRIPOS>BOND
     1    21    20    2
     2    20    19    1
     3    18    19    1
     4    19    22    1
     5    22    23    1
     6    12    13    2
     7    12    11    1
     8    10    11    1
     9    36    35    1
    10    23    24    1
    11    11    14    1
    12    16    15   ar
    13    24    25    1
    14    72    73    1
    15    49    50    1
    16    49    46    1
    17    39    40    2
    18    39    38    1
    19    35    32    1
    20    76    73    1
    21    76    77    1
    22    14    15    1
    23    25    26    1
    24    50    51    1
    25    73    74    1
    26    45    46    1
    27    15    17   ar
    28    47    46    1
    29    47    48    2
    30    37    38    1
    31    37    33   am
    32    38    41    1
    33    77    79   ar
    34    77    78   ar
    35    27    28    1
    36    33    32    1
    37    33    34    2
    38    32    31    1
    39    31    29   am
    40    74    75    2
    41    41    42    1
    42    51    52    1
    43    28    29    1
    44    29    30    2
    45    53    54    1
    46    42    43    1
    47    68    69    1
    48    68    65    1
    49    71    69   ar
    50    64    65    1
    51    64    55   am
    52    69    70   ar
    53    54    55    1
    54    54    57    1
    55    65    66    1
    56    43    44    1
    57    66    67    2
    58    60    62   ar
    59    60    58   ar
    60    55    56    2
    61    57    58    1
    62     9     8    1
    63    62    63   ar
    64     8     7    1
    65    58    59   ar
    66     6     7    1
    67     6     5    1
    68    63    61   ar
    69    59    61   ar
    70     3     4    2
    71     3     2    1
    72    85    84    1
    73    83    82    2
    74   123   122    1
    75     2     5    1
    76     2     1    1
    77    90    89    2
    78    84    86    1
    79    84    81    1
    80    95    96    1
    81    96    97    1
    82    93    92    1
    83    82    81    1
    84    82    87   am
    85    89    88    1
    86   110   109    1
    87   122   120   ar
    88   122   121   ar
    89    88    87    1
    90    88    91    1
    91   120   118   ar
    92    81    80    1
    93    97    99   am
    94    97    98    2
    95    92    91    1
    96    92    94    1
    97    99   100    1
    98   127   126    2
    99   121   119   ar
   100   128   125    1
   101   109   111    1
   102   109   108    1
   103   118   117   ar
   104   125   126    1
   105   125   124    1
   106   108   105    1
   107   100   103    1
   108   100   101    1
   109   119   117   ar
   110   117   116    1
   111   101   102    2
   112   104   105    1
   113   105   106    1
   114   116   113    1
   115   112   106   am
   116   112   113    1
   117   106   107    2
   118   113   114    1
   119   114   115    2
