@<TRIPOS>MOLECULE
tmp/3kqzB00.pdb
 94 90 0 0 0
SMALL
GASTEIGER

@<TRIPOS>ATOM
      1  N        121.7760   83.8390   17.3510 N.3    18  TYR18      -0.1227
      2  CA       122.9150   83.4340   16.5260 C.3    18  TYR18       0.1736
      3  C        124.2270   83.3460   17.3050 C.2    18  TYR18       0.2595
      4  O        124.8820   82.3010   17.2600 O.2    18  TYR18      -0.2718
      5  CB       123.0850   84.3130   15.3120 C.3    18  TYR18       0.0548
      6  CG       121.9030   84.3460   14.3880 C.ar   18  TYR18      -0.0200
      7  CD1      120.8370   85.2440   14.6130 C.ar   18  TYR18      -0.0009
      8  CD2      121.8480   83.5110   13.2600 C.ar   18  TYR18      -0.0009
      9  CE1      119.7420   85.3170   13.7490 C.ar   18  TYR18       0.0417
     10  CE2      120.7450   83.5570   12.3880 C.ar   18  TYR18       0.0417
     11  CZ       119.6990   84.4710   12.6420 C.ar   18  TYR18       0.1957
     12  OH       118.6060   84.5420   11.7990 O.3    18  TYR18      -0.2866
     13  N        124.6230   84.3980   18.0230 N.am   19  ASN19      -0.1974
     14  CA       125.7150   84.2100   18.9750 C.3    19  ASN19       0.1688
     15  C        125.2170   83.7010   20.3040 C.2    19  ASN19       0.2292
     16  O        124.6440   84.4430   21.0890 O.2    19  ASN19      -0.2864
     17  CB       126.5800   85.4460   19.2100 C.3    19  ASN19       0.1181
     18  CG       127.8530   85.1010   20.0570 C.2    19  ASN19       0.2629
     19  OD1      127.8680   85.2260   21.2790 O.2    19  ASN19      -0.2716
     20  ND2      128.8830   84.6220   19.3940 N.am   19  ASN19      -0.0877
     21  N        129.2570   79.9850   21.7310 N.3    23  HIS23      -0.1241
     22  CA       130.2030   80.5890   20.8240 C.3    23  HIS23       0.1621
     23  C        131.2320   81.4030   21.5300 C.2    23  HIS23       0.2264
     24  O        132.3120   81.6450   20.9840 O.2    23  HIS23      -0.2867
     25  CB       129.4940   81.4750   19.8640 C.3    23  HIS23       0.0745
     26  CG       128.7450   80.7170   18.8460 C.ar   23  HIS23       0.0817
     27  ND1      127.3980   80.4550   18.9620 N.ar   23  HIS23      -0.2268
     28  CD2      129.1580   80.1200   17.7070 C.ar   23  HIS23       0.1154
     29  CE1      127.0080   79.7620   17.9130 C.ar   23  HIS23       0.1986
     30  NE2      128.0580   79.5320   17.1450 N.ar   23  HIS23      -0.2212
     31  N        125.9770   74.5690   16.0070 N.3   196  PHE196     -0.1241
     32  CA       125.0700   75.6170   15.7380 C.3   196  PHE196      0.1605
     33  C        123.9840   75.2390   14.7190 C.2   196  PHE196      0.2264
     34  O        122.8670   75.6930   14.8160 O.2   196  PHE196     -0.2867
     35  CB       125.7120   76.9620   15.4360 C.3   196  PHE196      0.0534
     36  CG       124.6900   78.0290   15.3500 C.ar  196  PHE196     -0.0203
     37  CD1      124.0320   78.4540   16.4890 C.ar  196  PHE196     -0.0042
     38  CD2      124.2680   78.5040   14.1190 C.ar  196  PHE196     -0.0042
     39  CE1      123.0000   79.3910   16.4170 C.ar  196  PHE196     -0.0003
     40  CE2      123.2160   79.4640   14.0450 C.ar  196  PHE196     -0.0003
     41  CZ       122.5970   79.8850   15.1910 C.ar  196  PHE196     -0.0000
     42  N        118.8940   84.0040    7.0840 N.3   224  LEU224     -0.1245
     43  CA       120.0070   83.0530    7.1930 C.3   224  LEU224      0.1561
     44  C        120.7550   83.0100    5.8900 C.2   224  LEU224      0.2260
     45  O        121.9710   83.0320    5.8680 O.2   224  LEU224     -0.2867
     46  CB       119.5180   81.6430    7.5040 C.3   224  LEU224      0.0270
     47  CG       120.5630   80.5290    7.6810 C.3   224  LEU224      0.0019
     48  CD1      121.4700   80.7410    8.8920 C.3   224  LEU224      0.0001
     49  CD2      119.8830   79.1980    7.8360 C.3   224  LEU224      0.0001
     50  N        122.9670   86.0180    5.8640 N.3   227  LYS227     -0.1231
     51  CA       124.1580   85.9430    6.6830 C.3   227  LYS227      0.1693
     52  C        125.2460   85.1180    6.0500 C.2   227  LYS227      0.2591
     53  O        126.3970   85.4970    6.0840 O.2   227  LYS227     -0.2718
     54  CB       123.8270   85.4220    8.0650 C.3   227  LYS227      0.0285
     55  CG       123.0520   86.4460    8.8330 C.3   227  LYS227      0.0035
     56  CD       122.6480   85.9450   10.1850 C.3   227  LYS227      0.0206
     57  CE       121.6910   86.9350   10.8160 C.3   227  LYS227      0.1093
     58  NZ       122.2790   88.2920   10.8500 N.3   227  LYS227     -0.1314
     59  N        124.8870   83.9770    5.4850 N.am  228  LEU228     -0.1980
     60  CA       125.8250   83.1560    4.7180 C.3   228  LEU228      0.1596
     61  C        125.7940   83.7990    3.3610 C.2   228  LEU228      0.2287
     62  O        125.1550   84.8380    3.2140 O.2   228  LEU228     -0.2864
     63  CB       125.2870   81.7600    4.6650 C.3   228  LEU228      0.0297
     64  CG       124.8190   81.2830    6.0360 C.3   228  LEU228      0.0022
     65  CD1      123.7270   80.2020    5.8540 C.3   228  LEU228      0.0001
     66  CD2      125.9860   80.8080    6.8990 C.3   228  LEU228      0.0001
     67  N        123.1700   76.1360    7.0950 N.3   318  TYR318     -0.1241
     68  CA       124.0830   76.8940    7.9330 C.3   318  TYR318      0.1605
     69  C        125.4770   76.2690    7.8860 C.2   318  TYR318      0.2264
     70  O        126.4550   76.9470    7.6030 O.2   318  TYR318     -0.2867
     71  CB       123.5710   77.0830    9.3900 C.3   318  TYR318      0.0534
     72  CG       124.6870   77.5090   10.3030 C.ar  318  TYR318     -0.0201
     73  CD1      125.0920   78.8510   10.3900 C.ar  318  TYR318     -0.0009
     74  CD2      125.4040   76.5720   10.9990 C.ar  318  TYR318     -0.0009
     75  CE1      126.1960   79.2300   11.1790 C.ar  318  TYR318      0.0417
     76  CE2      126.4760   76.9300   11.7930 C.ar  318  TYR318      0.0417
     77  CZ       126.8630   78.2500   11.8730 C.ar  318  TYR318      0.1957
     78  OH       127.9240   78.5540   12.6670 O.3   318  TYR318     -0.2866
     79  N        128.7570   77.7990    5.9930 N.3   322  THR322     -0.1218
     80  CA       129.9210   78.1260    6.7840 C.3   322  THR322      0.1862
     81  C        131.1090   77.3320    6.3360 C.2   322  THR322      0.2287
     82  O        132.1550   77.9080    6.0600 O.2   322  THR322     -0.2866
     83  CB       129.6950   77.8420    8.2500 C.3   322  THR322      0.1770
     84  OG1      128.4990   78.5050    8.6420 O.3   322  THR322     -0.2211
     85  CG2      130.8550   78.3520    9.0940 C.3   322  THR322      0.0375
     86  N        131.7710   75.8010    3.6050 N.3   324  LYS324     -0.1245
     87  CA       132.1400   76.0860    2.2330 C.3   324  LYS324      0.1561
     88  C        132.7980   74.8790    1.5610 C.2   324  LYS324      0.2260
     89  O        133.9540   74.9550    1.1710 O.2   324  LYS324     -0.2867
     90  CB       133.0380   77.3300    2.1740 C.3   324  LYS324      0.0271
     91  CG       132.2790   78.6190    2.5160 C.3   324  LYS324      0.0035
     92  CD       133.1180   79.8710    2.3370 C.3   324  LYS324      0.0206
     93  CE       132.2880   81.1660    2.4540 C.3   324  LYS324      0.1093
     94  NZ       133.1580   82.3930    2.2580 N.3   324  LYS324     -0.1314
@<TRIPOS>BOND
     1    89    88    2
     2    88    87    1
     3    90    87    1
     4    90    91    1
     5    87    86    1
     6    94    93    1
     7    92    93    1
     8    92    91    1
     9    62    61    2
    10    61    60    1
    11    63    60    1
    12    63    64    1
    13    60    59    1
    14    59    52   am
    15    65    64    1
    16    50    51    1
    17    45    44    2
    18    44    43    1
    19    79    80    1
    20    64    66    1
    21    52    53    2
    22    52    51    1
    23    82    81    2
    24    81    80    1
    25    51    54    1
    26    80    83    1
    27    42    43    1
    28    67    68    1
    29    43    46    1
    30    46    47    1
    31    70    69    2
    32    47    49    1
    33    47    48    1
    34    69    68    1
    35    68    71    1
    36    54    55    1
    37    83    84    1
    38    83    85    1
    39    55    56    1
    40    71    72    1
    41    56    57    1
    42    72    73   ar
    43    72    74   ar
    44    73    75   ar
    45    57    58    1
    46    74    76   ar
    47    75    77   ar
    48    76    77   ar
    49    12    11    1
    50    77    78    1
    51    10    11   ar
    52    10     8   ar
    53    11     9   ar
    54     8     6   ar
    55     9     7   ar
    56    40    38   ar
    57    40    41   ar
    58    38    36   ar
    59     6     7   ar
    60     6     5    1
    61    33    34    2
    62    33    32    1
    63    41    39   ar
    64     5     2    1
    65    36    35    1
    66    36    37   ar
    67    35    32    1
    68    32    31    1
    69    39    37   ar
    70     2     3    1
    71     2     1    1
    72    30    28   ar
    73    30    29   ar
    74     4     3    2
    75     3    13   am
    76    28    26   ar
    77    29    27   ar
    78    13    14    1
    79    26    27   ar
    80    26    25    1
    81    14    17    1
    82    14    15    1
    83    17    18    1
    84    20    18   am
    85    25    22    1
    86    18    19    2
    87    15    16    2
    88    22    23    1
    89    22    21    1
    90    24    23    2
