@<TRIPOS>MOLECULE
tmp/3kqzB01.pdb
 134 125 0 0 0
SMALL
GASTEIGER

@<TRIPOS>ATOM
      1  N        110.2480   68.7580    4.8950 N.3   281  LYS281     -0.1245
      2  CA       108.8220   68.9970    5.1590 C.3   281  LYS281      0.1561
      3  C        108.7170   70.2270    6.0960 C.2   281  LYS281      0.2260
      4  O        109.4530   70.3170    7.1130 O.2   281  LYS281     -0.2867
      5  CB       108.1600   67.7660    5.7650 C.3   281  LYS281      0.0271
      6  CG       106.7560   68.0150    6.1900 C.3   281  LYS281      0.0035
      7  CD       106.0400   66.7580    6.6750 C.3   281  LYS281      0.0206
      8  CE       104.7990   67.0760    7.4580 C.3   281  LYS281      0.1093
      9  NZ       104.1200   65.8820    8.0310 N.3   281  LYS281     -0.1314
     10  N        100.6470   71.4850   12.2590 N.3   286  ASP286     -0.1239
     11  CA        99.8210   70.4260   11.6570 C.3   286  ASP286      0.1674
     12  C         98.6720   70.0750   12.5830 C.2   286  ASP286      0.2266
     13  O         98.8440   69.3130   13.5330 O.2   286  ASP286     -0.2867
     14  CB       100.6180   69.1630   11.3760 C.3   286  ASP286      0.1410
     15  CG        99.8680   68.1920   10.4550 C.2   286  ASP286      0.3668
     16  OD1       98.7480   68.5070    9.9710 O.co2 286  ASP286     -0.2456
     17  OD2      100.3840   67.0950   10.2120 O.co2 286  ASP286     -0.2456
     18  N         93.6300   66.1380   14.2960 N.3   293  LYS293     -0.1245
     19  CA        94.3370   65.2710   15.2330 C.3   293  LYS293      0.1561
     20  C         93.5850   65.2920   16.5560 C.2   293  LYS293      0.2260
     21  O         93.7820   66.1620   17.3650 O.2   293  LYS293     -0.2867
     22  CB        95.7570   65.7520   15.4050 C.3   293  LYS293      0.0271
     23  CG        96.6450   65.5330   14.1790 C.3   293  LYS293      0.0035
     24  CD        98.0350   66.0460   14.4730 C.3   293  LYS293      0.0206
     25  CE        98.8670   66.0030   13.2550 C.3   293  LYS293      0.1093
     26  NZ        99.1890   64.6090   12.8940 N.3   293  LYS293     -0.1314
     27  N         96.9050   60.1480   21.8300 N.3   297  GLY297     -0.1210
     28  CA        98.2170   59.8620   21.2400 C.3   297  GLY297      0.1956
     29  C         98.5760   60.5420   19.9150 C.2   297  GLY297      0.2613
     30  O         99.7190   60.3920   19.4240 O.2   297  GLY297     -0.2717
     31  N         97.6180   61.2710   19.3220 N.am  298  SER298     -0.1938
     32  CA        97.9180   62.0590   18.1250 C.3   298  SER298      0.2055
     33  C         98.8130   63.2980   18.3950 C.2   298  SER298      0.2642
     34  O         99.3550   63.8830   17.4800 O.2   298  SER298     -0.2714
     35  CB        96.6380   62.4050   17.3640 C.3   298  SER298      0.2130
     36  OG        95.8310   63.3330   18.0730 O.3   298  SER298     -0.2179
     37  N         98.9780   63.6800   19.6480 N.am  299  MET299     -0.1976
     38  CA        99.9360   64.7280   20.0650 C.3   299  MET299      0.1605
     39  C         99.7980   66.0780   19.3730 C.2   299  MET299      0.2287
     40  O        100.7750   66.6880   18.9610 O.2   299  MET299     -0.2864
     41  CB       101.3710   64.1870   19.9480 C.3   299  MET299      0.0413
     42  CG       101.7090   63.1790   21.0580 C.3   299  MET299      0.0598
     43  SD       103.2610   62.2730   20.8930 S.3   299  MET299     -0.1393
     44  CE       103.6430   62.5330   19.1650 C.3   299  MET299      0.0692
     45  N        102.3330   69.0760   19.8770 N.3   302  LEU302     -0.1231
     46  CA       103.7090   68.9450   19.5070 C.3   302  LEU302      0.1693
     47  C        103.8490   69.3400   18.0480 C.2   302  LEU302      0.2591
     48  O        104.9260   69.3370   17.5100 O.2   302  LEU302     -0.2718
     49  CB       104.0740   67.4530   19.6520 C.3   302  LEU302      0.0284
     50  CG       105.3800   66.9610   18.9710 C.3   302  LEU302      0.0019
     51  CD1      106.4820   67.2050   19.9870 C.3   302  LEU302      0.0001
     52  CD2      105.3800   65.4650   18.4120 C.3   302  LEU302      0.0001
     53  N        102.7410   69.6440   17.3920 N.am  303  MET303     -0.1979
     54  CA       102.7070   69.6430   15.9420 C.3   303  MET303      0.1605
     55  C        103.3470   70.8820   15.3230 C.2   303  MET303      0.2287
     56  O        103.3180   71.0810   14.1150 O.2   303  MET303     -0.2864
     57  CB       101.2780   69.4040   15.4510 C.3   303  MET303      0.0413
     58  CG       100.8750   67.9440   15.6860 C.3   303  MET303      0.0598
     59  SD       102.0410   66.9250   14.7480 S.3   303  MET303     -0.1393
     60  CE       101.9900   65.3450   15.5420 C.3   303  MET303      0.0692
     61  N        106.3200   70.8720   15.6530 N.3   305  PHE305     -0.1227
     62  CA       107.5020   70.2010   15.1600 C.3   305  PHE305      0.1736
     63  C        107.3650   69.6760   13.7410 C.2   305  PHE305      0.2595
     64  O        108.2750   69.0170   13.2770 O.2   305  PHE305     -0.2718
     65  CB       107.9340   69.1100   16.1370 C.3   305  PHE305      0.0547
     66  CG       107.5270   67.6870   15.7600 C.ar  305  PHE305     -0.0202
     67  CD1      108.4560   66.6510   15.8470 C.ar  305  PHE305     -0.0042
     68  CD2      106.2200   67.3680   15.3980 C.ar  305  PHE305     -0.0042
     69  CE1      108.1160   65.3220   15.5610 C.ar  305  PHE305     -0.0003
     70  CE2      105.8490   66.0520   15.0870 C.ar  305  PHE305     -0.0003
     71  CZ       106.8020   65.0090   15.1830 C.ar  305  PHE305     -0.0000
     72  N        106.2330   69.9470   13.0750 N.am  306  ASP306     -0.1974
     73  CA       105.9690   69.3060   11.8070 C.3   306  ASP306      0.1709
     74  C        106.7570   70.0240   10.7110 C.2   306  ASP306      0.2293
     75  O        106.6070   69.7340    9.5300 O.2   306  ASP306     -0.2864
     76  CB       104.4500   69.1890   11.4700 C.3   306  ASP306      0.1436
     77  CG       104.1170   67.9450   10.6160 C.2   306  ASP306      0.3671
     78  OD1      104.8410   66.9210   10.6790 O.co2 306  ASP306     -0.2456
     79  OD2      103.1300   67.9640    9.8470 O.co2 306  ASP306     -0.2456
     80  N        109.0180   64.8480    8.9690 N.3   393  THR393     -0.1203
     81  CA       108.2870   64.1590   10.0410 C.3   393  THR393      0.1994
     82  C        106.9570   63.6860    9.4350 C.2   393  THR393      0.2617
     83  O        105.9070   64.3100    9.5840 O.2   393  THR393     -0.2717
     84  CB       108.1110   65.0460   11.2660 C.3   393  THR393      0.1784
     85  OG1      107.5310   66.2720   10.8610 O.3   393  THR393     -0.2211
     86  CG2      109.4540   65.3680   11.8850 C.3   393  THR393      0.0376
     87  N        107.0350   62.5930    8.6930 N.am  394  LEU394     -0.1979
     88  CA       105.9640   62.2320    7.8000 C.3   394  LEU394      0.1596
     89  C        104.9200   61.3750    8.4840 C.2   394  LEU394      0.2287
     90  O        103.7240   61.6670    8.3830 O.2   394  LEU394     -0.2864
     91  CB       106.5130   61.5480    6.5650 C.3   394  LEU394      0.0297
     92  CG       105.7010   61.7810    5.3030 C.3   394  LEU394      0.0022
     93  CD1      105.3570   63.2590    5.0850 C.3   394  LEU394      0.0001
     94  CD2      106.4740   61.3250    4.1260 C.3   394  LEU394      0.0001
     95  N        103.5660   59.0510   12.0360 N.3   396  GLY396     -0.1210
     96  CA       103.6510   58.6610   13.4440 C.3   396  GLY396      0.1956
     97  C        103.9730   57.1870   13.6170 C.2   396  GLY396      0.2611
     98  O        104.3970   56.7850   14.6840 O.2   396  GLY396     -0.2717
     99  N        103.7910   56.3930   12.5530 N.am  397  ALA397     -0.1979
    100  CA       104.1160   54.9680   12.5000 C.3   397  ALA397      0.1597
    101  C        105.6080   54.7050   12.6960 C.2   397  ALA397      0.2287
    102  O        106.0010   53.6000   13.0620 O.2   397  ALA397     -0.2864
    103  CB       103.6510   54.3520   11.1840 C.3   397  ALA397      0.0319
    104  N        107.1550   55.6680   15.1510 N.3   399  LEU399     -0.1231
    105  CA       107.2880   55.4320   16.6120 C.3   399  LEU399      0.1693
    106  C        107.0810   53.9660   16.9420 C.2   399  LEU399      0.2592
    107  O        107.5220   53.4870   17.9970 O.2   399  LEU399     -0.2718
    108  CB       106.3020   56.2760   17.4030 C.3   399  LEU399      0.0284
    109  CG       106.6380   57.7720   17.4810 C.3   399  LEU399      0.0019
    110  CD1      105.4500   58.4890   18.0030 C.3   399  LEU399      0.0001
    111  CD2      107.8270   58.0430   18.3890 C.3   399  LEU399      0.0001
    112  N        106.3750   53.2810   16.0390 N.am  400  TYR400     -0.1976
    113  CA       106.1210   51.8720   16.1690 C.3   400  TYR400      0.1639
    114  C        107.1210   51.0180   15.4030 C.2   400  TYR400      0.2290
    115  O        107.2220   49.8360   15.6950 O.2   400  TYR400     -0.2864
    116  CB       104.6770   51.5410   15.7420 C.3   400  TYR400      0.0560
    117  CG       103.6790   52.2170   16.6340 C.ar  400  TYR400     -0.0198
    118  CD1      103.2690   53.5060   16.3820 C.ar  400  TYR400     -0.0009
    119  CD2      103.1800   51.5750   17.7560 C.ar  400  TYR400     -0.0009
    120  CE1      102.3700   54.1510   17.2020 C.ar  400  TYR400      0.0417
    121  CE2      102.2650   52.2000   18.5980 C.ar  400  TYR400      0.0417
    122  CZ       101.8640   53.4980   18.3150 C.ar  400  TYR400      0.1957
    123  OH       100.9710   54.1390   19.1570 O.3   400  TYR400     -0.2866
    124  N        102.2250   52.7300    6.9990 N.3   461  SER461     -0.1217
    125  CA       102.0390   54.0080    6.3940 C.3   461  SER461      0.1889
    126  C        103.3810   54.7490    6.1020 C.2   461  SER461      0.2288
    127  O        103.4220   55.6010    5.2460 O.2   461  SER461     -0.2866
    128  CB       101.0570   54.8170    7.2500 C.3   461  SER461      0.2089
    129  OG       101.6470   55.0900    8.5090 O.3   461  SER461     -0.2183
    130  N        109.9250   61.5020   11.8120 N.3   484  ALA484     -0.1245
    131  CA       108.7390   61.6860   12.6640 C.3   484  ALA484      0.1562
    132  C        108.9560   61.1780   14.0840 C.2   484  ALA484      0.2260
    133  O        108.4400   61.7840   14.9900 O.2   484  ALA484     -0.2867
    134  CB       107.4680   61.0650   12.0370 C.3   484  ALA484      0.0290
@<TRIPOS>BOND
     1    94    92    1
     2     1     2    1
     3    93    92    1
     4     2     5    1
     5     2     3    1
     6   127   126    2
     7    92    91    1
     8     5     6    1
     9     3     4    2
    10   126   125    1
    11     6     7    1
    12   125   124    1
    13   125   128    1
    14    91    88    1
    15     7     8    1
    16   128   129    1
    17     8     9    1
    18    88    89    1
    19    88    87    1
    20    90    89    2
    21    87    82   am
    22    80    81    1
    23    82    83    2
    24    82    81    1
    25    75    74    2
    26    79    77   ar
    27    16    15   ar
    28    81    84    1
    29    17    15   ar
    30    15    14    1
    31    77    78   ar
    32    77    76    1
    33    74    73    1
    34    85    84    1
    35   103   100    1
    36    84    86    1
    37    14    11    1
    38    76    73    1
    39    11    10    1
    40    11    12    1
    41    73    72    1
    42   130   131    1
    43    95    96    1
    44   134   131    1
    45   100    99    1
    46   100   101    1
    47    99    97   am
    48    12    13    2
    49   131   132    1
    50   101   102    2
    51    26    25    1
    52    72    63   am
    53    25    24    1
    54    64    63    2
    55    96    97    1
    56    97    98    2
    57    63    62    1
    58   132   133    2
    59    56    55    2
    60    23    24    1
    61    23    22    1
    62    18    19    1
    63    59    60    1
    64    59    58    1
    65    70    71   ar
    66    70    68   ar
    67   104   105    1
    68    62    61    1
    69    62    65    1
    70    71    69   ar
    71    19    22    1
    72    19    20    1
    73    55    54    1
    74    68    66   ar
    75   114   115    2
    76   114   113    1
    77    57    58    1
    78    57    54    1
    79    69    67   ar
    80   116   113    1
    81   116   117    1
    82    66    67   ar
    83    66    65    1
    84    54    53    1
    85   112   113    1
    86   112   106   am
    87   118   117   ar
    88   118   120   ar
    89    20    21    2
    90   105   106    1
    91   105   108    1
    92   117   119   ar
    93   106   107    2
    94   120   122   ar
    95    35    36    1
    96    35    32    1
    97    53    47   am
    98   108   109    1
    99    34    33    2
   100   109   110    1
   101   109   111    1
   102    48    47    2
   103   119   121   ar
   104    47    46    1
   105    32    33    1
   106    32    31    1
   107   122   121   ar
   108   122   123    1
   109    33    37   am
   110    52    50    1
   111    40    39    2
   112    50    49    1
   113    50    51    1
   114    44    43    1
   115    31    29   am
   116    39    38    1
   117    30    29    2
   118    46    49    1
   119    46    45    1
   120    37    38    1
   121    29    28    1
   122    41    38    1
   123    41    42    1
   124    43    42    1
   125    28    27    1
