@<TRIPOS>MOLECULE
tmp/3kqzH00.pdb
 94 90 0 0 0
SMALL
GASTEIGER

@<TRIPOS>ATOM
      1  N        123.6260   83.9480  127.5490 N.3    18  TYR18      -0.1227
      2  CA       124.7520   83.5420  126.7230 C.3    18  TYR18       0.1736
      3  C        126.0490   83.4460  127.5080 C.2    18  TYR18       0.2595
      4  O        126.6770   82.3670  127.5060 O.2    18  TYR18      -0.2718
      5  CB       124.9350   84.4160  125.5090 C.3    18  TYR18       0.0548
      6  CG       123.7530   84.4360  124.5690 C.ar   18  TYR18      -0.0200
      7  CD1      122.6620   85.2790  124.8190 C.ar   18  TYR18      -0.0009
      8  CD2      123.7360   83.6470  123.4170 C.ar   18  TYR18      -0.0009
      9  CE1      121.5790   85.3190  123.9630 C.ar   18  TYR18       0.0417
     10  CE2      122.6550   83.6950  122.5400 C.ar   18  TYR18       0.0417
     11  CZ       121.5740   84.5310  122.8260 C.ar   18  TYR18       0.1957
     12  OH       120.4800   84.5950  121.9860 O.3    18  TYR18      -0.2866
     13  N        126.4590   84.5180  128.1900 N.am   19  ASN19      -0.1974
     14  CA       127.5660   84.3380  129.1200 C.3    19  ASN19       0.1688
     15  C        127.1260   83.8460  130.4810 C.2    19  ASN19       0.2292
     16  O        126.5400   84.5850  131.2570 O.2    19  ASN19      -0.2864
     17  CB       128.4620   85.5670  129.2640 C.3    19  ASN19       0.1181
     18  CG       129.7390   85.2630  130.1230 C.2    19  ASN19       0.2629
     19  OD1      129.7830   85.5510  131.3290 O.2    19  ASN19      -0.2716
     20  ND2      130.7440   84.6460  129.5040 N.am   19  ASN19      -0.0877
     21  N        131.1320   80.1060  131.8690 N.3    23  HIS23      -0.1241
     22  CA       132.0660   80.6640  130.9310 C.3    23  HIS23       0.1621
     23  C        133.1420   81.4480  131.6340 C.2    23  HIS23       0.2264
     24  O        134.2110   81.6760  131.0580 O.2    23  HIS23      -0.2867
     25  CB       131.3590   81.5650  129.9340 C.3    23  HIS23       0.0745
     26  CG       130.5790   80.8060  128.9250 C.ar   23  HIS23       0.0817
     27  ND1      129.2270   80.5790  129.0440 N.ar   23  HIS23      -0.2268
     28  CD2      130.9770   80.1550  127.8090 C.ar   23  HIS23       0.1154
     29  CE1      128.8240   79.8440  128.0230 C.ar   23  HIS23       0.1986
     30  NE2      129.8670   79.5670  127.2650 N.ar   23  HIS23      -0.2212
     31  N        127.8230   74.6320  126.2580 N.3   196  PHE196     -0.1241
     32  CA       126.8960   75.6690  125.9330 C.3   196  PHE196      0.1605
     33  C        125.8450   75.2790  124.8850 C.2   196  PHE196      0.2264
     34  O        124.7240   75.7550  124.9100 O.2   196  PHE196     -0.2867
     35  CB       127.5290   77.0290  125.5960 C.3   196  PHE196      0.0534
     36  CG       126.4850   78.1000  125.4840 C.ar  196  PHE196     -0.0203
     37  CD1      125.8250   78.5490  126.6270 C.ar  196  PHE196     -0.0042
     38  CD2      126.0700   78.5690  124.2490 C.ar  196  PHE196     -0.0042
     39  CE1      124.8000   79.4970  126.5550 C.ar  196  PHE196     -0.0003
     40  CE2      125.0540   79.5130  124.1590 C.ar  196  PHE196     -0.0003
     41  CZ       124.4120   79.9690  125.3160 C.ar  196  PHE196     -0.0000
     42  N        120.7550   84.0590  117.2650 N.3   224  LEU224     -0.1245
     43  CA       121.8260   83.0930  117.3450 C.3   224  LEU224      0.1561
     44  C        122.5390   83.0570  116.0050 C.2   224  LEU224      0.2260
     45  O        123.7740   83.0580  115.9520 O.2   224  LEU224     -0.2867
     46  CB       121.2880   81.6870  117.6630 C.3   224  LEU224      0.0270
     47  CG       122.3630   80.6040  117.8020 C.3   224  LEU224      0.0019
     48  CD1      123.2960   80.8810  118.9800 C.3   224  LEU224      0.0001
     49  CD2      121.6990   79.2420  117.9580 C.3   224  LEU224      0.0001
     50  N        124.7960   86.1110  115.9770 N.3   227  LYS227     -0.1231
     51  CA       125.9800   85.9830  116.7970 C.3   227  LYS227      0.1693
     52  C        127.0460   85.1110  116.1580 C.2   227  LYS227      0.2591
     53  O        128.2350   85.4110  116.2400 O.2   227  LYS227     -0.2718
     54  CB       125.6150   85.4630  118.1600 C.3   227  LYS227      0.0285
     55  CG       124.8860   86.5240  118.9460 C.3   227  LYS227      0.0035
     56  CD       124.5320   86.0420  120.3450 C.3   227  LYS227      0.0206
     57  CE       123.6020   87.0390  121.0190 C.3   227  LYS227      0.1093
     58  NZ       124.1780   88.4180  121.0210 N.3   227  LYS227     -0.1314
     59  N        126.6290   84.0200  115.5270 N.am  228  LEU228     -0.1980
     60  CA       127.5560   83.1630  114.7850 C.3   228  LEU228      0.1596
     61  C        127.5960   83.8330  113.4330 C.2   228  LEU228      0.2287
     62  O        127.0190   84.9010  113.2750 O.2   228  LEU228     -0.2864
     63  CB       126.9980   81.7590  114.7160 C.3   228  LEU228      0.0297
     64  CG       126.6180   81.2110  116.0910 C.3   228  LEU228      0.0022
     65  CD1      125.5310   80.1340  115.9600 C.3   228  LEU228      0.0001
     66  CD2      127.8390   80.6880  116.8490 C.3   228  LEU228      0.0001
     67  N        124.9880   76.1970  117.2970 N.3   318  TYR318     -0.1241
     68  CA       125.9250   76.9520  118.1470 C.3   318  TYR318      0.1605
     69  C        127.3270   76.3140  118.1190 C.2   318  TYR318      0.2264
     70  O        128.2990   76.9570  117.7160 O.2   318  TYR318     -0.2867
     71  CB       125.4080   77.1660  119.5840 C.3   318  TYR318      0.0534
     72  CG       126.5440   77.5730  120.4590 C.ar  318  TYR318     -0.0201
     73  CD1      127.0100   78.8860  120.4530 C.ar  318  TYR318     -0.0009
     74  CD2      127.2340   76.6280  121.2120 C.ar  318  TYR318     -0.0009
     75  CE1      128.1190   79.2520  121.2000 C.ar  318  TYR318      0.0417
     76  CE2      128.3210   76.9570  121.9420 C.ar  318  TYR318      0.0417
     77  CZ       128.7740   78.2750  121.9400 C.ar  318  TYR318      0.1957
     78  OH       129.8790   78.6090  122.6980 O.3   318  TYR318     -0.2866
     79  N        130.6200   77.8330  116.1460 N.3   322  THR322     -0.1218
     80  CA       131.8140   78.1470  116.9360 C.3   322  THR322      0.1862
     81  C        133.0260   77.3500  116.4590 C.2   322  THR322      0.2287
     82  O        134.0420   77.9170  116.0680 O.2   322  THR322     -0.2866
     83  CB       131.5800   77.8770  118.4020 C.3   322  THR322      0.1770
     84  OG1      130.3880   78.5420  118.7900 O.3   322  THR322     -0.2211
     85  CG2      132.7020   78.4240  119.2380 C.3   322  THR322      0.0375
     86  N        133.6040   75.8690  113.7760 N.3   324  LYS324     -0.1245
     87  CA       133.9390   76.0960  112.3840 C.3   324  LYS324      0.1561
     88  C        134.5910   74.8710  111.7360 C.2   324  LYS324      0.2260
     89  O        135.7600   74.9020  111.3700 O.2   324  LYS324     -0.2867
     90  CB       134.8310   77.3320  112.2690 C.3   324  LYS324      0.0271
     91  CG       134.1360   78.6120  112.7770 C.3   324  LYS324      0.0035
     92  CD       134.9890   79.8430  112.5820 C.3   324  LYS324      0.0206
     93  CE       134.1520   81.1300  112.5780 C.3   324  LYS324      0.1093
     94  NZ       135.0460   82.3330  112.4040 N.3   324  LYS324     -0.1314
@<TRIPOS>BOND
     1    89    88    2
     2    88    87    1
     3    90    87    1
     4    90    91    1
     5    87    86    1
     6    94    93    1
     7    93    92    1
     8    92    91    1
     9    62    61    2
    10    61    60    1
    11    63    60    1
    12    63    64    1
    13    60    59    1
    14    59    52   am
    15    45    44    2
    16    65    64    1
    17    50    51    1
    18    44    43    1
    19    82    81    2
    20    64    66    1
    21    79    80    1
    22    52    53    2
    23    52    51    1
    24    81    80    1
    25    51    54    1
    26    80    83    1
    27    42    43    1
    28    67    68    1
    29    43    46    1
    30    46    47    1
    31    70    69    2
    32    47    49    1
    33    47    48    1
    34    69    68    1
    35    68    71    1
    36    54    55    1
    37    83    84    1
    38    83    85    1
    39    55    56    1
    40    71    72    1
    41    56    57    1
    42    73    72   ar
    43    73    75   ar
    44    72    74   ar
    45    57    58    1
    46    75    77   ar
    47    74    76   ar
    48    77    76   ar
    49    77    78    1
    50    12    11    1
    51    10    11   ar
    52    10     8   ar
    53    11     9   ar
    54     8     6   ar
    55     9     7   ar
    56    40    38   ar
    57    40    41   ar
    58    38    36   ar
    59     6     7   ar
    60     6     5    1
    61    33    34    2
    62    33    32    1
    63    41    39   ar
    64    36    35    1
    65    36    37   ar
    66     5     2    1
    67    35    32    1
    68    32    31    1
    69    39    37   ar
    70     2     3    1
    71     2     1    1
    72    30    28   ar
    73    30    29   ar
    74     4     3    2
    75     3    13   am
    76    28    26   ar
    77    29    27   ar
    78    13    14    1
    79    26    27   ar
    80    26    25    1
    81    14    17    1
    82    14    15    1
    83    17    18    1
    84    20    18   am
    85    25    22    1
    86    18    19    2
    87    15    16    2
    88    22    23    1
    89    22    21    1
    90    24    23    2
