@<TRIPOS>MOLECULE
tmp/3kqzC02.pdb
 115 107 0 0 0
SMALL
GASTEIGER

@<TRIPOS>ATOM
      1  N         68.6520   66.2390   -0.7280 N.3   289  LYS289     -0.1245
      2  CA        69.6160   66.8310    0.2010 C.3   289  LYS289      0.1561
      3  C         70.8800   67.1000   -0.6030 C.2   289  LYS289      0.2260
      4  O         71.4000   66.2170   -1.3020 O.2   289  LYS289     -0.2867
      5  CB        69.8790   65.9080    1.3770 C.3   289  LYS289      0.0271
      6  CG        71.0130   66.3560    2.2780 C.3   289  LYS289      0.0035
      7  CD        71.2680   65.3410    3.4140 C.3   289  LYS289      0.0206
      8  CE        72.6140   65.5710    4.0750 C.3   289  LYS289      0.1093
      9  NZ        72.9320   64.7140    5.2890 N.3   289  LYS289     -0.1314
     10  N         80.2180   67.3200    3.8260 N.3   294  ASP294     -0.1239
     11  CA        79.7450   67.2810    5.2220 C.3   294  ASP294      0.1674
     12  C         80.9120   66.9520    6.1770 C.2   294  ASP294      0.2266
     13  O         81.2560   65.7890    6.3850 O.2   294  ASP294     -0.2867
     14  CB        78.5790   66.2840    5.3840 C.3   294  ASP294      0.1410
     15  CG        77.8410   66.4200    6.7120 C.2   294  ASP294      0.3668
     16  OD1       78.0570   67.4020    7.4220 O.co2 294  ASP294     -0.2456
     17  OD2       77.0360   65.5330    7.0570 O.co2 294  ASP294     -0.2456
     18  N         83.1250   64.9930   12.0290 N.3   301  LYS301     -0.1245
     19  CA        83.2560   63.5660   11.7760 C.3   301  LYS301      0.1561
     20  C         84.6820   63.1180   12.0410 C.2   301  LYS301      0.2260
     21  O         85.5210   63.1290   11.1550 O.2   301  LYS301     -0.2867
     22  CB        82.8240   63.2220   10.3720 C.3   301  LYS301      0.0271
     23  CG        81.3360   63.4580   10.1150 C.3   301  LYS301      0.0035
     24  CD        81.0350   63.3290    8.6070 C.3   301  LYS301      0.0206
     25  CE        79.5550   63.6080    8.3310 C.3   301  LYS301      0.1093
     26  NZ        78.6410   62.6350    8.9950 N.3   301  LYS301     -0.1314
     27  N         84.9810   55.1540   11.5870 N.3   305  GLY305     -0.1210
     28  CA        83.7940   54.7800   10.8370 C.3   305  GLY305      0.1956
     29  C         82.8960   55.9570   10.4130 C.2   305  GLY305      0.2613
     30  O         81.8410   55.7450    9.8360 O.2   305  GLY305     -0.2717
     31  N         83.2930   57.2000   10.6890 N.am  306  SER306     -0.1938
     32  CA        82.4970   58.3220   10.2240 C.3   306  SER306      0.2055
     33  C         82.7100   58.6420    8.7200 C.2   306  SER306      0.2642
     34  O         81.9390   59.4130    8.1630 O.2   306  SER306     -0.2714
     35  CB        82.6930   59.5290   11.1320 C.3   306  SER306      0.2130
     36  OG        84.0480   59.9180   11.1310 O.3   306  SER306     -0.2179
     37  N         83.6970   58.0020    8.0830 N.am  307  MET307     -0.1976
     38  CA        83.9960   58.1360    6.6270 C.3   307  MET307      0.1605
     39  C         83.9540   59.5640    6.0920 C.2   307  MET307      0.2287
     40  O         83.2970   59.8480    5.0560 O.2   307  MET307     -0.2864
     41  CB        83.0200   57.3050    5.8080 C.3   307  MET307      0.0413
     42  CG        82.8200   55.9380    6.4110 C.3   307  MET307      0.0598
     43  SD        81.9090   54.8190    5.3540 S.3   307  MET307     -0.1393
     44  CE        80.2610   55.5440    5.3560 C.3   307  MET307      0.0692
     45  N         82.4360   62.2050    2.2390 N.3   311  MET311     -0.1245
     46  CA        81.3230   63.1380    2.4500 C.3   311  MET311      0.1570
     47  C         80.9730   64.0710    1.2760 C.2   311  MET311      0.2261
     48  O         79.9740   64.8040    1.3630 O.2   311  MET311     -0.2867
     49  CB        81.4260   63.8710    3.7600 C.3   311  MET311      0.0387
     50  CG        81.2370   62.9370    4.9240 C.3   311  MET311      0.0595
     51  SD        79.6140   62.0800    4.9380 S.3   311  MET311     -0.1393
     52  CE        80.1780   60.4320    5.3140 C.3   311  MET311      0.0692
     53  N         79.6290   62.8320   -0.9900 N.3   313  PHE313     -0.1227
     54  CA        78.4350   62.1330   -1.4140 C.3   313  PHE313      0.1736
     55  C         77.2100   62.6100   -0.7290 C.2   313  PHE313      0.2595
     56  O         76.1400   62.1490   -1.0520 O.2   313  PHE313     -0.2718
     57  CB        78.5810   60.6150   -1.2660 C.3   313  PHE313      0.0547
     58  CG        78.0030   60.0230    0.0040 C.ar  313  PHE313     -0.0202
     59  CD1       77.3240   58.8060   -0.0650 C.ar  313  PHE313     -0.0042
     60  CD2       78.1930   60.6150    1.2590 C.ar  313  PHE313     -0.0042
     61  CE1       76.8320   58.1800    1.0760 C.ar  313  PHE313     -0.0003
     62  CE2       77.6990   60.0080    2.4340 C.ar  313  PHE313     -0.0003
     63  CZ        77.0040   58.7830    2.3490 C.ar  313  PHE313     -0.0000
     64  N         77.3700   63.5370    0.2020 N.am  314  ASP314     -0.1974
     65  CA        76.2660   64.0540    0.9510 C.3   314  ASP314      0.1709
     66  C         75.3460   64.9320    0.0870 C.2   314  ASP314      0.2293
     67  O         74.3410   65.4330    0.5610 O.2   314  ASP314     -0.2864
     68  CB        76.7480   64.7920    2.2180 C.3   314  ASP314      0.1436
     69  CG        75.8210   64.5720    3.3990 C.2   314  ASP314      0.3671
     70  OD1       75.1310   63.5480    3.3950 O.co2 314  ASP314     -0.2456
     71  OD2       75.7810   65.3900    4.3480 O.co2 314  ASP314     -0.2456
     72  N         70.9370   61.4920    1.7060 N.3   401  THR401     -0.1203
     73  CA        71.8790   60.7040    2.4870 C.3   401  THR401      0.1994
     74  C         71.8040   61.2080    3.9600 C.2   401  THR401      0.2617
     75  O         72.6720   61.9370    4.4590 O.2   401  THR401     -0.2717
     76  CB        73.3310   60.8200    1.9240 C.3   401  THR401      0.1784
     77  OG1       73.6370   62.1960    1.7870 O.3   401  THR401     -0.2211
     78  CG2       73.4600   60.1500    0.5510 C.3   401  THR401      0.0376
     79  N         70.7210   60.8570    4.6190 N.am  402  LEU402     -0.1979
     80  CA        70.4610   61.4550    5.9100 C.3   402  LEU402      0.1596
     81  C         71.2180   60.8020    7.0420 C.2   402  LEU402      0.2287
     82  O         71.9190   61.4950    7.7760 O.2   402  LEU402     -0.2864
     83  CB        68.9620   61.4810    6.2240 C.3   402  LEU402      0.0297
     84  CG        68.4900   62.7330    6.9630 C.3   402  LEU402      0.0022
     85  CD1       68.9000   64.0640    6.2700 C.3   402  LEU402      0.0001
     86  CD2       67.0280   62.5990    7.0420 C.3   402  LEU402      0.0001
     87  N         73.6500   57.6690    8.8710 N.3   404  GLY404     -0.1225
     88  CA        74.4970   56.4700    8.8050 C.3   404  GLY404      0.1811
     89  C         73.8090   55.2750    9.4350 C.2   404  GLY404      0.2280
     90  O         74.1520   54.1470    9.1320 O.2   404  GLY404     -0.2866
     91  N         72.9260   52.1490    7.3700 N.3   407  LEU407     -0.1231
     92  CA        73.8540   50.9800    7.3240 C.3   407  LEU407      0.1693
     93  C         73.6170   49.8930    8.3860 C.2   407  LEU407      0.2592
     94  O         74.0140   48.7740    8.1940 O.2   407  LEU407     -0.2718
     95  CB        75.2940   51.4490    7.4370 C.3   407  LEU407      0.0284
     96  CG        75.8480   52.3080    6.3170 C.3   407  LEU407      0.0019
     97  CD1       77.2190   52.8870    6.6800 C.3   407  LEU407      0.0001
     98  CD2       75.9240   51.4460    5.1340 C.3   407  LEU407      0.0001
     99  N         73.0110   50.2390    9.5210 N.am  408  TYR408     -0.1976
    100  CA        72.7640   49.2650   10.6160 C.3   408  TYR408      0.1639
    101  C         71.4140   48.6560   10.4840 C.2   408  TYR408      0.2290
    102  O         71.1620   47.5670   11.0040 O.2   408  TYR408     -0.2864
    103  CB        72.9540   49.9030   12.0040 C.3   408  TYR408      0.0560
    104  CG        74.4130   50.1600   12.2050 C.ar  408  TYR408     -0.0198
    105  CD1       74.9590   51.3990   11.8860 C.ar  408  TYR408     -0.0009
    106  CD2       75.2870   49.1280   12.5780 C.ar  408  TYR408     -0.0009
    107  CE1       76.3350   51.6320   11.9790 C.ar  408  TYR408      0.0417
    108  CE2       76.6650   49.3450   12.6770 C.ar  408  TYR408      0.0417
    109  CZ        77.1780   50.6000   12.3740 C.ar  408  TYR408      0.1957
    110  OH        78.5320   50.8450   12.4510 O.3   408  TYR408     -0.2866
    111  N         71.3560   57.0840    2.6940 N.3   492  ALA492     -0.1245
    112  CA        72.7160   57.1580    3.2420 C.3   492  ALA492      0.1562
    113  C         73.4580   55.8440    3.0470 C.2   492  ALA492      0.2260
    114  O         74.6440   55.8310    2.8250 O.2   492  ALA492     -0.2867
    115  CB        72.6730   57.5150    4.6740 C.3   492  ALA492      0.0290
@<TRIPOS>BOND
     1    54    57    1
     2    54    53    1
     3    54    55    1
     4     4     3    2
     5    57    58    1
     6    56    55    2
     7    55    64   am
     8     1     2    1
     9     3     2    1
    10    59    58   ar
    11    59    61   ar
    12    58    60   ar
    13    66    67    2
    14    66    65    1
    15     2     5    1
    16    64    65    1
    17    78    76    1
    18    65    68    1
    19    61    63   ar
    20    60    62   ar
    21    47    48    2
    22    47    46    1
    23     5     6    1
    24    72    73    1
    25    77    76    1
    26    76    73    1
    27    68    69    1
    28    45    46    1
    29     6     7    1
    30    63    62   ar
    31    46    49    1
    32    73    74    1
    33   111   112    1
    34   114   113    2
    35   113   112    1
    36   112   115    1
    37    70    69   ar
    38    69    71   ar
    39     7     8    1
    40    49    50    1
    41    10    11    1
    42    74    75    2
    43    74    79   am
    44     8     9    1
    45    79    80    1
    46    50    51    1
    47    51    52    1
    48    40    39    2
    49    98    96    1
    50    11    14    1
    51    11    12    1
    52    43    44    1
    53    43    42    1
    54    14    15    1
    55    41    42    1
    56    41    38    1
    57    80    83    1
    58    80    81    1
    59    39    38    1
    60    12    13    2
    61    83    84    1
    62    85    84    1
    63    96    97    1
    64    96    95    1
    65    38    37    1
    66    15    17   ar
    67    15    16   ar
    68    84    86    1
    69    81    82    2
    70    92    91    1
    71    92    95    1
    72    92    93    1
    73    37    33   am
    74    34    33    2
    75    94    93    2
    76    25    24    1
    77    25    26    1
    78    93    99   am
    79    24    23    1
    80    33    32    1
    81    88    87    1
    82    88    89    1
    83    90    89    2
    84    99   100    1
    85    30    29    2
    86    23    22    1
    87    32    31    1
    88    32    35    1
    89    22    19    1
    90    29    31   am
    91    29    28    1
    92   101   100    1
    93   101   102    2
    94   100   103    1
    95    28    27    1
    96    36    35    1
    97    21    20    2
    98    19    18    1
    99    19    20    1
   100   105   107   ar
   101   105   104   ar
   102   107   109   ar
   103   103   104    1
   104   104   106   ar
   105   109   110    1
   106   109   108   ar
   107   106   108   ar
