@<TRIPOS>MOLECULE
tmp/3kqzD02.pdb
 128 119 0 0 0
SMALL
GASTEIGER

@<TRIPOS>ATOM
      1  N         65.3410   32.6590   22.5810 N.3   285  LYS285     -0.1245
      2  CA        66.7450   32.7530   22.9340 C.3   285  LYS285      0.1561
      3  C         66.8110   32.8230   24.4760 C.2   285  LYS285      0.2260
      4  O         66.1600   33.6860   25.0760 O.2   285  LYS285     -0.2867
      5  CB        67.3640   34.0050   22.3300 C.3   285  LYS285      0.0271
      6  CG        68.8640   34.1230   22.6700 C.3   285  LYS285      0.0035
      7  CD        69.3800   35.4480   22.2180 C.3   285  LYS285      0.0206
      8  CE        70.6890   35.7360   22.8380 C.3   285  LYS285      0.1093
      9  NZ        71.4170   36.9140   22.3200 N.3   285  LYS285     -0.1314
     10  N         74.7160   37.1000   29.1410 N.3   290  ASP290     -0.1239
     11  CA        75.6370   37.2080   28.0480 C.3   290  ASP290      0.1674
     12  C         76.7930   38.1310   28.3750 C.2   290  ASP290      0.2266
     13  O         76.6350   39.3720   28.3620 O.2   290  ASP290     -0.2867
     14  CB        74.9150   37.7310   26.8390 C.3   290  ASP290      0.1410
     15  CG        75.7590   37.6420   25.5880 C.2   290  ASP290      0.3668
     16  OD1       76.7780   36.9290   25.5420 O.co2 290  ASP290     -0.2456
     17  OD2       75.3540   38.2890   24.6180 O.co2 290  ASP290     -0.2456
     18  N         81.8680   41.9980   26.2320 N.3   297  LYS297     -0.1245
     19  CA        81.1610   43.2850   26.1620 C.3   297  LYS297      0.1561
     20  C         81.8790   44.3400   27.0070 C.2   297  LYS297      0.2260
     21  O         81.5960   44.5190   28.1930 O.2   297  LYS297     -0.2867
     22  CB        79.7010   43.1140   26.5880 C.3   297  LYS297      0.0271
     23  CG        78.9370   42.1590   25.7340 C.3   297  LYS297      0.0035
     24  CD        77.5750   41.9910   26.2100 C.3   297  LYS297      0.0206
     25  CE        76.8290   40.9560   25.4160 C.3   297  LYS297      0.1093
     26  NZ        76.2750   41.6380   24.2230 N.3   297  LYS297     -0.1314
     27  N         78.5740   51.4880   26.1190 N.3   301  GLY301     -0.1210
     28  CA        77.2130   51.1830   25.6650 C.3   301  GLY301      0.1956
     29  C         76.9330   49.7360   25.2460 C.2   301  GLY301      0.2613
     30  O         75.8800   49.4540   24.7010 O.2   301  GLY301     -0.2717
     31  N         77.8440   48.8030   25.5090 N.am  302  SER302     -0.1938
     32  CA        77.5070   47.4030   25.3090 C.3   302  SER302      0.2055
     33  C         76.6350   46.8700   26.4600 C.2   302  SER302      0.2642
     34  O         75.9660   45.8640   26.3100 O.2   302  SER302     -0.2714
     35  CB        78.7460   46.5540   25.1090 C.3   302  SER302      0.2130
     36  OG        79.7180   46.9240   26.0320 O.3   302  SER302     -0.2179
     37  N         76.6140   47.5820   27.5900 N.am  303  MET303     -0.1976
     38  CA        75.5690   47.3930   28.6390 C.3   303  MET303      0.1605
     39  C         75.6100   46.0030   29.2190 C.2   303  MET303      0.2287
     40  O         74.5890   45.2840   29.2600 O.2   303  MET303     -0.2864
     41  CB        74.1670   47.6420   28.0770 C.3   303  MET303      0.0413
     42  CG        73.9440   49.0710   27.5450 C.3   303  MET303      0.0598
     43  SD        72.2800   49.3520   26.9260 S.3   303  MET303     -0.1393
     44  CE        71.9560   47.8880   25.9200 C.3   303  MET303      0.0692
     45  N         72.7480   42.3530   30.7930 N.3   307  MET307     -0.1245
     46  CA        72.7560   41.1110   30.0120 C.3   307  MET307      0.1570
     47  C         72.0710   39.8990   30.6380 C.2   307  MET307      0.2261
     48  O         71.9970   38.8460   30.0180 O.2   307  MET307     -0.2867
     49  CB        74.1490   40.8280   29.4940 C.3   307  MET307      0.0387
     50  CG        74.5180   41.8910   28.4410 C.3   307  MET307      0.0595
     51  SD        73.4340   41.8370   26.9780 S.3   307  MET307     -0.1393
     52  CE        73.4150   43.5940   26.6500 C.3   307  MET307      0.0692
     53  N         69.1480   40.0530   30.6650 N.3   309  PHE309     -0.1227
     54  CA        67.9360   40.1500   29.8810 C.3   309  PHE309      0.1736
     55  C         68.0570   39.3310   28.6140 C.2   309  PHE309      0.2595
     56  O         67.1210   39.2820   27.7860 O.2   309  PHE309     -0.2718
     57  CB        67.5420   41.6110   29.6000 C.3   309  PHE309      0.0547
     58  CG        67.9540   42.1170   28.2500 C.ar  309  PHE309     -0.0202
     59  CD1       67.0760   42.8830   27.5060 C.ar  309  PHE309     -0.0042
     60  CD2       69.2310   41.8360   27.7190 C.ar  309  PHE309     -0.0042
     61  CE1       67.4450   43.3660   26.2320 C.ar  309  PHE309     -0.0003
     62  CE2       69.6050   42.2940   26.4550 C.ar  309  PHE309     -0.0003
     63  CZ        68.7190   43.0700   25.7080 C.ar  309  PHE309     -0.0000
     64  N         69.2010   38.6790   28.4680 N.am  310  ASP310     -0.1974
     65  CA        69.4960   38.0400   27.2290 C.3   310  ASP310      0.1709
     66  C         68.6870   36.7450   27.0570 C.2   310  ASP310      0.2293
     67  O         68.8070   36.0640   26.0420 O.2   310  ASP310     -0.2864
     68  CB        70.9890   37.8370   27.0680 C.3   310  ASP310      0.1436
     69  CG        71.4190   37.8080   25.6000 C.2   310  ASP310      0.3671
     70  OD1       70.7280   38.4160   24.7420 O.co2 310  ASP310     -0.2456
     71  OD2       72.4510   37.1810   25.2950 O.co2 310  ASP310     -0.2456
     72  N         80.3200   36.8740   21.0820 N.3   370  ASP370     -0.1239
     73  CA        79.1120   37.5970   21.4650 C.3   370  ASP370      0.1674
     74  C         77.9270   37.3640   20.4980 C.2   370  ASP370      0.2266
     75  O         76.8820   37.8440   20.6620 O.2   370  ASP370     -0.2867
     76  CB        79.3950   39.1030   21.5630 C.3   370  ASP370      0.1410
     77  CG        78.3500   39.8350   22.4080 C.2   370  ASP370      0.3668
     78  OD1       77.4100   39.1680   22.9160 O.co2 370  ASP370     -0.2456
     79  OD2       78.4900   41.0660   22.5940 O.co2 370  ASP370     -0.2456
     80  N         66.6020   38.3690   21.9240 N.3   397  THR397     -0.1203
     81  CA        67.3990   39.5750   22.1090 C.3   397  THR397      0.1994
     82  C         68.6470   39.3460   21.3040 C.2   397  THR397      0.2617
     83  O         69.6880   39.1140   21.8340 O.2   397  THR397     -0.2717
     84  CB        67.7430   39.8480   23.5660 C.3   397  THR397      0.1784
     85  OG1       68.2530   38.6770   24.1970 O.3   397  THR397     -0.2211
     86  CG2       66.5440   40.3220   24.3110 C.3   397  THR397      0.0376
     87  N         68.5320   39.3860   19.9840 N.am  398  LEU398     -0.1979
     88  CA        69.6250   38.9610   19.1200 C.3   398  LEU398      0.1596
     89  C         70.6850   40.0220   18.7300 C.2   398  LEU398      0.2287
     90  O         71.8850   39.7520   18.7950 O.2   398  LEU398     -0.2864
     91  CB        69.0580   38.2350   17.9050 C.3   398  LEU398      0.0297
     92  CG        70.0340   37.2010   17.3680 C.3   398  LEU398      0.0022
     93  CD1       70.1520   36.0430   18.3540 C.3   398  LEU398      0.0001
     94  CD2       69.6140   36.7100   16.0340 C.3   398  LEU398      0.0001
     95  N         72.2590   44.1300   18.8250 N.3   400  GLY400     -0.1210
     96  CA        72.2960   45.5450   19.2740 C.3   400  GLY400      0.1956
     97  C         71.8490   46.4890   18.1680 C.2   400  GLY400      0.2611
     98  O         71.2530   47.5280   18.4320 O.2   400  GLY400     -0.2717
     99  N         72.1290   46.1510   16.9100 N.am  401  ALA401     -0.1979
    100  CA        71.6920   47.0030   15.7880 C.3   401  ALA401      0.1597
    101  C         70.2040   47.4220   15.8050 C.2   401  ALA401      0.2287
    102  O         69.8630   48.4970   15.2970 O.2   401  ALA401     -0.2864
    103  CB        72.0270   46.3730   14.4680 C.3   401  ALA401      0.0319
    104  N         68.4860   48.6240   18.0990 N.3   403  LEU403     -0.1231
    105  CA        68.4620   49.9490   18.7000 C.3   403  LEU403      0.1693
    106  C         68.6980   51.0660   17.6780 C.2   403  LEU403      0.2592
    107  O         68.3130   52.2040   17.8970 O.2   403  LEU403     -0.2718
    108  CB        69.4950   50.0490   19.8200 C.3   403  LEU403      0.0284
    109  CG        69.1330   49.2510   21.0740 C.3   403  LEU403      0.0019
    110  CD1       70.2610   49.3100   22.1100 C.3   403  LEU403      0.0001
    111  CD2       67.8980   49.8390   21.6680 C.3   403  LEU403      0.0001
    112  N         69.2980   50.7430   16.5570 N.am  404  TYR404     -0.1976
    113  CA        69.6990   51.7740   15.6190 C.3   404  TYR404      0.1639
    114  C         68.7980   51.7560   14.4290 C.2   404  TYR404      0.2290
    115  O         68.8340   52.7150   13.6450 O.2   404  TYR404     -0.2864
    116  CB        71.1630   51.6090   15.1800 C.3   404  TYR404      0.0560
    117  CG        72.1470   52.0180   16.2480 C.ar  404  TYR404     -0.0198
    118  CD1       72.6230   51.0940   17.1780 C.ar  404  TYR404     -0.0009
    119  CD2       72.5870   53.3380   16.3590 C.ar  404  TYR404     -0.0009
    120  CE1       73.5300   51.4630   18.1830 C.ar  404  TYR404      0.0417
    121  CE2       73.4830   53.7240   17.3660 C.ar  404  TYR404      0.0417
    122  CZ        73.9540   52.7810   18.2730 C.ar  404  TYR404      0.1957
    123  OH        74.8300   53.1440   19.2850 O.3   404  TYR404     -0.2866
    124  N         65.8890   42.6300   20.7380 N.3   488  ALA488     -0.1245
    125  CA        67.0480   43.2370   21.4390 C.3   488  ALA488      0.1562
    126  C         66.7860   44.6820   21.8720 C.2   488  ALA488      0.2260
    127  O         67.2180   45.1120   22.9360 O.2   488  ALA488     -0.2867
    128  CB        68.2950   43.2030   20.5790 C.3   488  ALA488      0.0290
@<TRIPOS>BOND
     1   115   114    2
     2   114   113    1
     3   103   100    1
     4   116   113    1
     5   116   117    1
     6   102   101    2
     7   113   112    1
     8   100   101    1
     9   100    99    1
    10    94    92    1
    11   117   119   ar
    12   117   118   ar
    13   119   121   ar
    14   112   106   am
    15    99    97   am
    16   118   120   ar
    17   121   122   ar
    18    92    91    1
    19    92    93    1
    20   106   107    2
    21   106   105    1
    22    91    88    1
    23   104   105    1
    24    97    98    2
    25    97    96    1
    26   120   122   ar
    27   122   123    1
    28   105   108    1
    29    89    90    2
    30    89    88    1
    31    95    96    1
    32    88    87    1
    33   108   109    1
    34    87    82   am
    35    74    75    2
    36    74    73    1
    37   128   125    1
    38   124   125    1
    39   109   111    1
    40   109   110    1
    41    72    73    1
    42    82    83    2
    43    82    81    1
    44   125   126    1
    45    73    76    1
    46    76    77    1
    47   126   127    2
    48    80    81    1
    49    81    84    1
    50     7     6    1
    51     7     8    1
    52     9     8    1
    53     5     6    1
    54     5     2    1
    55    77    79   ar
    56    77    78   ar
    57     1     2    1
    58     2     3    1
    59    84    85    1
    60    84    86    1
    61    26    25    1
    62     3     4    2
    63    17    15   ar
    64    30    29    2
    65    70    69   ar
    66    35    32    1
    67    35    36    1
    68    29    31   am
    69    29    28    1
    70    71    69   ar
    71    32    31    1
    72    32    33    1
    73    25    24    1
    74    16    15   ar
    75    15    14    1
    76    69    68    1
    77    28    27    1
    78    63    61   ar
    79    63    62   ar
    80    23    24    1
    81    23    22    1
    82    44    43    1
    83    67    66    2
    84    19    18    1
    85    19    22    1
    86    19    20    1
    87    61    59   ar
    88    34    33    2
    89    62    60   ar
    90    33    37   am
    91    52    51    1
    92    14    11    1
    93    43    42    1
    94    51    50    1
    95    20    21    2
    96    66    65    1
    97    68    65    1
    98    65    64    1
    99    59    58   ar
   100    42    41    1
   101    37    38    1
   102    60    58   ar
   103    56    55    2
   104    11    12    1
   105    11    10    1
   106    41    38    1
   107    58    57    1
   108    13    12    2
   109    50    49    1
   110    64    55   am
   111    55    54    1
   112    38    39    1
   113    39    40    2
   114    49    46    1
   115    57    54    1
   116    54    53    1
   117    46    47    1
   118    46    45    1
   119    48    47    2
