@<TRIPOS>MOLECULE
tmp/3kqzE05.pdb
 92 90 0 0 0
SMALL
GASTEIGER

@<TRIPOS>ATOM
      1  N         92.2830   28.2230  -12.9520 N.3   128  LEU128     -0.1231
      2  CA        92.1810   26.7830  -12.6590 C.3   128  LEU128      0.1693
      3  C         90.9100   26.4750  -11.8500 C.2   128  LEU128      0.2592
      4  O         90.1830   25.5090  -12.1420 O.2   128  LEU128     -0.2718
      5  CB        93.4080   26.2830  -11.9400 C.3   128  LEU128      0.0284
      6  CG        94.7330   26.3000  -12.6890 C.3   128  LEU128      0.0019
      7  CD1       95.8880   25.9190  -11.7010 C.3   128  LEU128      0.0001
      8  CD2       94.6720   25.3500  -13.8580 C.3   128  LEU128      0.0001
      9  N         90.6120   27.3110  -10.8570 N.am  129  HIS129     -0.1962
     10  CA        89.3750   27.1190  -10.0540 C.3   129  HIS129      0.1787
     11  C         88.0810   27.2280  -10.8500 C.2   129  HIS129      0.2620
     12  O         87.0890   26.6860  -10.4780 O.2   129  HIS129     -0.2715
     13  CB        89.3260   28.0240   -8.8040 C.3   129  HIS129      0.0785
     14  CG        90.3400   27.6550   -7.7580 C.ar  129  HIS129      0.0821
     15  ND1       90.7960   28.5430   -6.8110 N.ar  129  HIS129     -0.2267
     16  CD2       91.0070   26.5000   -7.5370 C.ar  129  HIS129      0.1154
     17  CE1       91.7040   27.9500   -6.0540 C.ar  129  HIS129      0.1986
     18  NE2       91.8480   26.7080   -6.4700 N.ar  129  HIS129     -0.2212
     19  N         88.0980   27.9490  -11.9410 N.am  130  ASP130     -0.1957
     20  CA        86.9210   28.1420  -12.7260 C.3   130  ASP130      0.1840
     21  C         86.7870   27.2590  -13.9590 C.2   130  ASP130      0.2622
     22  O         85.9010   27.4470  -14.7210 O.2   130  ASP130     -0.2715
     23  CB        86.8250   29.5770  -13.1770 C.3   130  ASP130      0.1450
     24  CG        86.5680   30.5340  -12.0680 C.2   130  ASP130      0.3671
     25  OD1       86.5500   31.7380  -12.3330 O.co2 130  ASP130     -0.2456
     26  OD2       86.3830   30.1470  -10.9200 O.co2 130  ASP130     -0.2456
     27  N         87.6540   26.3000  -14.1540 N.am  131  ASN131     -0.1958
     28  CA        87.6130   25.4730  -15.3290 C.3   131  ASN131      0.1819
     29  C         87.9080   24.0100  -14.9960 C.2   131  ASN131      0.2621
     30  O         88.8640   23.6970  -14.3620 O.2   131  ASN131     -0.2715
     31  CB        88.6040   26.0030  -16.3840 C.3   131  ASN131      0.1195
     32  CG        88.1490   27.2760  -17.0620 C.2   131  ASN131      0.2630
     33  OD1       87.5190   27.2310  -18.0630 O.2   131  ASN131     -0.2716
     34  ND2       88.4800   28.3930  -16.5210 N.am  131  ASN131     -0.0877
     35  N         87.0660   23.1040  -15.4300 N.am  132  LYS132     -0.1977
     36  CA        87.3540   21.6910  -15.2960 C.3   132  LYS132      0.1596
     37  C         88.3770   21.2940  -16.3360 C.2   132  LYS132      0.2287
     38  O         88.1490   21.4430  -17.4780 O.2   132  LYS132     -0.2864
     39  CB        86.0950   20.8570  -15.4400 C.3   132  LYS132      0.0298
     40  CG        85.0580   21.1270  -14.3680 C.3   132  LYS132      0.0038
     41  CD        85.6320   21.1080  -12.9580 C.3   132  LYS132      0.0206
     42  CE        84.5240   20.9780  -11.9250 C.3   132  LYS132      0.1093
     43  NZ        84.9910   21.3100  -10.5540 N.3   132  LYS132     -0.1314
     44  N         96.5660   26.7960   -5.3500 N.3   160  TYR160     -0.1241
     45  CA        95.6460   25.9070   -6.0220 C.3   160  TYR160      0.1605
     46  C         94.9320   24.9870   -5.0660 C.2   160  TYR160      0.2264
     47  O         93.7290   24.8100   -5.1760 O.2   160  TYR160     -0.2867
     48  CB        96.3920   25.0970   -7.0610 C.3   160  TYR160      0.0534
     49  CG        95.5570   24.2890   -8.0100 C.ar  160  TYR160     -0.0201
     50  CD1       94.2160   24.6460   -8.3360 C.ar  160  TYR160     -0.0009
     51  CD2       96.1110   23.1820   -8.6070 C.ar  160  TYR160     -0.0009
     52  CE1       93.4660   23.8710   -9.2660 C.ar  160  TYR160      0.0417
     53  CE2       95.3850   22.4000   -9.5210 C.ar  160  TYR160      0.0417
     54  CZ        94.0810   22.7390   -9.8370 C.ar  160  TYR160      0.1957
     55  OH        93.4580   21.9250  -10.7210 O.3   160  TYR160     -0.2866
     56  N         92.8740   23.5030   -2.1950 N.3   162  THR162     -0.1218
     57  CA        91.8290   24.0800   -1.3680 C.3   162  THR162      0.1862
     58  C         91.6540   23.2530   -0.1140 C.2   162  THR162      0.2287
     59  O         91.5160   22.0290   -0.2130 O.2   162  THR162     -0.2866
     60  CB        90.5510   24.2060   -2.1460 C.3   162  THR162      0.1770
     61  OG1       90.7990   25.1340   -3.1950 O.3   162  THR162     -0.2211
     62  CG2       89.4630   24.7710   -1.3030 C.3   162  THR162      0.0375
     63  N         89.7080   21.7390    2.7490 N.3   164  GLU164     -0.1245
     64  CA        88.2950   21.5010    2.9330 C.3   164  GLU164      0.1567
     65  C         88.0500   20.6530    4.1650 C.2   164  GLU164      0.2260
     66  O         87.0230   20.0010    4.2870 O.2   164  GLU164     -0.2867
     67  CB        87.7150   20.8210    1.7080 C.3   164  GLU164      0.0388
     68  CG        87.6600   21.7210    0.5110 C.3   164  GLU164      0.1160
     69  CD        86.6510   21.2380   -0.5320 C.2   164  GLU164      0.3649
     70  OE1       86.7940   20.1120   -1.1080 O.co2 164  GLU164     -0.2457
     71  OE2       85.6830   22.0060   -0.7580 O.co2 164  GLU164     -0.2457
     72  N         87.7680   18.3440   -8.8200 N.3   169  GLU169     -0.1231
     73  CA        88.5870   17.6560   -9.7900 C.3   169  GLU169      0.1699
     74  C         89.7560   18.5660  -10.2530 C.2   169  GLU169      0.2592
     75  O         89.5890   19.4850  -11.0550 O.2   169  GLU169     -0.2718
     76  CB        87.7340   17.1820  -10.9680 C.3   169  GLU169      0.0402
     77  CG        88.5880   16.5980  -12.0950 C.3   169  GLU169      0.1161
     78  CD        87.8390   16.4160  -13.3940 C.2   169  GLU169      0.3649
     79  OE1       86.5930   16.4820  -13.3920 O.co2 169  GLU169     -0.2457
     80  OE2       88.5150   16.2260  -14.4310 O.co2 169  GLU169     -0.2457
     81  N         90.9420   18.2870   -9.7130 N.am  170  TYR170     -0.1976
     82  CA        92.1710   18.9950   -9.9520 C.3   170  TYR170      0.1639
     83  C         92.8350   18.5000  -11.2430 C.2   170  TYR170      0.2290
     84  O         92.5890   17.3980  -11.6900 O.2   170  TYR170     -0.2864
     85  CB        93.1180   18.7260   -8.7820 C.3   170  TYR170      0.0560
     86  CG        92.7440   19.4020   -7.5180 C.ar  170  TYR170     -0.0198
     87  CD1       93.4030   20.5830   -7.1370 C.ar  170  TYR170     -0.0009
     88  CD2       91.7260   18.9000   -6.6760 C.ar  170  TYR170     -0.0009
     89  CE1       93.0600   21.2690   -5.9810 C.ar  170  TYR170      0.0417
     90  CE2       91.3970   19.5970   -5.4800 C.ar  170  TYR170      0.0417
     91  CZ        92.0860   20.7800   -5.1560 C.ar  170  TYR170      0.1957
     92  OH        91.8620   21.5070   -4.0020 O.3   170  TYR170     -0.2866
@<TRIPOS>BOND
     1    33    32    2
     2    38    37    2
     3    32    34   am
     4    32    31    1
     5    31    28    1
     6    37    36    1
     7    39    36    1
     8    39    40    1
     9    35    36    1
    10    35    29   am
    11    28    29    1
    12    28    27    1
    13    29    30    2
    14    22    21    2
    15    80    78   ar
    16    40    41    1
    17    27    21   am
    18    21    20    1
    19     8     6    1
    20    78    79   ar
    21    78    77    1
    22    23    20    1
    23    23    24    1
    24    41    42    1
    25     1     2    1
    26    20    19    1
    27     6     5    1
    28     6     7    1
    29     2     5    1
    30     2     3    1
    31    25    24   ar
    32     4     3    2
    33    77    76    1
    34    24    26   ar
    35    19    11   am
    36    42    43    1
    37     3     9   am
    38    84    83    2
    39    83    82    1
    40    75    74    2
    41    76    73    1
    42     9    10    1
    43    11    12    2
    44    11    10    1
    45    55    54    1
    46    74    73    1
    47    74    81   am
    48    10    13    1
    49    82    81    1
    50    82    85    1
    51    54    53   ar
    52    54    52   ar
    53    73    72    1
    54    53    51   ar
    55    52    50   ar
    56    13    14    1
    57    85    86    1
    58    51    49   ar
    59    50    49   ar
    60    49    48    1
    61    14    16   ar
    62    14    15   ar
    63    16    18   ar
    64    86    87   ar
    65    86    88   ar
    66    87    89   ar
    67    48    45    1
    68    15    17   ar
    69    88    90   ar
    70    18    17   ar
    71    45    44    1
    72    45    46    1
    73    89    91   ar
    74    90    91   ar
    75    47    46    2
    76    91    92    1
    77    61    60    1
    78    56    57    1
    79    60    57    1
    80    60    62    1
    81    57    58    1
    82    70    69   ar
    83    71    69   ar
    84    69    68    1
    85    59    58    2
    86    68    67    1
    87    67    64    1
    88    63    64    1
    89    64    65    1
    90    65    66    2
