@<TRIPOS>MOLECULE
tmp/3kr0B01.pdb
 131 121 0 0 0
SMALL
GASTEIGER

@<TRIPOS>ATOM
      1  N         36.4950   59.2870  -25.0750 N.3    22  TYR22      -0.1241
      2  CA        35.0910   58.9540  -25.3010 C.3    22  TYR22       0.1605
      3  C         34.3670   58.6660  -23.9810 C.2    22  TYR22       0.2264
      4  O         33.2770   59.1960  -23.7210 O.2    22  TYR22      -0.2867
      5  CB        34.9600   57.7570  -26.2470 C.3    22  TYR22       0.0534
      6  CG        33.5260   57.3790  -26.4950 C.ar   22  TYR22      -0.0201
      7  CD1       32.6850   58.2250  -27.2020 C.ar   22  TYR22      -0.0009
      8  CD2       32.9980   56.1910  -25.9990 C.ar   22  TYR22      -0.0009
      9  CE1       31.3570   57.9020  -27.4260 C.ar   22  TYR22       0.0417
     10  CE2       31.6570   55.8530  -26.2180 C.ar   22  TYR22       0.0417
     11  CZ        30.8430   56.7210  -26.9400 C.ar   22  TYR22       0.1957
     12  OH        29.5130   56.4230  -27.1760 O.3    22  TYR22      -0.2866
     13  N         31.3030   61.0500  -22.2080 N.3    26  ASN26      -0.1225
     14  CA        29.9210   60.5580  -22.1730 C.3    26  ASN26       0.1785
     15  C         29.4580   59.8280  -20.9230 C.2    26  ASN26       0.2597
     16  O         28.2550   59.7670  -20.6300 O.2    26  ASN26      -0.2718
     17  CB        29.6710   59.6620  -23.3750 C.3    26  ASN26       0.1169
     18  CG        29.6980   60.4320  -24.6560 C.2    26  ASN26       0.2627
     19  OD1       28.7290   61.1130  -25.0000 O.2    26  ASN26      -0.2716
     20  ND2       30.8230   60.3660  -25.3590 N.am   26  ASN26      -0.0877
     21  N         30.4090   59.2690  -20.1900 N.am   27  TYR27      -0.1976
     22  CA        30.0550   58.4900  -19.0300 C.3    27  TYR27       0.1639
     23  C         30.6520   59.0000  -17.7090 C.2    27  TYR27       0.2290
     24  O         30.3020   58.5060  -16.6430 O.2    27  TYR27      -0.2864
     25  CB        30.3380   57.0240  -19.3160 C.3    27  TYR27       0.0560
     26  CG        29.5640   56.5950  -20.5350 C.ar   27  TYR27      -0.0198
     27  CD1       30.1980   56.3740  -21.7530 C.ar   27  TYR27      -0.0009
     28  CD2       28.1850   56.4780  -20.4860 C.ar   27  TYR27      -0.0009
     29  CE1       29.4790   56.0070  -22.8740 C.ar   27  TYR27       0.0417
     30  CE2       27.4590   56.1110  -21.5980 C.ar   27  TYR27       0.0417
     31  CZ        28.1060   55.8780  -22.7920 C.ar   27  TYR27       0.1957
     32  OH        27.3620   55.5130  -23.8970 O.3    27  TYR27      -0.2866
     33  N         27.2650   64.2700  -17.7610 N.3    31  ARG31      -0.1245
     34  CA        26.4010   63.2780  -18.4000 C.3    31  ARG31       0.1563
     35  C         26.3880   61.9900  -17.5900 C.2    31  ARG31       0.2260
     36  O         25.3610   61.3190  -17.4990 O.2    31  ARG31      -0.2867
     37  CB        26.8270   62.9980  -19.8490 C.3    31  ARG31       0.0307
     38  CG        26.5430   64.1450  -20.8140 C.3    31  ARG31       0.0489
     39  CD        26.7840   63.7800  -22.2790 C.3    31  ARG31       0.2205
     40  NE        26.3860   64.8920  -23.1370 N.pl3  31  ARG31      -0.0865
     41  CZ        26.3690   64.8620  -24.4630 C.cat  31  ARG31       0.5346
     42  NH1       26.7380   63.7630  -25.1090 N.pl3  31  ARG31       0.1354
     43  NH2       25.9820   65.9400  -25.1340 N.pl3  31  ARG31       0.1354
     44  N         20.3550   61.7630  -18.5300 N.3    40  VAL40      -0.1245
     45  CA        20.2560   60.8490  -19.6500 C.3    40  VAL40       0.1561
     46  C         20.6290   59.4650  -19.1730 C.2    40  VAL40       0.2260
     47  O         19.9020   58.4990  -19.4190 O.2    40  VAL40      -0.2867
     48  CB        21.1430   61.2910  -20.8670 C.3    40  VAL40       0.0252
     49  CG1       22.6000   61.4770  -20.4540 C.3    40  VAL40       0.0019
     50  CG2       21.0190   60.2950  -22.0370 C.3    40  VAL40       0.0019
     51  N         18.3730   56.1660  -19.7600 N.3    44  LYS44      -0.1245
     52  CA        18.8130   54.9840  -20.5070 C.3    44  LYS44       0.1561
     53  C         18.7110   53.6960  -19.6920 C.2    44  LYS44       0.2260
     54  O         18.2140   52.6780  -20.1890 O.2    44  LYS44      -0.2867
     55  CB        20.2500   55.1400  -21.0050 C.3    44  LYS44       0.0271
     56  CG        20.4650   56.1180  -22.1470 C.3    44  LYS44       0.0035
     57  CD        21.8920   55.9820  -22.7060 C.3    44  LYS44       0.0206
     58  CE        22.9260   56.7400  -21.8720 C.3    44  LYS44       0.1093
     59  NZ        24.3150   56.5910  -22.4180 N.3    44  LYS44      -0.1314
     60  N         24.1970   53.7190  -29.7090 N.3   169  PHE169     -0.1241
     61  CA        25.0250   54.7430  -30.3260 C.3   169  PHE169      0.1605
     62  C         26.0420   54.1200  -31.2910 C.2   169  PHE169      0.2264
     63  O         27.1770   54.5870  -31.4030 O.2   169  PHE169     -0.2867
     64  CB        25.7230   55.5650  -29.2460 C.3   169  PHE169      0.0534
     65  CG        24.7820   56.1070  -28.2100 C.ar  169  PHE169     -0.0203
     66  CD1       24.5170   55.3930  -27.0450 C.ar  169  PHE169     -0.0042
     67  CD2       24.1420   57.3110  -28.4010 C.ar  169  PHE169     -0.0042
     68  CE1       23.6350   55.8770  -26.1010 C.ar  169  PHE169     -0.0003
     69  CE2       23.2590   57.8030  -27.4530 C.ar  169  PHE169     -0.0003
     70  CZ        23.0050   57.0790  -26.3030 C.ar  169  PHE169     -0.0000
     71  N         26.3630   56.3430  -35.8080 N.3   173  ALA173     -0.1245
     72  CA        27.6790   56.9280  -35.5480 C.3   173  ALA173      0.1562
     73  C         28.7380   56.3990  -36.5090 C.2   173  ALA173      0.2260
     74  O         29.8670   56.8890  -36.5270 O.2   173  ALA173     -0.2867
     75  CB        28.0940   56.6810  -34.1100 C.3   173  ALA173      0.0290
     76  N         21.7090   58.4450  -30.7850 N.3   203  ALA203     -0.1245
     77  CA        21.5030   59.8980  -30.8810 C.3   203  ALA203      0.1562
     78  C         20.4200   60.3420  -31.8710 C.2   203  ALA203      0.2260
     79  O         20.2680   59.7710  -32.9510 O.2   203  ALA203     -0.2867
     80  CB        22.8190   60.5890  -31.2190 C.3   203  ALA203      0.0290
     81  N         21.8570   64.1890  -34.4920 N.3   206  GLU206     -0.1245
     82  CA        23.2680   64.4420  -34.2390 C.3   206  GLU206      0.1567
     83  C         24.0840   64.3310  -35.5200 C.2   206  GLU206      0.2260
     84  O         23.8750   63.4230  -36.3270 O.2   206  GLU206     -0.2867
     85  CB        23.8080   63.4470  -33.2040 C.3   206  GLU206      0.0388
     86  CG        25.2780   63.6330  -32.8570 C.3   206  GLU206      0.1160
     87  CD        25.7850   62.6050  -31.8660 C.2   206  GLU206      0.3649
     88  OE1       25.4670   62.7230  -30.6540 O.co2 206  GLU206     -0.2457
     89  OE2       26.5200   61.6920  -32.3020 O.co2 206  GLU206     -0.2457
     90  N         30.4280   64.2240  -33.0480 N.3   209  TYR209     -0.1241
     91  CA        30.7730   64.0660  -31.6420 C.3   209  TYR209      0.1605
     92  C         32.2730   63.9000  -31.5530 C.2   209  TYR209      0.2264
     93  O         32.9090   63.4620  -32.5140 O.2   209  TYR209     -0.2867
     94  CB        30.0380   62.8780  -31.0040 C.3   209  TYR209      0.0534
     95  CG        30.5590   61.4990  -31.3830 C.ar  209  TYR209     -0.0201
     96  CD1       31.5340   60.8630  -30.6190 C.ar  209  TYR209     -0.0009
     97  CD2       30.0500   60.8180  -32.4800 C.ar  209  TYR209     -0.0009
     98  CE1       32.0010   59.5950  -30.9580 C.ar  209  TYR209      0.0417
     99  CE2       30.5110   59.5550  -32.8250 C.ar  209  TYR209      0.0417
    100  CZ        31.4810   58.9470  -32.0630 C.ar  209  TYR209      0.1957
    101  OH        31.9350   57.6890  -32.4130 O.3   209  TYR209     -0.2866
    102  N         17.5890   66.0630  -24.9010 N.3   245  MET245     -0.1245
    103  CA        18.7710   66.4730  -24.1630 C.3   245  MET245      0.1570
    104  C         18.5790   67.8460  -23.5170 C.2   245  MET245      0.2261
    105  O         18.2710   68.8120  -24.2040 O.2   245  MET245     -0.2867
    106  CB        19.9930   66.4670  -25.0730 C.3   245  MET245      0.0387
    107  CG        21.2940   66.4160  -24.3050 C.3   245  MET245      0.0595
    108  SD        21.4860   64.8400  -23.4550 S.3   245  MET245     -0.1393
    109  CE        21.9100   63.7410  -24.8020 C.3   245  MET245      0.0692
    110  N         29.3830   67.0050  -28.4300 N.3   254  ASP254     -0.1239
    111  CA        28.6080   66.6590  -29.6170 C.3   254  ASP254      0.1674
    112  C         27.4800   67.6640  -29.8400 C.2   254  ASP254      0.2266
    113  O         27.3990   68.6740  -29.1530 O.2   254  ASP254     -0.2867
    114  CB        28.0750   65.2200  -29.5450 C.3   254  ASP254      0.1410
    115  CG        27.2360   64.9610  -28.3090 C.2   254  ASP254      0.3668
    116  OD1       27.2910   63.8180  -27.7840 O.co2 254  ASP254     -0.2456
    117  OD2       26.5230   65.8960  -27.8670 O.co2 254  ASP254     -0.2456
    118  N         24.2330   66.3990  -30.3330 N.3   256  VAL256     -0.1245
    119  CA        23.0430   65.5780  -30.1220 C.3   256  VAL256      0.1561
    120  C         21.9230   66.4430  -29.5350 C.2   256  VAL256      0.2260
    121  O         22.1880   67.3560  -28.7530 O.2   256  VAL256     -0.2867
    122  CB        23.3710   64.3800  -29.1900 C.3   256  VAL256      0.0252
    123  CG1       23.7700   64.8790  -27.8240 C.3   256  VAL256      0.0019
    124  CG2       22.1990   63.4140  -29.0830 C.3   256  VAL256      0.0019
    125  N         17.8000   61.5110  -27.5660 N.3   259  VAL259     -0.1245
    126  CA        18.2630   60.1230  -27.5400 C.3   259  VAL259      0.1561
    127  C         17.0170   59.2840  -27.7020 C.2   259  VAL259      0.2260
    128  O         15.9680   59.6250  -27.1470 O.2   259  VAL259     -0.2867
    129  CB        18.8980   59.7060  -26.1770 C.3   259  VAL259      0.0252
    130  CG1       19.1700   58.2050  -26.1590 C.3   259  VAL259      0.0019
    131  CG2       20.1700   60.4840  -25.8640 C.3   259  VAL259      0.0019
@<TRIPOS>BOND
     1    74    73    2
     2    73    72    1
     3    84    83    2
     4    71    72    1
     5    72    75    1
     6    83    82    1
     7    81    82    1
     8    82    85    1
     9    85    86    1
    10    90    91    1
    11    79    78    2
    12    86    87    1
    13    99    97   ar
    14    99   100   ar
    15    93    92    2
    16    97    95   ar
    17   101   100    1
    18    89    87   ar
    19   100    98   ar
    20    78    77    1
    21    87    88   ar
    22    91    92    1
    23    91    94    1
    24    63    62    2
    25    95    94    1
    26    95    96   ar
    27    62    61    1
    28    80    77    1
    29    98    96   ar
    30    77    76    1
    31   118   119    1
    32    61    60    1
    33    61    64    1
    34   119   120    1
    35   119   122    1
    36   112   111    1
    37   112   113    2
    38   111   114    1
    39   111   110    1
    40   114   115    1
    41   120   121    2
    42    64    65    1
    43   122   124    1
    44   122   123    1
    45    67    65   ar
    46    67    69   ar
    47   115   117   ar
    48   115   116   ar
    49    65    66   ar
    50   127   126    1
    51   127   128    2
    52   125   126    1
    53   126   129    1
    54    69    70   ar
    55     9     7   ar
    56     9    11   ar
    57     7     6   ar
    58    12    11    1
    59    66    68   ar
    60    11    10   ar
    61     6     5    1
    62     6     8   ar
    63    70    68   ar
    64     5     2    1
    65    10     8   ar
    66   129   130    1
    67   129   131    1
    68    20    18   am
    69     2     1    1
    70     2     3    1
    71    43    41    1
    72    42    41    1
    73   106   107    1
    74   106   103    1
    75    19    18    2
    76   102   103    1
    77   109   108    1
    78    18    17    1
    79    41    40    2
    80   107   108    1
    81   105   104    2
    82   103   104    1
    83     3     4    2
    84    32    31    1
    85    17    14    1
    86    40    39    1
    87    29    31   ar
    88    29    27   ar
    89    31    30   ar
    90    57    56    1
    91    57    58    1
    92    59    58    1
    93    39    38    1
    94    13    14    1
    95    14    15    1
    96    56    55    1
    97    50    48    1
    98    27    26   ar
    99    30    28   ar
   100    55    52    1
   101    15    16    2
   102    15    21   am
   103    48    49    1
   104    48    45    1
   105    38    37    1
   106    26    28   ar
   107    26    25    1
   108    52    51    1
   109    52    53    1
   110    21    22    1
   111    54    53    2
   112    37    34    1
   113    45    46    1
   114    45    44    1
   115    47    46    2
   116    25    22    1
   117    22    23    1
   118    34    33    1
   119    34    35    1
   120    23    24    2
   121    35    36    2
