@<TRIPOS>MOLECULE
tmp/3kr2B01.pdb
 126 117 0 0 0
SMALL
GASTEIGER

@<TRIPOS>ATOM
      1  N         36.4870   59.3730  -24.9340 N.3    22  TYR22      -0.1241
      2  CA        35.0910   59.0650  -25.1930 C.3    22  TYR22       0.1605
      3  C         34.3540   58.7230  -23.8950 C.2    22  TYR22       0.2264
      4  O         33.2520   59.2230  -23.6520 O.2    22  TYR22      -0.2867
      5  CB        34.9830   57.9210  -26.1920 C.3    22  TYR22       0.0534
      6  CG        33.5780   57.4570  -26.4190 C.ar   22  TYR22      -0.0201
      7  CD1       32.7200   58.1770  -27.2320 C.ar   22  TYR22      -0.0009
      8  CD2       33.1050   56.2940  -25.8220 C.ar   22  TYR22      -0.0009
      9  CE1       31.4200   57.7610  -27.4580 C.ar   22  TYR22       0.0417
     10  CE2       31.8000   55.8650  -26.0350 C.ar   22  TYR22       0.0417
     11  CZ        30.9640   56.6060  -26.8580 C.ar   22  TYR22       0.1957
     12  OH        29.6680   56.1990  -27.0900 O.3    22  TYR22      -0.2866
     13  N         31.3170   61.0980  -22.1250 N.3    26  ASN26      -0.1225
     14  CA        29.9440   60.5980  -22.1160 C.3    26  ASN26       0.1785
     15  C         29.4900   59.8660  -20.8550 C.2    26  ASN26       0.2597
     16  O         28.2890   59.8130  -20.5590 O.2    26  ASN26      -0.2718
     17  CB        29.7290   59.6810  -23.3100 C.3    26  ASN26       0.1169
     18  CG        29.8080   60.4170  -24.6210 C.2    26  ASN26       0.2627
     19  OD1       28.8330   61.0320  -25.0470 O.2    26  ASN26      -0.2716
     20  ND2       30.9710   60.3640  -25.2720 N.am   26  ASN26      -0.0877
     21  N         30.4370   59.2860  -20.1240 N.am   27  TYR27      -0.1976
     22  CA        30.0760   58.4820  -18.9730 C.3    27  TYR27       0.1639
     23  C         30.7050   58.9420  -17.6350 C.2    27  TYR27       0.2290
     24  O         30.5360   58.2940  -16.6170 O.2    27  TYR27      -0.2864
     25  CB        30.3170   57.0040  -19.2860 C.3    27  TYR27       0.0560
     26  CG        29.5640   56.6080  -20.5270 C.ar   27  TYR27      -0.0198
     27  CD1       30.2240   56.4020  -21.7330 C.ar   27  TYR27      -0.0009
     28  CD2       28.1820   56.5120  -20.5170 C.ar   27  TYR27      -0.0009
     29  CE1       29.5370   56.0730  -22.8810 C.ar   27  TYR27       0.0417
     30  CE2       27.4740   56.1900  -21.6780 C.ar   27  TYR27       0.0417
     31  CZ        28.1660   55.9670  -22.8570 C.ar   27  TYR27       0.1957
     32  OH        27.4930   55.6290  -24.0170 O.3    27  TYR27      -0.2866
     33  N         27.3020   64.1310  -17.6580 N.3    31  ARG31      -0.1245
     34  CA        26.4600   63.0920  -18.2540 C.3    31  ARG31       0.1563
     35  C         26.4780   61.7860  -17.4520 C.2    31  ARG31       0.2260
     36  O         25.4910   61.0470  -17.4380 O.2    31  ARG31      -0.2867
     37  CB        26.8350   62.8330  -19.7190 C.3    31  ARG31       0.0307
     38  CG        26.5530   64.0270  -20.6260 C.3    31  ARG31       0.0489
     39  CD        26.7710   63.7300  -22.1030 C.3    31  ARG31       0.2205
     40  NE        26.3230   64.8480  -22.9240 N.pl3  31  ARG31      -0.0865
     41  CZ        26.4230   64.8910  -24.2460 C.cat  31  ARG31       0.5346
     42  NH1       26.9540   63.8630  -24.8940 N.pl3  31  ARG31       0.1354
     43  NH2       25.9920   65.9580  -24.9130 N.pl3  31  ARG31       0.1354
     44  N         20.2880   61.7800  -18.5020 N.3    40  VAL40      -0.1245
     45  CA        20.2660   60.8500  -19.6100 C.3    40  VAL40       0.1561
     46  C         20.7010   59.4570  -19.1540 C.2    40  VAL40       0.2260
     47  O         20.0950   58.4520  -19.5330 O.2    40  VAL40      -0.2867
     48  CB        21.1390   61.3580  -20.7850 C.3    40  VAL40       0.0252
     49  CG1       22.6250   61.3540  -20.3960 C.3    40  VAL40       0.0019
     50  CG2       20.9130   60.4970  -22.0200 C.3    40  VAL40       0.0019
     51  N         18.3260   56.1100  -19.7920 N.3    44  LYS44      -0.1245
     52  CA        18.7600   54.8920  -20.5070 C.3    44  LYS44       0.1561
     53  C         18.6120   53.6050  -19.6690 C.2    44  LYS44       0.2260
     54  O         17.9320   52.6590  -20.0930 O.2    44  LYS44      -0.2867
     55  CB        20.2050   55.0180  -20.9850 C.3    44  LYS44       0.0271
     56  CG        20.4260   56.0770  -22.0460 C.3    44  LYS44       0.0035
     57  CD        21.8420   55.9830  -22.6150 C.3    44  LYS44       0.0206
     58  CE        22.8670   56.6300  -21.6910 C.3    44  LYS44       0.1093
     59  NZ        24.2300   56.2150  -22.0780 N.3    44  LYS44      -0.1314
     60  N         24.2130   53.6750  -29.6450 N.3   169  PHE169     -0.1241
     61  CA        25.0290   54.6970  -30.2980 C.3   169  PHE169      0.1605
     62  C         26.0390   54.1330  -31.2880 C.2   169  PHE169      0.2264
     63  O         27.1160   54.6980  -31.4640 O.2   169  PHE169     -0.2867
     64  CB        25.7620   55.5240  -29.2480 C.3   169  PHE169      0.0534
     65  CG        24.8560   56.1640  -28.2490 C.ar  169  PHE169     -0.0203
     66  CD1       24.7760   55.6630  -26.9450 C.ar  169  PHE169     -0.0042
     67  CD2       24.0750   57.2470  -28.5970 C.ar  169  PHE169     -0.0042
     68  CE1       23.9320   56.2410  -26.0150 C.ar  169  PHE169     -0.0003
     69  CE2       23.2190   57.8380  -27.6630 C.ar  169  PHE169     -0.0003
     70  CZ        23.1560   57.3280  -26.3620 C.ar  169  PHE169     -0.0000
     71  N         21.7040   58.4700  -30.8090 N.3   203  ALA203     -0.1245
     72  CA        21.5680   59.9320  -30.7880 C.3   203  ALA203      0.1562
     73  C         20.5290   60.4000  -31.8120 C.2   203  ALA203      0.2260
     74  O         20.4650   59.8570  -32.9140 O.2   203  ALA203     -0.2867
     75  CB        22.9000   60.5620  -31.0870 C.3   203  ALA203      0.0290
     76  N         21.8810   64.2840  -34.4520 N.3   206  GLU206     -0.1245
     77  CA        23.2840   64.5790  -34.2060 C.3   206  GLU206      0.1567
     78  C         24.1210   64.4890  -35.4860 C.2   206  GLU206      0.2260
     79  O         23.9360   63.5660  -36.2830 O.2   206  GLU206     -0.2867
     80  CB        23.8360   63.5960  -33.1950 C.3   206  GLU206      0.0388
     81  CG        25.3250   63.6800  -33.0050 C.3   206  GLU206      0.1160
     82  CD        25.7720   62.8150  -31.8440 C.2   206  GLU206      0.3649
     83  OE1       25.7210   63.2890  -30.6970 O.co2 206  GLU206     -0.2457
     84  OE2       26.1650   61.6610  -32.0800 O.co2 206  GLU206     -0.2457
     85  N         30.4450   64.2360  -33.0020 N.3   209  TYR209     -0.1241
     86  CA        30.8420   64.1290  -31.6100 C.3   209  TYR209      0.1605
     87  C         32.3460   63.9690  -31.5520 C.2   209  TYR209      0.2264
     88  O         32.9800   63.6530  -32.5610 O.2   209  TYR209     -0.2867
     89  CB        30.1460   62.9660  -30.8900 C.3   209  TYR209      0.0534
     90  CG        30.6560   61.5810  -31.2430 C.ar  209  TYR209     -0.0201
     91  CD1       31.5030   60.8860  -30.3810 C.ar  209  TYR209     -0.0009
     92  CD2       30.2740   60.9560  -32.4240 C.ar  209  TYR209     -0.0009
     93  CE1       31.9610   59.6110  -30.6940 C.ar  209  TYR209      0.0417
     94  CE2       30.7260   59.6770  -32.7450 C.ar  209  TYR209      0.0417
     95  CZ        31.5630   59.0090  -31.8750 C.ar  209  TYR209      0.1957
     96  OH        32.0080   57.7400  -32.1970 O.3   209  TYR209     -0.2866
     97  N         17.5750   66.2770  -24.8370 N.3   245  MET245     -0.1245
     98  CA        18.7580   66.6520  -24.0820 C.3   245  MET245      0.1570
     99  C         18.6040   68.0210  -23.4150 C.2   245  MET245      0.2261
    100  O         18.3700   69.0260  -24.0800 O.2   245  MET245     -0.2867
    101  CB        19.9940   66.6280  -24.9730 C.3   245  MET245      0.0387
    102  CG        21.2980   66.4940  -24.1950 C.3   245  MET245      0.0595
    103  SD        21.6040   64.7950  -23.6730 S.3   245  MET245     -0.1393
    104  CE        21.6690   63.9570  -25.2440 C.3   245  MET245      0.0692
    105  N         29.3890   66.9700  -28.3370 N.3   254  ASP254     -0.1239
    106  CA        28.6030   66.6280  -29.5260 C.3   254  ASP254      0.1674
    107  C         27.5270   67.6880  -29.7720 C.2   254  ASP254      0.2266
    108  O         27.5210   68.7380  -29.1400 O.2   254  ASP254     -0.2867
    109  CB        27.9830   65.2250  -29.4100 C.3   254  ASP254      0.1410
    110  CG        27.1880   65.0340  -28.1190 C.2   254  ASP254      0.3668
    111  OD1       27.2320   63.9100  -27.5570 O.co2 254  ASP254     -0.2456
    112  OD2       26.5330   66.0050  -27.6730 O.co2 254  ASP254     -0.2456
    113  N         24.2690   66.4960  -30.1390 N.3   256  VAL256     -0.1245
    114  CA        23.1100   65.6260  -29.9540 C.3   256  VAL256      0.1561
    115  C         21.9260   66.4290  -29.4140 C.2   256  VAL256      0.2260
    116  O         22.0930   67.2870  -28.5560 O.2   256  VAL256     -0.2867
    117  CB        23.4320   64.4300  -29.0030 C.3   256  VAL256      0.0252
    118  CG1       23.8760   64.9320  -27.6370 C.3   256  VAL256      0.0019
    119  CG2       22.2380   63.5050  -28.8730 C.3   256  VAL256      0.0019
    120  N         17.9440   61.5000  -27.3710 N.3   259  VAL259     -0.1245
    121  CA        18.3760   60.1070  -27.4060 C.3   259  VAL259      0.1561
    122  C         17.1080   59.2930  -27.6060 C.2   259  VAL259      0.2260
    123  O         16.0410   59.6950  -27.1110 O.2   259  VAL259     -0.2867
    124  CB        19.0620   59.6870  -26.0780 C.3   259  VAL259      0.0252
    125  CG1       19.5010   58.2210  -26.1240 C.3   259  VAL259      0.0019
    126  CG2       20.2340   60.5990  -25.7510 C.3   259  VAL259      0.0019
@<TRIPOS>BOND
     1    79    78    2
     2    78    77    1
     3    76    77    1
     4    77    80    1
     5    80    81    1
     6    81    82    1
     7    85    86    1
     8    74    73    2
     9    94    92   ar
    10    94    95   ar
    11    88    87    2
    12    92    90   ar
    13    96    95    1
    14    84    82   ar
    15    95    93   ar
    16    82    83   ar
    17    73    72    1
    18    86    87    1
    19    86    89    1
    20    63    62    2
    21    62    61    1
    22    90    89    1
    23    90    91   ar
    24    75    72    1
    25    71    72    1
    26    93    91   ar
    27    61    60    1
    28    61    64    1
    29   113   114    1
    30   114   115    1
    31   114   117    1
    32   107   106    1
    33   107   108    2
    34   106   109    1
    35   106   105    1
    36   115   116    2
    37   109   110    1
    38    64    65    1
    39   117   119    1
    40   117   118    1
    41    67    65   ar
    42    67    69   ar
    43    65    66   ar
    44   110   112   ar
    45   110   111   ar
    46    69    70   ar
    47   122   121    1
    48   122   123    2
    49     9     7   ar
    50     9    11   ar
    51   121   120    1
    52   121   124    1
    53     7     6   ar
    54    12    11    1
    55    66    68   ar
    56    11    10   ar
    57     6     5    1
    58     6     8   ar
    59    70    68   ar
    60     5     2    1
    61   125   124    1
    62   124   126    1
    63    10     8   ar
    64    20    18   am
    65   104   103    1
    66     2     1    1
    67     2     3    1
    68    19    18    2
    69   101   102    1
    70   101    98    1
    71    43    41    1
    72    42    41    1
    73    97    98    1
    74    18    17    1
    75    41    40    2
    76   102   103    1
    77    98    99    1
    78   100    99    2
    79    32    31    1
    80     3     4    2
    81    17    14    1
    82    40    39    1
    83    29    31   ar
    84    29    27   ar
    85    31    30   ar
    86    57    56    1
    87    57    58    1
    88    13    14    1
    89    14    15    1
    90    39    38    1
    91    59    58    1
    92    56    55    1
    93    50    48    1
    94    27    26   ar
    95    30    28   ar
    96    55    52    1
    97    15    16    2
    98    15    21   am
    99    48    49    1
   100    48    45    1
   101    38    37    1
   102    26    28   ar
   103    26    25    1
   104    52    51    1
   105    52    53    1
   106    21    22    1
   107    54    53    2
   108    37    34    1
   109    45    46    1
   110    45    44    1
   111    47    46    2
   112    25    22    1
   113    22    23    1
   114    34    33    1
   115    34    35    1
   116    23    24    2
   117    35    36    2
