@<TRIPOS>MOLECULE
tmp/3kr5D00.pdb
 199 187 0 0 0
SMALL
GASTEIGER

@<TRIPOS>ATOM
      1  N         64.8110   32.8770   22.3400 N.3   284  LYS284     -0.1245
      2  CA        66.2120   32.9490   22.7430 C.3   284  LYS284      0.1561
      3  C         66.3170   33.0000   24.2720 C.2   284  LYS284      0.2260
      4  O         65.6710   33.8180   24.9380 O.2   284  LYS284     -0.2867
      5  CB        66.8460   34.1900   22.1700 C.3   284  LYS284      0.0271
      6  CG        68.2660   34.3650   22.5870 C.3   284  LYS284      0.0035
      7  CD        68.8190   35.6590   22.0300 C.3   284  LYS284      0.0206
      8  CE        70.2110   35.8930   22.6140 C.3   284  LYS284      0.1093
      9  NZ        70.8120   37.1640   22.0940 N.3   284  LYS284     -0.1314
     10  N         74.3920   37.2390   29.1220 N.3   289  ASP289     -0.1239
     11  CA        75.2160   37.3660   27.9550 C.3   289  ASP289      0.1674
     12  C         76.3860   38.2970   28.2460 C.2   289  ASP289      0.2266
     13  O         76.2760   39.5150   28.1740 O.2   289  ASP289     -0.2867
     14  CB        74.3820   37.8430   26.7670 C.3   289  ASP289      0.1410
     15  CG        75.1620   37.8510   25.4780 C.2   289  ASP289      0.3668
     16  OD1       76.2600   37.2700   25.4370 O.co2 289  ASP289     -0.2456
     17  OD2       74.6730   38.4370   24.4900 O.co2 289  ASP289     -0.2456
     18  N         81.4710   42.0710   26.2030 N.3   296  LYS296     -0.1245
     19  CA        80.7510   43.3150   26.0610 C.3   296  LYS296      0.1561
     20  C         81.4710   44.3540   26.8830 C.2   296  LYS296      0.2260
     21  O         81.1520   44.5840   28.0470 O.2   296  LYS296     -0.2867
     22  CB        79.3030   43.1520   26.5500 C.3   296  LYS296      0.0271
     23  CG        78.4640   42.2710   25.6500 C.3   296  LYS296      0.0035
     24  CD        77.0600   42.1600   26.1500 C.3   296  LYS296      0.0206
     25  CE        76.2920   41.1170   25.3330 C.3   296  LYS296      0.1093
     26  NZ        76.0990   41.5270   23.8990 N.3   296  LYS296     -0.1314
     27  N         78.2630   51.4110   25.6680 N.3   300  GLY300     -0.1210
     28  CA        76.9280   51.1700   25.1510 C.3   300  GLY300      0.1956
     29  C         76.5640   49.7200   24.8470 C.2   300  GLY300      0.2613
     30  O         75.4660   49.4400   24.3450 O.2   300  GLY300     -0.2717
     31  N         77.4650   48.7840   25.1520 N.am  301  SER301     -0.1938
     32  CA        77.1540   47.3460   25.0460 C.3   301  SER301      0.2055
     33  C         76.2080   46.8500   26.1600 C.2   301  SER301      0.2642
     34  O         75.6270   45.7780   26.0490 O.2   301  SER301     -0.2714
     35  CB        78.4300   46.4890   24.9790 C.3   301  SER301      0.2130
     36  OG        79.2290   46.5850   26.1470 O.3   301  SER301     -0.2179
     37  N         76.0660   47.6490   27.2190 N.am  302  MET302     -0.1976
     38  CA        75.0570   47.4210   28.2590 C.3   302  MET302      0.1605
     39  C         75.1250   46.0240   28.8660 C.2   302  MET302      0.2287
     40  O         74.1190   45.3270   28.9870 O.2   302  MET302     -0.2864
     41  CB        73.6590   47.6760   27.7030 C.3   302  MET302      0.0413
     42  CG        73.2300   49.1310   27.6570 C.3   302  MET302      0.0598
     43  SD        71.6420   49.3310   26.8010 S.3   302  MET302     -0.1393
     44  CE        72.2240   49.4720   25.1140 C.3   302  MET302      0.0692
     45  N         72.6650   44.8590   31.5680 N.3   305  LEU305     -0.1231
     46  CA        71.2840   44.5940   31.1700 C.3   305  LEU305      0.1693
     47  C         71.1030   43.1400   30.7310 C.2   305  LEU305      0.2591
     48  O         69.9730   42.6820   30.5720 O.2   305  LEU305     -0.2718
     49  CB        70.9150   45.5240   30.0000 C.3   305  LEU305      0.0284
     50  CG        69.4830   45.4660   29.4560 C.3   305  LEU305      0.0019
     51  CD1       68.6810   46.4060   30.3080 C.3   305  LEU305      0.0001
     52  CD2       69.4220   45.8620   27.9830 C.3   305  LEU305      0.0001
     53  N         72.2120   42.4220   30.5570 N.am  306  MET306     -0.1979
     54  CA        72.2040   41.1750   29.8080 C.3   306  MET306      0.1605
     55  C         71.5420   39.9770   30.4720 C.2   306  MET306      0.2287
     56  O         71.5010   38.9070   29.8820 O.2   306  MET306     -0.2864
     57  CB        73.5940   40.8260   29.2620 C.3   306  MET306      0.0413
     58  CG        74.0280   41.7610   28.1570 C.3   306  MET306      0.0598
     59  SD        72.8650   41.8180   26.7820 S.3   306  MET306     -0.1393
     60  CE        73.0820   43.5100   26.2100 C.3   306  MET306      0.0692
     61  N         68.6710   40.1310   30.5120 N.3   308  PHE308     -0.1227
     62  CA        67.4500   40.2680   29.7290 C.3   308  PHE308      0.1736
     63  C         67.5410   39.5100   28.4060 C.2   308  PHE308      0.2595
     64  O         66.6100   39.5080   27.6050 O.2   308  PHE308     -0.2718
     65  CB        67.1180   41.7240   29.5000 C.3   308  PHE308      0.0547
     66  CG        67.5020   42.2200   28.1510 C.ar  308  PHE308     -0.0202
     67  CD1       66.5700   42.8800   27.3560 C.ar  308  PHE308     -0.0042
     68  CD2       68.7660   42.0130   27.6550 C.ar  308  PHE308     -0.0042
     69  CE1       66.8930   43.3390   26.0860 C.ar  308  PHE308     -0.0003
     70  CE2       69.1070   42.4650   26.4040 C.ar  308  PHE308     -0.0003
     71  CZ        68.1630   43.1420   25.6060 C.ar  308  PHE308     -0.0000
     72  N         68.6600   38.8470   28.1990 N.am  309  ASP309     -0.1974
     73  CA        68.8560   38.0910   27.0070 C.3   309  ASP309      0.1709
     74  C         68.1170   36.7380   26.9400 C.2   309  ASP309      0.2293
     75  O         68.2740   35.9640   25.9680 O.2   309  ASP309     -0.2864
     76  CB        70.3420   37.8920   26.7630 C.3   309  ASP309      0.1436
     77  CG        70.6910   38.0300   25.2950 C.2   309  ASP309      0.3671
     78  OD1       69.8820   38.6280   24.5200 O.co2 309  ASP309     -0.2456
     79  OD2       71.7740   37.5410   24.9140 O.co2 309  ASP309     -0.2456
     80  N         82.3110   35.8300   16.1600 N.3   367  ASN367     -0.1240
     81  CA        82.1250   36.6760   17.3420 C.3   367  ASN367      0.1653
     82  C         81.3290   35.9210   18.3700 C.2   367  ASN367      0.2266
     83  O         80.1960   35.5560   18.1160 O.2   367  ASN367     -0.2867
     84  CB        81.4270   37.9800   16.9630 C.3   367  ASN367      0.1155
     85  CG        81.4450   38.9980   18.0790 C.2   367  ASN367      0.2627
     86  OD1       81.1840   38.6730   19.2360 O.2   367  ASN367     -0.2716
     87  ND2       81.7600   40.2480   17.7380 N.am  367  ASN367     -0.0877
     88  N         79.9660   36.9260   20.8820 N.3   369  ASP369     -0.1225
     89  CA        78.8240   37.7240   21.3310 C.3   369  ASP369      0.1805
     90  C         77.6190   37.6140   20.3970 C.2   369  ASP369      0.2598
     91  O         76.5100   38.0400   20.7270 O.2   369  ASP369     -0.2718
     92  CB        79.2470   39.1770   21.5290 C.3   369  ASP369      0.1424
     93  CG        78.3170   39.9420   22.4180 C.2   369  ASP369      0.3668
     94  OD1       77.4310   39.3170   23.0350 O.co2 369  ASP369     -0.2456
     95  OD2       78.4750   41.1690   22.4990 O.co2 369  ASP369     -0.2456
     96  N         77.8050   37.0160   19.2290 N.am  370  ALA370     -0.1966
     97  CA        76.6720   36.6960   18.3730 C.3   370  ALA370      0.1728
     98  C         76.2270   35.2780   18.6960 C.2   370  ALA370      0.2616
     99  O         76.1790   34.4150   17.8180 O.2   370  ALA370     -0.2715
    100  CB        77.0650   36.8180   16.9310 C.3   370  ALA370      0.0334
    101  N         75.9000   35.0380   19.9640 N.am  371  GLU371     -0.1963
    102  CA        75.6610   33.6660   20.4420 C.3   371  GLU371      0.1733
    103  C         74.2250   33.2130   20.2730 C.2   371  GLU371      0.2617
    104  O         73.9680   32.0060   20.2030 O.2   371  GLU371     -0.2715
    105  CB        76.0600   33.5200   21.9130 C.3   371  GLU371      0.0429
    106  CG        74.9790   33.9410   22.8970 C.3   371  GLU371      0.1163
    107  CD        74.6680   35.4340   22.8480 C.2   371  GLU371      0.3649
    108  OE1       75.6130   36.2200   22.6430 O.co2 371  GLU371     -0.2457
    109  OE2       73.4770   35.8000   23.0400 O.co2 371  GLU371     -0.2457
    110  N         73.3020   34.1750   20.2250 N.am  372  GLY372     -0.1940
    111  CA        71.8720   33.8920   20.1730 C.3   372  GLY372      0.2014
    112  C         71.5500   33.0460   18.9750 C.2   372  GLY372      0.2638
    113  O         70.9110   31.9900   19.1050 O.2   372  GLY372     -0.2714
    114  N         72.0150   33.4980   17.8150 N.am  373  ARG373     -0.1977
    115  CA        71.7220   32.8380   16.5620 C.3   373  ARG373      0.1597
    116  C         72.2880   31.4240   16.5520 C.2   373  ARG373      0.2287
    117  O         71.7170   30.5360   15.9220 O.2   373  ARG373     -0.2864
    118  CB        72.2400   33.6390   15.3640 C.3   373  ARG373      0.0334
    119  CG        73.7220   33.5970   15.1830 C.3   373  ARG373      0.0492
    120  CD        74.1260   34.6880   14.2100 C.3   373  ARG373      0.2205
    121  NE        73.9540   36.0050   14.8070 N.pl3 373  ARG373     -0.0865
    122  CZ        74.2140   37.1520   14.2030 C.cat 373  ARG373      0.5346
    123  NH1       74.6560   37.1870   12.9280 N.pl3 373  ARG373      0.1354
    124  NH2       74.0370   38.2660   14.8980 N.pl3 373  ARG373      0.1354
    125  N         66.0190   38.4700   21.7170 N.3   396  THR396     -0.1203
    126  CA        66.6920   39.7300   21.8700 C.3   396  THR396      0.1994
    127  C         67.9700   39.5430   21.0660 C.2   396  THR396      0.2618
    128  O         69.0530   39.2930   21.6130 O.2   396  THR396     -0.2717
    129  CB        66.9790   40.0350   23.3440 C.3   396  THR396      0.1784
    130  OG1       67.5310   38.8660   23.9840 O.3   396  THR396     -0.2211
    131  CG2       65.7030   40.4120   24.0620 C.3   396  THR396      0.0376
    132  N         67.8420   39.6340   19.7480 N.am  397  LEU397     -0.1965
    133  CA        68.9080   39.1480   18.9110 C.3   397  LEU397      0.1728
    134  C         69.9510   40.1930   18.5580 C.2   397  LEU397      0.2617
    135  O         71.1550   39.8860   18.5830 O.2   397  LEU397     -0.2715
    136  CB        68.3790   38.4780   17.6380 C.3   397  LEU397      0.0311
    137  CG        69.3760   37.4880   17.0510 C.3   397  LEU397      0.0022
    138  CD1       69.6160   36.3280   18.0290 C.3   397  LEU397      0.0001
    139  CD2       68.8960   36.9840   15.7200 C.3   397  LEU397      0.0001
    140  N         69.5320   41.4070   18.2120 N.am  398  THR398     -0.1937
    141  CA        70.5280   42.3690   17.6920 C.3   398  THR398      0.2028
    142  C         70.3640   43.7630   18.2410 C.2   398  THR398      0.2643
    143  O         69.2800   44.3430   18.1730 O.2   398  THR398     -0.2714
    144  CB        70.5770   42.3960   16.1100 C.3   398  THR398      0.1808
    145  OG1       69.3020   42.7640   15.5760 O.3   398  THR398     -0.2208
    146  CG2       70.9750   40.9980   15.5290 C.3   398  THR398      0.0379
    147  N         71.4410   44.2920   18.8010 N.am  399  GLY399     -0.1939
    148  CA        71.4780   45.6760   19.2510 C.3   399  GLY399      0.2014
    149  C         71.1180   46.6510   18.1330 C.2   399  GLY399      0.2638
    150  O         70.5910   47.7270   18.4040 O.2   399  GLY399     -0.2714
    151  N         71.3650   46.2680   16.8720 N.am  400  ALA400     -0.1977
    152  CA        70.9920   47.1010   15.7240 C.3   400  ALA400      0.1597
    153  C         69.5080   47.4670   15.7080 C.2   400  ALA400      0.2287
    154  O         69.1300   48.5130   15.1530 O.2   400  ALA400     -0.2864
    155  CB        71.3610   46.4310   14.4200 C.3   400  ALA400      0.0319
    156  N         67.7980   48.7580   17.9080 N.3   402  LEU402     -0.1245
    157  CA        67.6700   50.0660   18.4900 C.3   402  LEU402      0.1561
    158  C         67.9150   51.1290   17.4390 C.2   402  LEU402      0.2260
    159  O         67.4010   52.2250   17.5430 O.2   402  LEU402     -0.2867
    160  CB        68.6570   50.2270   19.6480 C.3   402  LEU402      0.0270
    161  CG        68.3420   49.4940   20.9530 C.3   402  LEU402      0.0019
    162  CD1       69.4350   49.7050   21.9810 C.3   402  LEU402      0.0001
    163  CD2       67.0460   50.0140   21.4830 C.3   402  LEU402      0.0001
    164  N         78.6750   35.4080   11.6260 N.3   457  ILE457     -0.1231
    165  CA        78.4650   36.8240   11.4030 C.3   457  ILE457      0.1692
    166  C         78.9910   37.2540   10.0380 C.2   457  ILE457      0.2592
    167  O         79.8650   36.5830    9.4490 O.2   457  ILE457     -0.2718
    168  CB        79.1460   37.6900   12.4840 C.3   457  ILE457      0.0266
    169  CG1       80.6280   37.3570   12.5700 C.3   457  ILE457      0.0019
    170  CG2       78.4520   37.5260   13.8050 C.3   457  ILE457      0.0020
    171  CD1       81.4640   38.4680   13.2440 C.3   457  ILE457      0.0001
    172  N         78.4660   38.3720    9.5470 N.am  458  SER458     -0.1952
    173  CA        79.0730   39.0620    8.4320 C.3   458  SER458      0.1924
    174  C         80.3810   39.7280    8.8780 C.2   458  SER458      0.2314
    175  O         80.5680   40.0710   10.0520 O.2   458  SER458     -0.2863
    176  CB        78.1200   40.1120    7.9030 C.3   458  SER458      0.2116
    177  OG        78.6450   40.6930    6.7310 O.3   458  SER458     -0.2180
    178  N         72.9650   43.9870   10.8170 N.3   464  SER464     -0.1217
    179  CA        73.1450   42.7270   11.5290 C.3   464  SER464      0.1889
    180  C         71.8590   41.9810   11.8690 C.2   464  SER464      0.2288
    181  O         71.8830   40.7520   12.0130 O.2   464  SER464     -0.2866
    182  CB        74.0200   42.9100   12.7810 C.3   464  SER464      0.2089
    183  OG        73.5020   43.9010   13.6490 O.3   464  SER464     -0.2183
    184  N         65.1430   42.7320   20.6540 N.3   487  ALA487     -0.1245
    185  CA        66.2980   43.3060   21.3440 C.3   487  ALA487      0.1562
    186  C         66.1100   44.7780   21.7110 C.2   487  ALA487      0.2260
    187  O         66.5940   45.2210   22.7500 O.2   487  ALA487     -0.2867
    188  CB        67.5380   43.1310   20.5310 C.3   487  ALA487      0.0290
    189  N         63.6040   50.9630   29.1840 N.3   493  PHE493     -0.1241
    190  CA        64.7350   51.6830   29.7530 C.3   493  PHE493      0.1605
    191  C         64.2660   52.8290   30.6490 C.2   493  PHE493      0.2264
    192  O         64.8460   53.0480   31.7120 O.2   493  PHE493     -0.2867
    193  CB        65.6920   52.2060   28.6680 C.3   493  PHE493      0.0534
    194  CG        66.2770   51.1340   27.8130 C.ar  493  PHE493     -0.0203
    195  CD1       65.6320   50.7110   26.6560 C.ar  493  PHE493     -0.0042
    196  CD2       67.4770   50.5290   28.1670 C.ar  493  PHE493     -0.0042
    197  CE1       66.1740   49.6950   25.8620 C.ar  493  PHE493     -0.0003
    198  CE2       68.0240   49.5250   27.3680 C.ar  493  PHE493     -0.0003
    199  CZ        67.3610   49.1110   26.2100 C.ar  493  PHE493     -0.0000
@<TRIPOS>BOND
     1   177   176    1
     2   176   173    1
     3   173   174    1
     4   173   172    1
     5   174   175    2
     6   167   166    2
     7   172   166   am
     8   166   165    1
     9   178   179    1
    10   165   164    1
    11   165   168    1
    12   179   180    1
    13   179   182    1
    14   180   181    2
    15   168   169    1
    16   168   170    1
    17   169   171    1
    18   182   183    1
    19   123   122    1
    20   122   121    2
    21   122   124    1
    22   120   121    1
    23   120   119    1
    24   155   152    1
    25   154   153    2
    26   119   118    1
    27   118   115    1
    28   146   144    1
    29   145   144    1
    30   153   152    1
    31   139   137    1
    32   152   151    1
    33   117   116    2
    34   144   141    1
    35    80    81    1
    36   116   115    1
    37   115   114    1
    38   151   149   am
    39   100    97    1
    40    84    81    1
    41    84    85    1
    42   137   136    1
    43   137   138    1
    44    81    82    1
    45   158   159    2
    46   158   157    1
    47   136   133    1
    48   141   140    1
    49   141   142    1
    50    87    85   am
    51   114   112   am
    52    99    98    2
    53   156   157    1
    54    85    86    2
    55    83    82    2
    56   149   150    2
    57   149   148    1
    58   143   142    2
    59   140   134   am
    60   142   147   am
    61    97    98    1
    62    97    96    1
    63   157   160    1
    64   134   135    2
    65   134   133    1
    66    98   101   am
    67   147   148    1
    68   133   132    1
    69   112   113    2
    70   112   111    1
    71    96    90   am
    72   160   161    1
    73   132   127   am
    74   101   102    1
    75   111   110    1
    76   104   103    2
    77   110   103   am
    78   103   102    1
    79    90    91    2
    80    90    89    1
    81   102   105    1
    82   188   185    1
    83   184   185    1
    84    88    89    1
    85   161   163    1
    86   161   162    1
    87   127   128    2
    88   127   126    1
    89    89    92    1
    90   185   186    1
    91    92    93    1
    92   186   187    2
    93   125   126    1
    94   126   129    1
    95   105   106    1
    96     7     6    1
    97     7     8    1
    98     9     8    1
    99     5     6    1
   100     5     2    1
   101     1     2    1
   102    93    95   ar
   103    93    94   ar
   104   108   107   ar
   105     2     3    1
   106   107   106    1
   107   107   109   ar
   108   129   130    1
   109   129   131    1
   110    26    25    1
   111     3     4    2
   112    30    29    2
   113    17    15   ar
   114    78    77   ar
   115    29    28    1
   116    29    31   am
   117    79    77   ar
   118    35    32    1
   119    35    36    1
   120    32    31    1
   121    32    33    1
   122    44    43    1
   123    28    27    1
   124    77    76    1
   125    25    24    1
   126    16    15   ar
   127    15    14    1
   128    71    69   ar
   129    71    70   ar
   130    23    24    1
   131    23    22    1
   132   197   199   ar
   133   197   195   ar
   134    75    74    2
   135    34    33    2
   136    19    18    1
   137    19    22    1
   138    19    20    1
   139    69    67   ar
   140    33    37   am
   141   199   198   ar
   142    60    59    1
   143    70    68   ar
   144   195   194   ar
   145    76    73    1
   146    14    11    1
   147    59    58    1
   148    43    42    1
   149    20    21    2
   150    74    73    1
   151    73    72    1
   152    37    38    1
   153    67    66   ar
   154   198   196   ar
   155    64    63    2
   156    68    66   ar
   157    42    41    1
   158    41    38    1
   159   194   196   ar
   160   194   193    1
   161    11    12    1
   162    11    10    1
   163    52    50    1
   164    66    65    1
   165    58    57    1
   166    13    12    2
   167    72    63   am
   168    38    39    1
   169    63    62    1
   170   193   190    1
   171    39    40    2
   172   189   190    1
   173    57    54    1
   174    50    49    1
   175    50    51    1
   176    65    62    1
   177    62    61    1
   178   190   191    1
   179    54    55    1
   180    54    53    1
   181    56    55    2
   182    49    46    1
   183    53    47   am
   184    48    47    2
   185   191   192    2
   186    47    46    1
   187    46    45    1
