@<TRIPOS>MOLECULE
tmp/3krdL00.pdb
 158 149 0 0 0
SMALL
GASTEIGER

@<TRIPOS>ATOM
      1  N         40.9220   -4.0530   75.0340 N.3     1  THR1       -0.1218
      2  CA        40.3800   -4.7280   76.2140 C.3     1  THR1        0.1862
      3  C         40.6450   -6.2230   76.3140 C.2     1  THR1        0.2287
      4  O         40.5700   -6.9780   75.3210 O.2     1  THR1       -0.2866
      5  CB        38.8450   -4.6240   76.3180 C.3     1  THR1        0.1770
      6  OG1       38.4700   -3.3030   76.6850 O.3     1  THR1       -0.2211
      7  CG2       38.3070   -5.6040   77.3670 C.3     1  THR1        0.0375
      8  N         42.2540    0.0000   80.0740 N.3    19  ARG19      -0.1231
      9  CA        42.2260    0.8600   78.9120 C.3    19  ARG19       0.1694
     10  C         40.9080    1.0370   78.1710 C.2    19  ARG19       0.2593
     11  O         40.0430    0.1720   78.1370 O.2    19  ARG19      -0.2718
     12  CB        43.3030    0.4080   77.9360 C.3    19  ARG19       0.0321
     13  CG        43.3440    1.1900   76.6540 C.3    19  ARG19       0.0489
     14  CD        44.6470    0.8890   75.9570 C.3    19  ARG19       0.2205
     15  NE        45.7420    1.4730   76.6920 N.pl3  19  ARG19      -0.0865
     16  CZ        47.0150    1.4130   76.3370 C.cat  19  ARG19       0.5346
     17  NH1       47.3770    0.7770   75.2410 N.pl3  19  ARG19       0.1354
     18  NH2       47.9250    2.0200   77.0750 N.pl3  19  ARG19       0.1354
     19  N         40.7900    2.2030   77.5590 N.am   20  SER20      -0.1938
     20  CA        39.6360    2.5740   76.7810 C.3    20  SER20       0.2055
     21  C         40.2230    3.2320   75.5260 C.2    20  SER20       0.2644
     22  O         41.1950    3.9940   75.6020 O.2    20  SER20      -0.2714
     23  CB        38.8040    3.5560   77.5890 C.3    20  SER20       0.2130
     24  OG        37.7980    4.1140   76.8090 O.3    20  SER20      -0.2179
     25  N         39.6590    2.9180   74.3640 N.am   21  THR21      -0.1936
     26  CA        40.1460    3.5270   73.1330 C.3    21  THR21       0.2028
     27  C         39.0640    4.0710   72.2310 C.2    21  THR21       0.2642
     28  O         37.9220    3.6270   72.2620 O.2    21  THR21      -0.2714
     29  CB        41.0070    2.5490   72.2820 C.3    21  THR21       0.1808
     30  OG1       40.3280    1.2950   72.1620 O.3    21  THR21      -0.2208
     31  CG2       42.3870    2.3440   72.8920 C.3    21  THR21       0.0379
     32  N         39.4680    5.0480   71.4260 N.am   22  GLN22      -0.1963
     33  CA        38.6220    5.7120   70.4300 C.3    22  GLN22       0.1733
     34  C         39.5500    5.6180   69.1910 C.2    22  GLN22       0.2616
     35  O         40.3900    6.4880   68.9430 O.2    22  GLN22      -0.2715
     36  CB        38.3670    7.1630   70.8600 C.3    22  GLN22       0.0408
     37  CG        37.3790    7.9280   69.9990 C.3    22  GLN22       0.0908
     38  CD        36.0540    7.1950   69.8220 C.2    22  GLN22       0.2608
     39  OE1       35.3350    6.9290   70.7900 O.2    22  GLN22      -0.2717
     40  NE2       35.7270    6.8660   68.5760 N.am   22  GLN22      -0.0878
     41  N         39.4180    4.5290   68.4340 N.am   23  GLY23      -0.1955
     42  CA        40.2950    4.3110   67.3000 C.3    23  GLY23       0.1869
     43  C         41.6780    4.0010   67.8700 C.2    23  GLY23       0.2309
     44  O         41.8460    3.0820   68.6820 O.2    23  GLY23      -0.2863
     45  N         41.5730    6.6870   75.3050 N.3    27  SER27      -0.1217
     46  CA        40.6030    7.5980   75.8690 C.3    27  SER27       0.1889
     47  C         40.3230    7.3620   77.3350 C.2    27  SER27       0.2288
     48  O         39.5890    8.1230   77.9440 O.2    27  SER27      -0.2866
     49  CB        39.2890    7.5300   75.0890 C.3    27  SER27       0.2089
     50  OG        38.7910    6.2150   74.9980 O.3    27  SER27      -0.2183
     51  N         39.5670    2.5880   83.5350 N.3    31  VAL31      -0.1231
     52  CA        38.2330    2.0090   83.4730 C.3    31  VAL31       0.1692
     53  C         38.1850    0.7070   84.2800 C.2    31  VAL31       0.2592
     54  O         39.1280   -0.0760   84.2630 O.2    31  VAL31      -0.2718
     55  CB        37.8420    1.7160   82.0210 C.3    31  VAL31       0.0266
     56  CG1       36.4210    1.1690   81.9750 C.3    31  VAL31       0.0020
     57  CG2       37.9990    2.9700   81.1890 C.3    31  VAL31       0.0020
     58  N         37.1000    0.4920   85.0090 N.am   32  ARG32      -0.1966
     59  CA        36.9330   -0.7290   85.8020 C.3    32  ARG32       0.1729
     60  C         36.0050   -1.6250   84.9970 C.2    32  ARG32       0.2616
     61  O         34.8500   -1.2910   84.7610 O.2    32  ARG32      -0.2715
     62  CB        36.3390   -0.3740   87.1750 C.3    32  ARG32       0.0348
     63  CG        37.3430    0.3980   88.0090 C.3    32  ARG32       0.0492
     64  CD        36.8160    0.9570   89.3050 C.3    32  ARG32       0.2205
     65  NE        37.9030    1.6800   89.9660 N.pl3  32  ARG32      -0.0865
     66  CZ        38.8720    1.1040   90.6820 C.cat  32  ARG32       0.5346
     67  NH1       38.8800   -0.2180   90.8530 N.pl3  32  ARG32       0.1354
     68  NH2       39.8650    1.8410   91.1840 N.pl3  32  ARG32       0.1354
     69  N         36.4990   -2.7680   84.5600 N.am   33  LYS33      -0.1977
     70  CA        35.6620   -3.6180   83.7270 C.3    33  LYS33       0.1596
     71  C         35.0530   -4.8560   84.3830 C.2    33  LYS33       0.2287
     72  O         34.1970   -5.5190   83.7860 O.2    33  LYS33      -0.2864
     73  CB        36.4630   -4.0240   82.4880 C.3    33  LYS33       0.0298
     74  CG        37.0780   -2.8430   81.7800 C.3    33  LYS33       0.0038
     75  CD        38.0340   -3.2630   80.6770 C.3    33  LYS33       0.0206
     76  CE        38.6750   -2.0420   80.0750 C.3    33  LYS33       0.1093
     77  NZ        39.7430   -2.3770   79.1160 N.3    33  LYS33      -0.1314
     78  N         32.8670   -7.2110   81.0870 N.3    45  ILE45      -0.1231
     79  CA        32.3340   -7.0130   79.7470 C.3    45  ILE45       0.1692
     80  C         33.2530   -6.2470   78.8290 C.2    45  ILE45       0.2592
     81  O         33.8480   -5.2500   79.2240 O.2    45  ILE45      -0.2718
     82  CB        30.9710   -6.3260   79.8100 C.3    45  ILE45       0.0266
     83  CG1       30.1630   -6.9300   80.9640 C.3    45  ILE45       0.0019
     84  CG2       30.2440   -6.5070   78.4860 C.3    45  ILE45       0.0020
     85  CD1       28.7370   -6.4470   81.0780 C.3    45  ILE45       0.0001
     86  N         33.3660   -6.7300   77.5950 N.am   46  ALA46      -0.1966
     87  CA        34.2220   -6.1020   76.5950 C.3    46  ALA46       0.1728
     88  C         33.4090   -5.4670   75.4740 C.2    46  ALA46       0.2617
     89  O         32.2280   -5.7690   75.3110 O.2    46  ALA46      -0.2715
     90  CB        35.1560   -7.1260   76.0120 C.3    46  ALA46       0.0334
     91  N         34.0310   -4.5890   74.6950 N.am   47  GLY47      -0.1940
     92  CA        33.3040   -3.9670   73.5960 C.3    47  GLY47       0.2014
     93  C         32.9670   -2.5010   73.7820 C.2    47  GLY47       0.2640
     94  O         33.7670   -1.7240   74.3080 O.2    47  GLY47      -0.2714
     95  N         31.7740   -2.1190   73.3480 N.am   48  THR48      -0.1936
     96  CA        31.3320   -0.7390   73.4620 C.3    48  THR48       0.2028
     97  C         31.0220   -0.3630   74.9240 C.2    48  THR48       0.2642
     98  O         30.0120   -0.7940   75.5080 O.2    48  THR48      -0.2714
     99  CB        30.1000   -0.5140   72.5650 C.3    48  THR48       0.1808
    100  OG1       30.4280   -0.9190   71.2260 O.3    48  THR48      -0.2208
    101  CG2       29.6800    0.9680   72.5740 C.3    48  THR48       0.0379
    102  N         31.8950    0.4610   75.4950 N.am   49  ALA49      -0.1963
    103  CA        31.8000    0.8930   76.8900 C.3    49  ALA49       0.1728
    104  C         30.3980    1.2490   77.3670 C.2    49  ALA49       0.2616
    105  O         29.9290    0.7300   78.3850 O.2    49  ALA49      -0.2715
    106  CB        32.7390    2.0390   77.1260 C.3    49  ALA49       0.0334
    107  N         29.6990    2.0980   76.6270 N.am   50  ALA50      -0.1977
    108  CA        28.3680    2.4920   77.0730 C.3    50  ALA50       0.1597
    109  C         27.5080    1.2600   77.3170 C.2    50  ALA50       0.2287
    110  O         26.8560    1.1200   78.3540 O.2    50  ALA50      -0.2864
    111  CB        27.6800    3.4170   76.0340 C.3    50  ALA50       0.0319
    112  N         28.5080   -1.9390   77.6320 N.3    52  ALA52      -0.1231
    113  CA        29.0750   -2.8150   78.6530 C.3    52  ALA52       0.1694
    114  C         28.6170   -2.3850   80.0670 C.2    52  ALA52       0.2591
    115  O         28.1510   -3.2010   80.8720 O.2    52  ALA52      -0.2718
    116  CB        30.6060   -2.7970   78.5840 C.3    52  ALA52       0.0304
    117  N         28.7340   -1.0950   80.3600 N.am   53  VAL53      -0.1980
    118  CA        28.3650   -0.5980   81.6670 C.3    53  VAL53       0.1595
    119  C         26.8910   -0.8060   81.9360 C.2    53  VAL53       0.2287
    120  O         26.4930   -1.2590   82.9990 O.2    53  VAL53      -0.2864
    121  CB        28.7270    0.8980   81.8010 C.3    53  VAL53       0.0276
    122  CG1       28.1280    1.4710   83.0770 C.3    53  VAL53       0.0022
    123  CG2       30.2490    1.0620   81.7970 C.3    53  VAL53       0.0022
    124  N         27.2960   -1.6240   65.5210 N.3    97  GLY97      -0.1210
    125  CA        28.3880   -1.0520   66.2890 C.3    97  GLY97       0.1956
    126  C         28.2580   -0.8560   67.7820 C.2    97  GLY97       0.2612
    127  O         29.0710   -0.1980   68.3960 O.2    97  GLY97      -0.2717
    128  N         27.2270   -1.4200   68.3650 N.am   98  LEU98      -0.1965
    129  CA        27.0160   -1.3520   69.7920 C.3    98  LEU98       0.1728
    130  C         27.2290   -2.7110   70.4200 C.2    98  LEU98       0.2616
    131  O         26.5240   -3.0910   71.3010 O.2    98  LEU98      -0.2715
    132  CB        25.6230   -0.8460   70.1150 C.3    98  LEU98       0.0311
    133  CG        25.2860    0.6070   69.8520 C.3    98  LEU98       0.0022
    134  CD1       23.9580    0.8250   70.4060 C.3    98  LEU98       0.0001
    135  CD2       26.2470    1.5140   70.5060 C.3    98  LEU98       0.0001
    136  N         28.1550   -3.4680   69.8790 N.am   99  LEU99      -0.1977
    137  CA        28.4470   -4.7950   70.3510 C.3    99  LEU99       0.1596
    138  C         29.1390   -4.8400   71.6830 C.2    99  LEU99       0.2287
    139  O         30.0970   -4.1680   71.8950 O.2    99  LEU99      -0.2864
    140  CB        29.3260   -5.5230   69.3350 C.3    99  LEU99       0.0297
    141  CG        30.0470   -6.7940   69.7640 C.3    99  LEU99       0.0022
    142  CD1       29.0930   -7.9120   70.0880 C.3    99  LEU99       0.0001
    143  CD2       31.0820   -7.2340   68.7940 C.3    99  LEU99       0.0001
    144  N         37.4200  -10.0520   74.6720 N.3   140  GLY140     -0.1210
    145  CA        38.0150   -8.7790   74.2760 C.3   140  GLY140      0.1956
    146  C         39.0610   -8.9040   73.1660 C.2   140  GLY140      0.2612
    147  O         39.4750   -9.9850   72.8050 O.2   140  GLY140     -0.2717
    148  N         39.5090   -7.7700   72.6490 N.am  141  SER141     -0.1952
    149  CA        40.4910   -7.7020   71.5880 C.3   141  SER141      0.1924
    150  C         41.8400   -8.3540   71.8870 C.2   141  SER141      0.2314
    151  O         42.6860   -8.5010   70.9940 O.2   141  SER141     -0.2863
    152  CB        40.7320   -6.2420   71.2160 C.3   141  SER141      0.2116
    153  OG        41.2300   -5.4950   72.3120 O.3   141  SER141     -0.2180
    154  N         45.1750   -2.2450   72.1130 N.3   180  ALA180     -0.1245
    155  CA        43.9210   -1.8220   72.7290 C.3   180  ALA180      0.1562
    156  C         43.7770   -2.3230   74.1820 C.2   180  ALA180      0.2260
    157  O         42.7770   -2.0540   74.8520 O.2   180  ALA180     -0.2867
    158  CB        42.6990   -2.2720   71.8770 C.3   180  ALA180      0.0290
@<TRIPOS>BOND
     1   124   125    1
     2   125   126    1
     3    42    43    1
     4    42    41    1
     5   126   128   am
     6   126   127    2
     7    43    44    2
     8   128   129    1
     9    41    34   am
    10    40    38   am
    11   143   141    1
    12    35    34    2
    13    34    33    1
    14   140   141    1
    15   140   137    1
    16   141   142    1
    17   129   132    1
    18   129   130    1
    19    38    37    1
    20    38    39    2
    21   133   132    1
    22   133   134    1
    23   133   135    1
    24   136   137    1
    25   136   130   am
    26    37    36    1
    27   137   138    1
    28   130   131    2
    29    33    36    1
    30    33    32    1
    31   151   150    2
    32   152   149    1
    33   152   153    1
    34   100    99    1
    35    32    27   am
    36   149   150    1
    37   149   148    1
    38   138   139    2
    39   158   155    1
    40   154   155    1
    41    30    29    1
    42    27    28    2
    43    27    26    1
    44    29    31    1
    45    29    26    1
    46    99   101    1
    47    99    96    1
    48   148   146   am
    49   155   156    1
    50   147   146    2
    51    26    25    1
    52   146   145    1
    53    95    96    1
    54    95    93   am
    55    96    97    1
    56    92    93    1
    57    92    91    1
    58    93    94    2
    59   156   157    2
    60   145   144    1
    61    25    21   am
    62    91    88   am
    63    97   102   am
    64    97    98    2
    65    50    49    1
    66     1     2    1
    67    49    46    1
    68    17    16    1
    69    45    46    1
    70    89    88    2
    71     4     3    2
    72    88    87    1
    73   102   103    1
    74    21    22    2
    75    21    20    1
    76    46    47    1
    77    14    13    1
    78    14    15    1
    79    90    87    1
    80   111   108    1
    81     2     3    1
    82     2     5    1
    83     5     6    1
    84     5     7    1
    85    16    15    2
    86    16    18    1
    87    87    86    1
    88   107   108    1
    89   107   104   am
    90    13    12    1
    91    20    19    1
    92    20    23    1
    93    24    23    1
    94   103   106    1
    95   103   104    1
    96   108   109    1
    97   109   110    2
    98    47    48    2
    99   104   105    2
   100    19    10   am
   101    86    80   am
   102   112   113    1
   103    12     9    1
   104    11    10    2
   105    10     9    1
   106    84    82    1
   107   116   113    1
   108   113   114    1
   109    80    81    2
   110    80    79    1
   111     9     8    1
   112    77    76    1
   113    79    82    1
   114    79    78    1
   115    82    83    1
   116   114   117   am
   117   114   115    2
   118    76    75    1
   119   117   118    1
   120    75    74    1
   121    83    85    1
   122    57    55    1
   123   118   121    1
   124   118   119    1
   125    74    73    1
   126   123   121    1
   127   121   122    1
   128   119   120    2
   129    56    55    1
   130    55    52    1
   131    73    70    1
   132    52    51    1
   133    52    53    1
   134    70    71    1
   135    70    69    1
   136    72    71    2
   137    54    53    2
   138    53    58   am
   139    69    60   am
   140    61    60    2
   141    60    59    1
   142    58    59    1
   143    59    62    1
   144    62    63    1
   145    63    64    1
   146    64    65    1
   147    65    66    2
   148    66    67    1
   149    66    68    1
