@<TRIPOS>MOLECULE
tmp/3krfA00.pdb
 91 87 0 0 0
SMALL
GASTEIGER

@<TRIPOS>ATOM
      1  N         -6.9620   40.7020   14.5480 N.3    43  GLY43      -0.1210
      2  CA        -6.8950   41.9880   15.2130 C.3    43  GLY43       0.1956
      3  C         -5.4450   42.3950   14.9630 C.2    43  GLY43       0.2612
      4  O         -4.7130   41.6950   14.2210 O.2    43  GLY43      -0.2717
      5  N         -4.9910   43.4740   15.6080 N.am   44  LYS44      -0.1965
      6  CA        -3.6320   43.8930   15.3630 C.3    44  LYS44       0.1728
      7  C         -2.5230   43.0380   16.0510 C.2    44  LYS44       0.2616
      8  O         -1.3370   43.1420   15.6790 O.2    44  LYS44      -0.2715
      9  CB        -3.5020   45.4090   15.6780 C.3    44  LYS44       0.0311
     10  CG        -2.1310   46.0290   15.2260 C.3    44  LYS44       0.0038
     11  CD        -2.1120   47.6190   15.1600 C.3    44  LYS44       0.0206
     12  CE        -0.8070   48.1980   14.4820 C.3    44  LYS44       0.1093
     13  NZ        -0.5570   47.7860   13.0440 N.3    44  LYS44      -0.1314
     14  N         -2.9240   42.2030   17.0160 N.am   45  ARG45      -0.1963
     15  CA        -2.0210   41.3540   17.7980 C.3    45  ARG45       0.1729
     16  C         -0.8880   42.1600   18.4760 C.2    45  ARG45       0.2616
     17  O          0.2620   41.6930   18.5630 O.2    45  ARG45      -0.2715
     18  CB        -1.3730   40.2440   16.9490 C.3    45  ARG45       0.0348
     19  CG        -2.3090   39.2540   16.2980 C.3    45  ARG45       0.0492
     20  CD        -3.3610   38.6610   17.1700 C.3    45  ARG45       0.2205
     21  NE        -4.1380   37.7220   16.3740 N.pl3  45  ARG45      -0.0865
     22  CZ        -5.3810   37.3290   16.6900 C.cat  45  ARG45       0.5346
     23  NH1       -5.9930   37.7950   17.8060 N.pl3  45  ARG45       0.1354
     24  NH2       -6.0080   36.4560   15.9090 N.pl3  45  ARG45       0.1354
     25  N         -1.2010   43.3720   18.9140 N.am   46  VAL46      -0.1963
     26  CA        -0.2370   44.2520   19.6040 C.3    46  VAL46       0.1727
     27  C          0.4250   43.6420   20.8820 C.2    46  VAL46       0.2616
     28  O          1.6450   43.7950   21.1240 O.2    46  VAL46      -0.2715
     29  CB        -0.9520   45.6020   19.9510 C.3    46  VAL46       0.0290
     30  CG1       -0.0480   46.5410   20.7410 C.3    46  VAL46       0.0023
     31  CG2       -1.3730   46.2960   18.6220 C.3    46  VAL46       0.0023
     32  N         -0.3860   42.9480   21.6760 N.am   47  ARG47      -0.1977
     33  CA         0.0810   42.3370   22.9220 C.3    47  ARG47       0.1597
     34  C          1.1430   41.2910   22.6310 C.2    47  ARG47       0.2287
     35  O          2.2170   41.3120   23.2470 O.2    47  ARG47      -0.2864
     36  CB        -1.1330   41.8040   23.7160 C.3    47  ARG47       0.0334
     37  CG        -1.8540   42.9980   24.4220 C.3    47  ARG47       0.0492
     38  CD        -3.3140   42.7530   24.7600 C.3    47  ARG47       0.2205
     39  NE        -3.9650   44.0270   25.0840 N.pl3  47  ARG47      -0.0865
     40  CZ        -4.6330   44.7830   24.1940 C.cat  47  ARG47       0.5346
     41  NH1       -5.1750   45.9310   24.5750 N.pl3  47  ARG47       0.1354
     42  NH2       -4.7810   44.3690   22.9280 N.pl3  47  ARG47       0.1354
     43  N         -2.6840   37.3010   24.4090 N.3    73  GLU73      -0.1245
     44  CA        -3.7510   37.5020   23.4070 C.3    73  GLU73       0.1567
     45  C         -4.9870   36.6710   23.8450 C.2    73  GLU73       0.2260
     46  O         -6.1580   37.0200   23.6070 O.2    73  GLU73      -0.2867
     47  CB        -3.3310   37.0270   22.0150 C.3    73  GLU73       0.0388
     48  CG        -4.3410   37.3900   20.9330 C.3    73  GLU73       0.1160
     49  CD        -4.4830   38.9150   20.6730 C.2    73  GLU73       0.3649
     50  OE1       -5.3950   39.3050   19.8900 O.co2  73  GLU73      -0.2457
     51  OE2       -3.7000   39.7320   21.2420 O.co2  73  GLU73      -0.2457
     52  N         -6.4660   38.7630   26.6820 N.3    76  HIS76      -0.1241
     53  CA        -7.0430   39.9020   26.0290 C.3    76  HIS76       0.1621
     54  C         -8.4040   39.5180   25.4160 C.2    76  HIS76       0.2264
     55  O         -9.3910   40.2210   25.6110 O.2    76  HIS76      -0.2867
     56  CB        -6.1360   40.4040   24.8880 C.3    76  HIS76       0.0745
     57  CG        -6.7720   41.4700   24.0520 C.ar   76  HIS76       0.0817
     58  ND1       -7.1440   42.6950   24.5630 N.ar   76  HIS76      -0.2268
     59  CD2       -7.1140   41.4950   22.7360 C.ar   76  HIS76       0.1154
     60  CE1       -7.6830   43.4300   23.6050 C.ar   76  HIS76       0.1986
     61  NE2       -7.6760   42.7310   22.4840 N.ar   76  HIS76      -0.2212
     62  N        -12.4430   40.5760   26.3610 N.3    80  LEU80      -0.1245
     63  CA       -13.4030   41.1490   25.4330 C.3    80  LEU80       0.1561
     64  C        -14.7190   40.3530   25.3330 C.2    80  LEU80       0.2260
     65  O        -15.8040   40.9460   25.1020 O.2    80  LEU80      -0.2867
     66  CB       -12.8320   41.1730   24.0430 C.3    80  LEU80       0.0270
     67  CG       -11.8100   42.2420   23.7470 C.3    80  LEU80       0.0019
     68  CD1      -11.6210   42.2320   22.1960 C.3    80  LEU80       0.0001
     69  CD2      -12.3130   43.5840   24.2160 C.3    80  LEU80       0.0001
     70  N        -16.4540   44.6330   15.7560 N.3    95  ARG95      -0.1245
     71  CA       -15.7240   44.5770   14.4850 C.3    95  ARG95       0.1563
     72  C        -16.6230   44.0170   13.3340 C.2    95  ARG95       0.2260
     73  O        -16.1560   43.2710   12.4690 O.2    95  ARG95      -0.2867
     74  CB       -14.4310   43.7200   14.6370 C.3    95  ARG95       0.0307
     75  CG       -14.6060   42.2070   14.4380 C.3    95  ARG95       0.0489
     76  CD       -13.3050   41.4350   14.1400 C.3    95  ARG95       0.2205
     77  NE       -12.7060   40.8970   15.3580 N.pl3  95  ARG95      -0.0865
     78  CZ       -11.8090   41.5380   16.1090 C.cat  95  ARG95       0.5346
     79  NH1      -11.3800   42.7600   15.7550 N.pl3  95  ARG95       0.1354
     80  NH2      -11.3730   40.9720   17.2410 N.pl3  95  ARG95       0.1354
     81  N         -2.2650   55.5720   24.7380 N.3   217  PHE217     -0.1241
     82  CA        -3.3330   55.1440   23.8630 C.3   217  PHE217      0.1605
     83  C         -4.7400   55.7000   24.1970 C.2   217  PHE217      0.2264
     84  O         -5.4880   56.0980   23.2770 O.2   217  PHE217     -0.2867
     85  CB        -3.3980   53.6190   23.8420 C.3   217  PHE217      0.0534
     86  CG        -4.4190   53.0880   22.9180 C.ar  217  PHE217     -0.0203
     87  CD1       -4.0910   52.8220   21.5770 C.ar  217  PHE217     -0.0042
     88  CD2       -5.7450   52.9070   23.3590 C.ar  217  PHE217     -0.0042
     89  CE1       -5.0980   52.3750   20.6590 C.ar  217  PHE217     -0.0003
     90  CE2       -6.7770   52.4610   22.4580 C.ar  217  PHE217     -0.0003
     91  CZ        -6.4590   52.1960   21.1040 C.ar  217  PHE217     -0.0000
@<TRIPOS>BOND
     1    73    72    2
     2    13    12    1
     3    72    71    1
     4    76    75    1
     5    76    77    1
     6     4     3    2
     7    75    74    1
     8    12    11    1
     9    71    74    1
    10    71    70    1
    11     1     2    1
    12     3     2    1
    13     3     5   am
    14    11    10    1
    15    10     9    1
    16    77    78    2
    17     6     5    1
    18     6     9    1
    19     6     7    1
    20     8     7    2
    21    79    78    1
    22    24    22    1
    23     7    14   am
    24    78    80    1
    25    19    18    1
    26    19    20    1
    27    21    22    2
    28    21    20    1
    29    22    23    1
    30    18    15    1
    31    14    15    1
    32    15    16    1
    33    16    17    2
    34    16    25   am
    35    31    29    1
    36    25    26    1
    37    26    29    1
    38    26    27    1
    39    50    49   ar
    40    29    30    1
    41    89    91   ar
    42    89    87   ar
    43    49    48    1
    44    49    51   ar
    45    27    28    2
    46    27    32   am
    47    48    47    1
    48    91    90   ar
    49    87    86   ar
    50    32    33    1
    51    47    44    1
    52    68    67    1
    53    90    88   ar
    54    61    59   ar
    55    61    60   ar
    56    34    33    1
    57    34    35    2
    58    59    57   ar
    59    86    88   ar
    60    86    85    1
    61    33    36    1
    62    42    40    1
    63    84    83    2
    64    44    45    1
    65    44    43    1
    66    60    58   ar
    67    46    45    2
    68    36    37    1
    69    67    66    1
    70    67    69    1
    71    85    82    1
    72    82    83    1
    73    82    81    1
    74    66    63    1
    75    57    58   ar
    76    57    56    1
    77    40    41    1
    78    40    39    2
    79    37    38    1
    80    38    39    1
    81    56    53    1
    82    65    64    2
    83    64    63    1
    84    54    55    2
    85    54    53    1
    86    63    62    1
    87    53    52    1
