@<TRIPOS>MOLECULE
tmp/3krgA00.pdb
 206 187 0 0 0
SMALL
GASTEIGER

@<TRIPOS>ATOM
      1  N         21.4670    6.0110   -2.9120 N.3   118  LYS118     -0.1245
      2  CA        21.6690    5.2370   -1.6820 C.3   118  LYS118      0.1561
      3  C         22.8130    5.8720   -0.9120 C.2   118  LYS118      0.2260
      4  O         22.7560    6.0030    0.3080 O.2   118  LYS118     -0.2867
      5  CB        22.0000    3.7750   -2.0230 C.3   118  LYS118      0.0271
      6  CG        22.3160    2.9060   -0.8120 C.3   118  LYS118      0.0035
      7  CD        22.5410    1.4280   -1.2610 C.3   118  LYS118      0.0206
      8  CE        23.0980    0.5830   -0.1220 C.3   118  LYS118      0.1093
      9  NZ        23.2830   -0.7990   -0.6630 N.3   118  LYS118     -0.1314
     10  N         21.0930    6.5340    2.7750 N.3   122  MET122     -0.1245
     11  CA        21.2030    5.4350    3.6980 C.3   122  MET122      0.1570
     12  C         22.4380    5.6450    4.5760 C.2   122  MET122      0.2261
     13  O         23.5380    5.9290    4.0530 O.2   122  MET122     -0.2867
     14  CB        21.3100    4.1000    2.9860 C.3   122  MET122      0.0387
     15  CG        21.0700    3.0050    3.9910 C.3   122  MET122      0.0595
     16  SD        20.9240    1.3670    3.2280 S.3   122  MET122     -0.1393
     17  CE        19.8760    1.7430    1.8930 C.3   122  MET122      0.0692
     18  N         24.4420    4.0590    8.2820 N.3   124  ASP124     -0.1239
     19  CA        24.5010    2.9760    9.3060 C.3   124  ASP124      0.1674
     20  C         24.6810    3.5800   10.6790 C.2   124  ASP124      0.2266
     21  O         25.4400    4.5490   10.8510 O.2   124  ASP124     -0.2867
     22  CB        25.6770    2.0200    9.0560 C.3   124  ASP124      0.1410
     23  CG        25.5210    1.1980    7.7990 C.2   124  ASP124      0.3668
     24  OD1       24.4150    1.2000    7.1900 O.co2 124  ASP124     -0.2456
     25  OD2       26.5270    0.5490    7.4200 O.co2 124  ASP124     -0.2456
     26  N         20.0730    2.4960    8.8810 N.3   146  GLN146     -0.1245
     27  CA        20.2400    1.0320    8.8800 C.3   146  GLN146      0.1566
     28  C         20.9510    0.6290   10.1470 C.2   146  GLN146      0.2260
     29  O         21.9730    1.2400   10.5130 O.2   146  GLN146     -0.2867
     30  CB        20.9920    0.5610    7.6230 C.3   146  GLN146      0.0367
     31  CG        21.3320   -0.9220    7.7280 C.3   146  GLN146      0.0905
     32  CD        21.8880   -1.4970    6.4490 C.2   146  GLN146      0.2608
     33  OE1       21.3180   -2.4200    5.8920 O.2   146  GLN146     -0.2717
     34  NE2       23.0260   -0.9830    6.0000 N.am  146  GLN146     -0.0878
     35  N         22.8640   -2.4270   11.8150 N.3   148  LYS148     -0.1245
     36  CA        23.4820   -3.7700   11.8300 C.3   148  LYS148      0.1561
     37  C         24.1670   -4.0920   13.1640 C.2   148  LYS148      0.2260
     38  O         24.5810   -5.2150   13.4170 O.2   148  LYS148     -0.2867
     39  CB        24.5180   -3.8520   10.6940 C.3   148  LYS148      0.0271
     40  CG        23.9230   -3.3450    9.4040 C.3   148  LYS148      0.0035
     41  CD        24.6540   -3.6720    8.1630 C.3   148  LYS148      0.0206
     42  CE        26.0420   -3.2390    8.1760 C.3   148  LYS148      0.1093
     43  NZ        26.5400   -3.6510    6.7730 N.3   148  LYS148     -0.1314
     44  N          6.9120  -10.3810   -9.7690 N.3   173  ALA173     -0.1231
     45  CA         6.5200  -10.1120   -8.4040 C.3   173  ALA173      0.1694
     46  C          5.0130  -10.0970   -8.3870 C.2   173  ALA173      0.2592
     47  O          4.3900   -9.2390   -9.0230 O.2   173  ALA173     -0.2718
     48  CB         7.0570   -8.7760   -7.9500 C.3   173  ALA173      0.0304
     49  N          4.4200  -11.0270   -7.6540 N.am  174  GLY174     -0.1957
     50  CA         2.9700  -11.0680   -7.5440 C.3   174  GLY174      0.1869
     51  C          2.3180  -11.5390   -8.8270 C.2   174  GLY174      0.2309
     52  O          2.9770  -11.7510   -9.8480 O.2   174  GLY174     -0.2863
     53  N          5.2490   -5.9440  -10.1500 N.3   178  ASN178     -0.1240
     54  CA         5.1730   -4.8120   -9.2300 C.3   178  ASN178      0.1653
     55  C          6.4420   -4.0250   -9.3840 C.2   178  ASN178      0.2266
     56  O          7.4630   -4.5540   -9.8200 O.2   178  ASN178     -0.2867
     57  CB         5.0260   -5.2710   -7.7630 C.3   178  ASN178      0.1155
     58  CG         3.5700   -5.3980   -7.3210 C.2   178  ASN178      0.2627
     59  OD1        2.7520   -4.4860   -7.5470 O.2   178  ASN178     -0.2716
     60  ND2        3.2410   -6.5180   -6.6250 N.am  178  ASN178     -0.0877
     61  N          9.3640   -1.9400   -7.4410 N.3   180  ALA180     -0.1245
     62  CA         9.8870   -2.0870   -6.0660 C.3   180  ALA180      0.1562
     63  C         10.9660   -1.0460   -5.8110 C.2   180  ALA180      0.2260
     64  O         11.7980   -0.7940   -6.6820 O.2   180  ALA180     -0.2867
     65  CB        10.4650   -3.4920   -5.8290 C.3   180  ALA180      0.0290
     66  N         13.8520    0.6990   -2.6890 N.3   182  GLN182     -0.1245
     67  CA        14.8780    0.1770   -1.7670 C.3   182  GLN182      0.1566
     68  C         14.8900    0.7450   -0.3530 C.2   182  GLN182      0.2260
     69  O         15.5710    0.1750    0.5050 O.2   182  GLN182     -0.2867
     70  CB        16.2650    0.5010   -2.3230 C.3   182  GLN182      0.0367
     71  CG        16.6110   -0.3040   -3.5480 C.3   182  GLN182      0.0905
     72  CD        16.7380   -1.7720   -3.2110 C.2   182  GLN182      0.2608
     73  OE1       17.6470   -2.1680   -2.4710 O.2   182  GLN182     -0.2717
     74  NE2       15.8510   -2.5820   -3.7420 N.am  182  GLN182     -0.0878
     75  N         19.2030   -4.7230   10.0180 N.3   189  ASN189     -0.1240
     76  CA        19.7710   -5.7690    9.1700 C.3   189  ASN189      0.1653
     77  C         20.7900   -6.4990   10.0510 C.2   189  ASN189      0.2266
     78  O         21.9720   -6.1270   10.1080 O.2   189  ASN189     -0.2867
     79  CB        20.4320   -5.0880    7.9610 C.3   189  ASN189      0.1155
     80  CG        21.1780   -6.0700    7.0610 C.2   189  ASN189      0.2627
     81  OD1       21.1590   -7.2800    7.2990 O.2   189  ASN189     -0.2716
     82  ND2       21.8090   -5.5500    6.0100 N.am  189  ASN189     -0.0877
     83  N          9.2990    1.7390    0.3700 N.3   223  ASP223     -0.1239
     84  CA         9.3560    0.3450    0.7150 C.3   223  ASP223      0.1674
     85  C          8.7740    0.2480    2.1240 C.2   223  ASP223      0.2266
     86  O          7.6010    0.6060    2.3620 O.2   223  ASP223     -0.2867
     87  CB        10.8070   -0.2140    0.6170 C.3   223  ASP223      0.1410
     88  CG        10.8350   -1.7700    0.7310 C.2   223  ASP223      0.3668
     89  OD1       10.1400   -2.3780   -0.1040 O.co2 223  ASP223     -0.2456
     90  OD2       11.5150   -2.3750    1.6170 O.co2 223  ASP223     -0.2456
     91  N         11.7120   -2.3320    9.0830 N.3   227  ASP227     -0.1239
     92  CA        11.8460   -3.7540    8.6930 C.3   227  ASP227      0.1674
     93  C         13.0130   -4.3920    9.4510 C.2   227  ASP227      0.2266
     94  O         13.8860   -3.6710    9.9890 O.2   227  ASP227     -0.2867
     95  CB        12.1220   -3.8630    7.1850 C.3   227  ASP227      0.1410
     96  CG        10.9100   -3.5480    6.3400 C.2   227  ASP227      0.3668
     97  OD1        9.7390   -3.5480    6.8010 O.co2 227  ASP227     -0.2456
     98  OD2       11.1180   -3.3600    5.1540 O.co2 227  ASP227     -0.2456
     99  N         15.6420   -7.9980    9.4230 N.3   229  SER229     -0.1202
    100  CA        16.1720   -8.9810    8.4870 C.3   229  SER229      0.2020
    101  C         17.4170   -9.6220    9.0830 C.2   229  SER229      0.2618
    102  O         18.0250   -9.0700   10.0300 O.2   229  SER229     -0.2717
    103  CB        16.6810   -8.2030    7.2630 C.3   229  SER229      0.2103
    104  OG        15.9810   -8.7140    6.1950 O.3   229  SER229     -0.2182
    105  N         17.7940  -10.7910    8.5330 N.am  230  ASN230     -0.1974
    106  CA        19.1520  -11.3350    8.6970 C.3   230  ASN230      0.1688
    107  C         19.5840  -11.4990   10.1310 C.2   230  ASN230      0.2292
    108  O         20.6760  -11.0430   10.5370 O.2   230  ASN230     -0.2864
    109  CB        20.1630  -10.5080    7.9040 C.3   230  ASN230      0.1181
    110  CG        19.9120  -10.6150    6.3990 C.2   230  ASN230      0.2629
    111  OD1       19.4130  -11.6400    5.9480 O.2   230  ASN230     -0.2716
    112  ND2       20.2070   -9.5480    5.6370 N.am  230  ASN230     -0.0877
    113  N          8.2320   -5.6960    7.8270 N.3   250  ILE250     -0.1245
    114  CA         8.4530   -7.0970    7.5060 C.3   250  ILE250      0.1561
    115  C          9.5840   -7.5900    8.3860 C.2   250  ILE250      0.2260
    116  O         10.6720   -6.9750    8.4150 O.2   250  ILE250     -0.2867
    117  CB         8.8880   -7.2840    6.0680 C.3   250  ILE250      0.0252
    118  CG1        7.7050   -6.9900    5.1470 C.3   250  ILE250      0.0019
    119  CG2        9.4770   -8.7080    5.8970 C.3   250  ILE250      0.0019
    120  CD1        7.9710   -7.3980    3.6920 C.3   250  ILE250      0.0001
    121  N         12.9760  -11.7550    6.0370 N.3   253  SER253     -0.1202
    122  CA        12.8350  -11.3000    4.6880 C.3   253  SER253      0.2020
    123  C         12.6710  -12.4300    3.6810 C.2   253  SER253      0.2619
    124  O         12.3710  -12.1540    2.5120 O.2   253  SER253     -0.2717
    125  CB        14.0200  -10.4170    4.3170 C.3   253  SER253      0.2103
    126  OG        15.1510  -11.2610    4.0680 O.3   253  SER253     -0.2182
    127  N         12.8360  -13.6810    4.1080 N.am  254  SER254     -0.1951
    128  CA        12.8190  -14.7830    3.1640 C.3   254  SER254      0.1924
    129  C         12.5710  -16.1680    3.7980 C.2   254  SER254      0.2314
    130  O         13.1470  -16.5000    4.8580 O.2   254  SER254     -0.2863
    131  CB        14.1470  -14.7610    2.3780 C.3   254  SER254      0.2116
    132  OG        14.2440  -15.9400    1.6310 O.3   254  SER254     -0.2180
    133  N         15.5860  -18.2560    4.3980 N.3   257  LYS257     -0.1245
    134  CA        16.5230  -17.8050    5.4550 C.3   257  LYS257      0.1561
    135  C         16.2430  -18.4440    6.8070 C.2   257  LYS257      0.2260
    136  O         15.8730  -17.7820    7.7800 O.2   257  LYS257     -0.2867
    137  CB        16.5710  -16.2770    5.5410 C.3   257  LYS257      0.0271
    138  CG        17.5390  -15.7460    4.5270 C.3   257  LYS257      0.0035
    139  CD        17.8420  -14.2680    4.6500 C.3   257  LYS257      0.0206
    140  CE        18.9610  -13.9260    3.6980 C.3   257  LYS257      0.1093
    141  NZ        19.0510  -12.4690    3.3300 N.3   257  LYS257     -0.1314
    142  N         -0.7650   -2.8980    4.6140 N.3   278  GLN278     -0.1231
    143  CA        -0.4230   -4.2760    4.9280 C.3   278  GLN278      0.1698
    144  C          0.8990   -4.4140    5.7190 C.2   278  GLN278      0.2592
    145  O          1.6480   -3.4170    5.9070 O.2   278  GLN278     -0.2718
    146  CB        -0.2820   -5.0440    3.5910 C.3   278  GLN278      0.0381
    147  CG         0.7980   -4.4300    2.6930 C.3   278  GLN278      0.0905
    148  CD         0.9410   -5.2040    1.3950 C.2   278  GLN278      0.2608
    149  OE1        0.8390   -6.4300    1.3800 O.2   278  GLN278     -0.2717
    150  NE2        1.1560   -4.5020    0.3020 N.am  278  GLN278     -0.0878
    151  N          1.1720   -5.6560    6.1750 N.am  279  ARG279     -0.1980
    152  CA         2.4360   -6.0180    6.8270 C.3   279  ARG279      0.1597
    153  C          2.6280   -5.2040    8.1050 C.2   279  ARG279      0.2287
    154  O          3.5120   -4.3340    8.1780 O.2   279  ARG279     -0.2864
    155  CB         3.5760   -5.7430    5.8430 C.3   279  ARG279      0.0334
    156  CG         3.4660   -6.6290    4.5940 C.3   279  ARG279      0.0492
    157  CD         4.4040   -6.2360    3.4720 C.3   279  ARG279      0.2205
    158  NE         4.2260   -7.1300    2.3110 N.pl3 279  ARG279     -0.0865
    159  CZ         4.8250   -6.9320    1.1400 C.cat 279  ARG279      0.5346
    160  NH1        5.6330   -5.8910    0.9780 N.pl3 279  ARG279      0.1354
    161  NH2        4.6430   -7.7840    0.1330 N.pl3 279  ARG279      0.1354
    162  N          4.3620   -8.2840    9.0130 N.3   282  ARG282     -0.1245
    163  CA         4.3980   -9.6140    8.3500 C.3   282  ARG282      0.1563
    164  C          5.6170  -10.3810    8.9110 C.2   282  ARG282      0.2260
    165  O          6.7370   -9.8910    8.8290 O.2   282  ARG282     -0.2867
    166  CB         4.5850   -9.4460    6.8450 C.3   282  ARG282      0.0307
    167  CG         4.5330  -10.7940    6.0630 C.3   282  ARG282      0.0489
    168  CD         5.3800  -10.7430    4.7670 C.3   282  ARG282      0.2205
    169  NE         5.0460  -11.8640    3.8880 N.pl3 282  ARG282     -0.0865
    170  CZ         5.4190  -13.1240    4.1120 C.cat 282  ARG282      0.5346
    171  NH1        6.1770  -13.4100    5.1740 N.pl3 282  ARG282      0.1354
    172  NH2        5.0730  -14.1030    3.2460 N.pl3 282  ARG282      0.1354
    173  N          8.0690  -13.9250    9.4460 N.3   284  ARG284     -0.1245
    174  CA         8.5790  -15.2710    9.2820 C.3   284  ARG284      0.1563
    175  C          9.4190  -15.6140   10.5030 C.2   284  ARG284      0.2260
    176  O         10.1720  -14.7480   11.0030 O.2   284  ARG284     -0.2867
    177  CB         9.4950  -15.3610    8.0620 C.3   284  ARG284      0.0307
    178  CG         8.8190  -14.9680    6.7030 C.3   284  ARG284      0.0489
    179  CD         9.8790  -14.8490    5.5740 C.3   284  ARG284      0.2205
    180  NE         9.2480  -14.7860    4.2220 N.pl3 284  ARG284     -0.0865
    181  CZ         9.0000  -13.6790    3.5340 C.cat 284  ARG284      0.5346
    182  NH1        9.3730  -12.4810    3.9970 N.pl3 284  ARG284      0.1354
    183  NH2        8.3810  -13.7630    2.3400 N.pl3 284  ARG284      0.1354
    184  N         -4.5610   -6.0140    5.3350 N.3   308  TYR308     -0.1241
    185  CA        -4.4850   -6.8710    6.5110 C.3   308  TYR308      0.1605
    186  C         -3.5420   -6.2690    7.5170 C.2   308  TYR308      0.2264
    187  O         -2.7800   -5.3920    7.1840 O.2   308  TYR308     -0.2867
    188  CB        -4.0670   -8.3210    6.1350 C.3   308  TYR308      0.0534
    189  CG        -2.5870   -8.4990    5.7590 C.ar  308  TYR308     -0.0201
    190  CD1       -1.6160   -8.6990    6.7370 C.ar  308  TYR308     -0.0009
    191  CD2       -2.1760   -8.4510    4.4280 C.ar  308  TYR308     -0.0009
    192  CE1       -0.2500   -8.8810    6.3810 C.ar  308  TYR308      0.0417
    193  CE2       -0.8380   -8.6550    4.0610 C.ar  308  TYR308      0.0417
    194  CZ         0.1140   -8.8760    5.0400 C.ar  308  TYR308      0.1957
    195  OH         1.4360   -9.1000    4.7200 O.3   308  TYR308     -0.2866
    196  N          0.2940  -17.0330    4.9600 N.3   339  PHE339     -0.1241
    197  CA         1.1480  -17.3140    3.8170 C.3   339  PHE339      0.1605
    198  C          1.6870  -18.7040    4.0300 C.2   339  PHE339      0.2264
    199  O          1.6480  -19.2170    5.1400 O.2   339  PHE339     -0.2867
    200  CB         2.3070  -16.2990    3.7370 C.3   339  PHE339      0.0534
    201  CG         1.8270  -14.8800    3.5830 C.ar  339  PHE339     -0.0203
    202  CD1        1.3680  -14.4250    2.3610 C.ar  339  PHE339     -0.0042
    203  CD2        1.7760  -14.0290    4.6780 C.ar  339  PHE339     -0.0042
    204  CE1        0.8910  -13.1350    2.2070 C.ar  339  PHE339     -0.0003
    205  CE2        1.3250  -12.7480    4.5370 C.ar  339  PHE339     -0.0003
    206  CZ         0.8740  -12.2940    3.2940 C.ar  339  PHE339     -0.0000
@<TRIPOS>BOND
     1    53    54    1
     2    52    51    2
     3    56    55    2
     4    44    45    1
     5    55    54    1
     6    54    57    1
     7    47    46    2
     8    51    50    1
     9    45    46    1
    10    45    48    1
    11    46    49   am
    12    57    58    1
    13    49    50    1
    14    59    58    2
    15    61    62    1
    16    58    60   am
    17    64    63    2
    18    62    65    1
    19    62    63    1
    20    74    72   am
    21    71    72    1
    22    71    70    1
    23    72    73    2
    24     1     2    1
    25    66    67    1
    26    70    67    1
    27     5     2    1
    28     5     6    1
    29    67    68    1
    30     2     3    1
    31     7     6    1
    32     7     8    1
    33     3     4    2
    34     9     8    1
    35    68    69    2
    36    89    88   ar
    37   161   159    1
    38   150   148   am
    39    83    84    1
    40    87    84    1
    41    87    88    1
    42    84    85    1
    43    88    90   ar
    44   160   159    1
    45   159   158    2
    46   149   148    2
    47   148   147    1
    48   132   131    1
    49    17    16    1
    50    85    86    2
    51   204   202   ar
    52   204   206   ar
    53   158   157    1
    54   183   181    1
    55   202   201   ar
    56   131   128    1
    57   124   123    2
    58   147   146    1
    59    10    11    1
    60    14    11    1
    61    14    15    1
    62   128   129    1
    63   128   127    1
    64    16    15    1
    65   172   170    1
    66   206   205   ar
    67   141   140    1
    68   157   156    1
    69   181   182    1
    70   181   180    2
    71   201   200    1
    72   201   203   ar
    73   146   143    1
    74   123   127   am
    75   123   122    1
    76   120   118    1
    77   140   139    1
    78    11    12    1
    79   200   197    1
    80   129   130    2
    81   197   198    1
    82   197   196    1
    83   169   170    2
    84   169   168    1
    85   198   199    2
    86    13    12    2
    87   193   191   ar
    88   193   194   ar
    89   126   125    1
    90   170   171    1
    91   180   179    1
    92   125   122    1
    93   133   134    1
    94   191   189   ar
    95   138   139    1
    96   138   137    1
    97   205   203   ar
    98   156   155    1
    99   142   143    1
   100   122   121    1
   101   195   194    1
   102   168   167    1
   103   143   144    1
   104   194   192   ar
   105   118   117    1
   106    98    96   ar
   107   184   185    1
   108   134   137    1
   109   134   135    1
   110   179   178    1
   111   112   110   am
   112   144   145    2
   113   144   151   am
   114   189   188    1
   115   189   190   ar
   116   155   152    1
   117    33    32    2
   118   119   117    1
   119   111   110    2
   120    34    32   am
   121    82    80   am
   122   167   166    1
   123   117   114    1
   124   188   185    1
   125   151   152    1
   126   104   103    1
   127    96    97   ar
   128    96    95    1
   129   192   190   ar
   130   110   109    1
   131    32    31    1
   132   185   186    1
   133   178   177    1
   134    43    42    1
   135   135   136    2
   136   152   153    1
   137   166   163    1
   138    80    81    2
   139    80    79    1
   140   187   186    2
   141    95    92    1
   142    24    23   ar
   143   103   100    1
   144    25    23   ar
   145   114   113    1
   146   114   115    1
   147    30    31    1
   148    30    27    1
   149    23    22    1
   150   109   106    1
   151    79    76    1
   152   177   174    1
   153   153   154    2
   154    41    42    1
   155    41    40    1
   156    18    19    1
   157   163   164    1
   158   163   162    1
   159   115   116    2
   160   100   101    1
   161   100    99    1
   162   105   106    1
   163   105   101   am
   164    92    91    1
   165    92    93    1
   166   106   107    1
   167   165   164    2
   168    27    26    1
   169    27    28    1
   170    22    19    1
   171   101   102    2
   172    76    75    1
   173    76    77    1
   174   174   173    1
   175   174   175    1
   176    19    20    1
   177    40    39    1
   178    93    94    2
   179    77    78    2
   180   107   108    2
   181    28    29    2
   182   175   176    2
   183    20    21    2
   184    39    36    1
   185    35    36    1
   186    36    37    1
   187    37    38    2
