@<TRIPOS>MOLECULE
tmp/3krjA00.pdb
 168 160 0 0 0
SMALL
GASTEIGER

@<TRIPOS>ATOM
      1  N          0.5950   27.6880    9.0370 N.3    45  LEU45      -0.1245
      2  CA         1.5810   28.7120    8.7030 C.3    45  LEU45       0.1561
      3  C          1.3820   29.2380    7.2830 C.2    45  LEU45       0.2260
      4  O          1.5530   30.4280    7.0220 O.2    45  LEU45      -0.2867
      5  CB         2.9950   28.1500    8.8460 C.3    45  LEU45       0.0270
      6  CG         3.6600   28.2300   10.2230 C.3    45  LEU45       0.0019
      7  CD1        2.6520   28.2370   11.3650 C.3    45  LEU45       0.0001
      8  CD2        4.6440   27.0780   10.3730 C.3    45  LEU45       0.0001
      9  N          1.7320   23.9610    5.3430 N.3    53  VAL53      -0.1245
     10  CA         2.6980   23.7680    6.4120 C.3    53  VAL53       0.1561
     11  C          2.0410   24.2480    7.6960 C.2    53  VAL53       0.2260
     12  O          1.4400   25.3160    7.7220 O.2    53  VAL53      -0.2867
     13  CB         3.9890   24.5600    6.1370 C.3    53  VAL53       0.0252
     14  CG1        3.6790   26.0460    6.0070 C.3    53  VAL53       0.0019
     15  CG2        5.0260   24.3080    7.2230 C.3    53  VAL53       0.0019
     16  N          2.3370   24.6880   12.0630 N.3    55  GLU55      -0.1245
     17  CA         3.1430   24.6650   13.2740 C.3    55  GLU55       0.1567
     18  C          2.6300   23.5450   14.1670 C.2    55  GLU55       0.2260
     19  O          1.4380   23.2530   14.1770 O.2    55  GLU55      -0.2867
     20  CB         3.0520   25.9980   14.0130 C.3    55  GLU55       0.0388
     21  CG         4.0070   26.1100   15.1900 C.3    55  GLU55       0.1160
     22  CD         3.8110   27.3920   15.9790 C.2    55  GLU55       0.3649
     23  OE1        2.9850   28.2280   15.5560 O.co2  55  GLU55      -0.2457
     24  OE2        4.4830   27.5660   17.0190 O.co2  55  GLU55      -0.2457
     25  N          7.7520   22.7140   12.2580 N.3    71  ALA71      -0.1245
     26  CA         6.8810   22.9900   11.1250 C.3    71  ALA71       0.1562
     27  C          6.6660   21.6970   10.3470 C.2    71  ALA71       0.2260
     28  O          7.6230   21.0190    9.9930 O.2    71  ALA71      -0.2867
     29  CB         7.4960   24.0540   10.2340 C.3    71  ALA71       0.0290
     30  N          5.2950   19.8440    7.0030 N.3    73  LYS73      -0.1245
     31  CA         4.8850   19.9330    5.6100 C.3    73  LYS73       0.1561
     32  C          3.9900   18.7530    5.2570 C.2    73  LYS73       0.2260
     33  O          4.1930   17.6460    5.7470 O.2    73  LYS73      -0.2867
     34  CB         6.1200   19.9480    4.7040 C.3    73  LYS73       0.0271
     35  CG         7.0830   21.0860    5.0120 C.3    73  LYS73       0.0035
     36  CD         8.2760   21.0950    4.0710 C.3    73  LYS73       0.0206
     37  CE         7.8360   21.0660    2.6190 C.3    73  LYS73       0.1093
     38  NZ         8.8080   21.7620    1.7390 N.3    73  LYS73      -0.1314
     39  N         17.2250   25.4100    6.7550 N.3   104  VAL104     -0.1245
     40  CA        16.1010   24.8450    7.4880 C.3   104  VAL104      0.1561
     41  C         16.2150   23.3250    7.4650 C.2   104  VAL104      0.2260
     42  O         15.9500   22.6900    6.4450 O.2   104  VAL104     -0.2867
     43  CB        14.7550   25.2690    6.8670 C.3   104  VAL104      0.0252
     44  CG1       13.5950   24.6480    7.6270 C.3   104  VAL104      0.0019
     45  CG2       14.6300   26.7870    6.8510 C.3   104  VAL104      0.0019
     46  N         10.2650   19.7670    9.8260 N.3   120  THR120     -0.1203
     47  CA        11.4450   20.6140    9.6940 C.3   120  THR120      0.1994
     48  C         11.4830   21.6590   10.8020 C.2   120  THR120      0.2618
     49  O         10.5280   21.8030   11.5570 O.2   120  THR120     -0.2717
     50  CB        11.4630   21.3330    8.3310 C.3   120  THR120      0.1784
     51  OG1       10.3590   22.2390    8.2480 O.3   120  THR120     -0.2211
     52  CG2       11.3700   20.3290    7.1920 C.3   120  THR120      0.0376
     53  N         12.5880   22.3940   10.8860 N.am  121  GLU121     -0.1965
     54  CA        12.7810   23.3730   11.9530 C.3   121  GLU121      0.1733
     55  C         11.7660   24.5060   11.9140 C.2   121  GLU121      0.2616
     56  O         11.4470   25.0340   10.8490 O.2   121  GLU121     -0.2715
     57  CB        14.1770   23.9780   11.8660 C.3   121  GLU121      0.0429
     58  CG        15.2770   23.0450   12.3090 C.3   121  GLU121      0.1163
     59  CD        16.6430   23.6570   12.1150 C.2   121  GLU121      0.3649
     60  OE1       16.8070   24.4400   11.1520 O.co2 121  GLU121     -0.2457
     61  OE2       17.5490   23.3580   12.9220 O.co2 121  GLU121     -0.2457
     62  N         11.2730   24.8760   13.0910 N.am  122  TYR122     -0.1960
     63  CA        10.4580   26.0680   13.2530 C.3   122  TYR122      0.1771
     64  C         11.3790   27.2580   13.5060 C.2   122  TYR122      0.2620
     65  O         12.2790   27.1920   14.3440 O.2   122  TYR122     -0.2715
     66  CB         9.4960   25.8830   14.4260 C.3   122  TYR122      0.0574
     67  CG         8.6120   27.0730   14.7210 C.ar  122  TYR122     -0.0198
     68  CD1        7.5300   27.3820   13.9050 C.ar  122  TYR122     -0.0009
     69  CD2        8.8470   27.8770   15.8280 C.ar  122  TYR122     -0.0009
     70  CE1        6.7190   28.4680   14.1730 C.ar  122  TYR122      0.0417
     71  CE2        8.0380   28.9660   16.1080 C.ar  122  TYR122      0.0417
     72  CZ         6.9760   29.2560   15.2760 C.ar  122  TYR122      0.1957
     73  OH         6.1650   30.3320   15.5480 O.3   122  TYR122     -0.2866
     74  N         11.1590   28.3400   12.7710 N.am  123  CYS123     -0.1954
     75  CA        11.9840   29.5340   12.8960 C.3   123  CYS123      0.1843
     76  C         11.1120   30.6940   13.3680 C.2   123  CYS123      0.2626
     77  O         10.3200   31.2490   12.6050 O.2   123  CYS123     -0.2714
     78  CB        12.6580   29.8530   11.5640 C.3   123  CYS123      0.0997
     79  SG        13.7260   28.5140   10.9440 S.3   123  CYS123     -0.0797
     80  N         11.2840   31.0610   14.6340 N.am  124  CYS124     -0.1954
     81  CA        10.2970   31.8610   15.3610 C.3   124  CYS124      0.1843
     82  C          9.9750   33.2520   14.7920 C.2   124  CYS124      0.2625
     83  O          8.8660   33.7490   14.9860 O.2   124  CYS124     -0.2714
     84  CB        10.7180   31.9910   16.8300 C.3   124  CYS124      0.0997
     85  SG        12.3370   32.7470   17.0900 S.3   124  CYS124     -0.0797
     86  N         10.9210   33.8840   14.1020 N.am  125  TYR125     -0.1960
     87  CA        10.7090   35.2600   13.6430 C.3   125  TYR125      0.1771
     88  C         10.1760   35.3720   12.2100 C.2   125  TYR125      0.2620
     89  O          9.9770   36.4760   11.7050 O.2   125  TYR125     -0.2715
     90  CB        11.9920   36.0830   13.7900 C.3   125  TYR125      0.0574
     91  CG        12.4470   36.2360   15.2250 C.ar  125  TYR125     -0.0198
     92  CD1       13.6950   35.7800   15.6370 C.ar  125  TYR125     -0.0009
     93  CD2       11.6190   36.8310   16.1700 C.ar  125  TYR125     -0.0009
     94  CE1       14.1070   35.9200   16.9490 C.ar  125  TYR125      0.0417
     95  CE2       12.0180   36.9710   17.4840 C.ar  125  TYR125      0.0417
     96  CZ        13.2650   36.5160   17.8680 C.ar  125  TYR125      0.1957
     97  OH        13.6650   36.6530   19.1750 O.3   125  TYR125     -0.2866
     98  N          9.9500   34.2370   11.5580 N.am  126  GLY126     -0.1940
     99  CA         9.3220   34.2300   10.2470 C.3   126  GLY126      0.2014
    100  C         10.3070   34.5020    9.1220 C.2   126  GLY126      0.2638
    101  O         11.5170   34.4320    9.3230 O.2   126  GLY126     -0.2714
    102  N          9.7970   34.8210    7.9350 N.am  127  ASP127     -0.1971
    103  CA        10.6570   34.9500    6.7620 C.3   127  ASP127      0.1709
    104  C         11.3060   36.3310    6.6480 C.2   127  ASP127      0.2293
    105  O         10.7820   37.3360    7.1280 O.2   127  ASP127     -0.2864
    106  CB         9.8990   34.5960    5.4780 C.3   127  ASP127      0.1436
    107  CG         9.0380   35.7300    4.9740 C.2   127  ASP127      0.3671
    108  OD1        7.8000   35.6350    5.0980 O.co2 127  ASP127     -0.2456
    109  OD2        9.6000   36.7080    4.4410 O.co2 127  ASP127     -0.2456
    110  N          9.5310   39.6720    4.9170 N.3   130  ASN130     -0.1240
    111  CA         8.5840   40.3430    5.7960 C.3   130  ASN130      0.1653
    112  C          9.2970   41.1540    6.8720 C.2   130  ASN130      0.2266
    113  O          8.9520   42.3070    7.1280 O.2   130  ASN130     -0.2867
    114  CB         7.6600   39.3150    6.4480 C.3   130  ASN130      0.1155
    115  CG         6.5660   38.8380    5.5120 C.2   130  ASN130      0.2627
    116  OD1        6.0790   39.5910    4.6690 O.2   130  ASN130     -0.2716
    117  ND2        6.1660   37.5830    5.6630 N.am  130  ASN130     -0.0877
    118  N         14.4420   32.2460    6.3100 N.3   176  LEU176     -0.1245
    119  CA        13.7660   32.3650    7.5920 C.3   176  LEU176      0.1561
    120  C         14.7470   32.9090    8.6250 C.2   176  LEU176      0.2260
    121  O         15.9610   32.7650    8.4760 O.2   176  LEU176     -0.2867
    122  CB        13.2580   30.9920    8.0460 C.3   176  LEU176      0.0270
    123  CG        11.7920   30.6210    7.8080 C.3   176  LEU176      0.0019
    124  CD1       11.2260   31.2490    6.5450 C.3   176  LEU176      0.0001
    125  CD2       11.6650   29.1060    7.7630 C.3   176  LEU176      0.0001
    126  N         13.2420   26.0160    1.3100 N.3   187  ASP187     -0.1225
    127  CA        12.2790   26.1270    0.2250 C.3   187  ASP187      0.1805
    128  C         10.8830   25.9200    0.7950 C.2   187  ASP187      0.2597
    129  O         10.5460   24.8350    1.2660 O.2   187  ASP187     -0.2718
    130  CB        12.5820   25.1010   -0.8640 C.3   187  ASP187      0.1424
    131  CG        11.7280   25.2940   -2.1030 C.2   187  ASP187      0.3668
    132  OD1       10.5460   25.6780   -1.9710 O.co2 187  ASP187     -0.2456
    133  OD2       12.2420   25.0570   -3.2140 O.co2 187  ASP187     -0.2456
    134  N         10.0760   26.9720    0.7540 N.am  188  PHE188     -0.1976
    135  CA         8.7830   26.9710    1.4200 C.3   188  PHE188      0.1639
    136  C          7.6600   27.1790    0.4150 C.2   188  PHE188      0.2290
    137  O          6.6210   27.7590    0.7370 O.2   188  PHE188     -0.2864
    138  CB         8.7610   28.0630    2.4890 C.3   188  PHE188      0.0560
    139  CG        10.0760   28.2340    3.1950 C.ar  188  PHE188     -0.0200
    140  CD1       10.6890   29.4720    3.2630 C.ar  188  PHE188     -0.0042
    141  CD2       10.7170   27.1430    3.7600 C.ar  188  PHE188     -0.0042
    142  CE1       11.9070   29.6210    3.9020 C.ar  188  PHE188     -0.0003
    143  CE2       11.9310   27.2880    4.4000 C.ar  188  PHE188     -0.0003
    144  CZ        12.5290   28.5290    4.4660 C.ar  188  PHE188     -0.0000
    145  N          5.5640   25.1690   -0.6430 N.3   190  LEU190     -0.1231
    146  CA         4.3520   24.5120   -0.1670 C.3   190  LEU190      0.1693
    147  C          3.4580   25.4790    0.6060 C.2   190  LEU190      0.2592
    148  O          2.2340   25.4010    0.5340 O.2   190  LEU190     -0.2718
    149  CB         4.7230   23.3370    0.7440 C.3   190  LEU190      0.0284
    150  CG         4.2020   21.9270    0.4400 C.3   190  LEU190      0.0019
    151  CD1        3.6430   21.3180    1.7180 C.3   190  LEU190      0.0001
    152  CD2        3.1560   21.9020   -0.6660 C.3   190  LEU190      0.0001
    153  N          4.0800   26.3850    1.3520 N.am  191  ALA191     -0.1966
    154  CA         3.3510   27.3100    2.2110 C.3   191  ALA191      0.1728
    155  C          2.9220   28.5750    1.4780 C.2   191  ALA191      0.2616
    156  O          2.3110   29.4610    2.0740 O.2   191  ALA191     -0.2715
    157  CB         4.2090   27.6750    3.4080 C.3   191  ALA191      0.0334
    158  N          3.2420   28.6610    0.1910 N.am  192  ARG192     -0.1977
    159  CA         2.9890   29.8760   -0.5770 C.3   192  ARG192      0.1597
    160  C          1.8900   29.6980   -1.6220 C.2   192  ARG192      0.2287
    161  O          1.6830   28.6110   -2.1630 O.2   192  ARG192     -0.2864
    162  CB         4.2670   30.3440   -1.2780 C.3   192  ARG192      0.0334
    163  CG         5.4530   30.5950   -0.3590 C.3   192  ARG192      0.0492
    164  CD         5.2380   31.7880    0.5600 C.3   192  ARG192      0.2205
    165  NE         6.5020   32.2630    1.1190 N.pl3 192  ARG192     -0.0865
    166  CZ         6.6150   33.2380    2.0160 C.cat 192  ARG192      0.5346
    167  NH1        5.5340   33.8540    2.4810 N.pl3 192  ARG192      0.1354
    168  NH2        7.8150   33.5950    2.4580 N.pl3 192  ARG192      0.1354
@<TRIPOS>BOND
     1   133   131   ar
     2   161   160    2
     3   131   132   ar
     4   131   130    1
     5   160   159    1
     6   162   159    1
     7   162   163    1
     8   130   127    1
     9   152   150    1
    10   145   146    1
    11   159   158    1
    12   163   164    1
    13   146   147    1
    14   146   149    1
    15   158   155   am
    16   127   128    1
    17   127   126    1
    18   136   137    2
    19   136   135    1
    20   150   149    1
    21   150   151    1
    22   148   147    2
    23   164   165    1
    24   147   153   am
    25   134   128   am
    26   134   135    1
    27   128   129    2
    28   165   166    2
    29   153   154    1
    30   135   138    1
    31   155   156    2
    32   155   154    1
    33    38    37    1
    34   166   168    1
    35   166   167    1
    36   154   157    1
    37   138   139    1
    38    37    36    1
    39   139   140   ar
    40   139   141   ar
    41   140   142   ar
    42   141   143   ar
    43   142   144   ar
    44    36    35    1
    45   143   144   ar
    46   109   107   ar
    47   116   115    2
    48    34    35    1
    49    34    31    1
    50   110   111    1
    51   107   108   ar
    52   107   106    1
    53    32    31    1
    54    32    33    2
    55     9    10    1
    56   106   103    1
    57   115   117   am
    58   115   114    1
    59    31    30    1
    60   111   114    1
    61   111   112    1
    62    14    13    1
    63    13    10    1
    64    13    15    1
    65   118   119    1
    66    10    11    1
    67    42    41    2
    68   124   123    1
    69   104   103    1
    70   104   105    2
    71    39    40    1
    72   103   102    1
    73    45    43    1
    74    43    40    1
    75    43    44    1
    76   112   113    2
    77     4     3    2
    78    52    50    1
    79     3     2    1
    80    41    40    1
    81   119   122    1
    82   119   120    1
    83    11    12    2
    84   125   123    1
    85   123   122    1
    86   102   100   am
    87    51    50    1
    88    50    47    1
    89   121   120    2
    90     2     5    1
    91     2     1    1
    92     5     6    1
    93   100   101    2
    94   100    99    1
    95    47    46    1
    96    47    48    1
    97    28    27    2
    98     6     8    1
    99     6     7    1
   100    29    26    1
   101    99    98    1
   102    27    26    1
   103    48    53   am
   104    48    49    2
   105    56    55    2
   106    53    54    1
   107    79    78    1
   108    26    25    1
   109    60    59   ar
   110    98    88   am
   111    78    75    1
   112    89    88    2
   113    57    54    1
   114    57    58    1
   115    55    54    1
   116    55    62   am
   117    16    17    1
   118    59    58    1
   119    59    61   ar
   120    88    87    1
   121    77    76    2
   122    74    75    1
   123    74    64   am
   124    75    76    1
   125    62    63    1
   126    63    64    1
   127    63    66    1
   128    17    20    1
   129    17    18    1
   130    76    80   am
   131    64    65    2
   132    87    90    1
   133    87    86    1
   134    90    91    1
   135    68    70   ar
   136    68    67   ar
   137    20    21    1
   138    86    82   am
   139    18    19    2
   140    70    72   ar
   141    66    67    1
   142    80    81    1
   143    67    69   ar
   144    82    83    2
   145    82    81    1
   146    21    22    1
   147    91    92   ar
   148    91    93   ar
   149    72    73    1
   150    72    71   ar
   151    81    84    1
   152    23    22   ar
   153    92    94   ar
   154    69    71   ar
   155    22    24   ar
   156    93    95   ar
   157    84    85    1
   158    94    96   ar
   159    95    96   ar
   160    96    97    1
