@<TRIPOS>MOLECULE
tmp/3krlA00.pdb
 167 159 0 0 0
SMALL
GASTEIGER

@<TRIPOS>ATOM
      1  N         20.2690  -11.6430  -15.8790 N.3    26  LYS26      -0.1245
      2  CA        19.6930  -10.5760  -15.0670 C.3    26  LYS26       0.1561
      3  C         19.5650  -10.9850  -13.6020 C.2    26  LYS26       0.2260
      4  O         19.2660  -12.1370  -13.2970 O.2    26  LYS26      -0.2867
      5  CB        18.3090  -10.2020  -15.6010 C.3    26  LYS26       0.0271
      6  CG        17.2330  -11.2440  -15.3110 C.3    26  LYS26       0.0035
      7  CD        15.8930  -10.8280  -15.8980 C.3    26  LYS26       0.0206
      8  CE        14.7560  -11.0150  -14.9030 C.3    26  LYS26       0.1093
      9  NZ        14.1550  -12.3750  -14.9710 N.3    26  LYS26      -0.1314
     10  N         17.6610  -11.5020  -10.3870 N.3    28  LEU28      -0.1231
     11  CA        16.2570  -11.7740  -10.1000 C.3    28  LEU28       0.1693
     12  C         15.8220  -11.1400   -8.7820 C.2    28  LEU28       0.2592
     13  O         14.6890  -10.6780   -8.6470 O.2    28  LEU28      -0.2718
     14  CB        16.0200  -13.2820  -10.0400 C.3    28  LEU28       0.0284
     15  CG        16.3550  -14.0560  -11.3160 C.3    28  LEU28       0.0019
     16  CD1       16.4290  -15.5470  -11.0300 C.3    28  LEU28       0.0001
     17  CD2       15.3380  -13.7600  -12.4050 C.3    28  LEU28       0.0001
     18  N         16.7280  -11.1230   -7.8100 N.am   29  GLY29      -0.1957
     19  CA        16.4400  -10.5540   -6.5060 C.3    29  GLY29       0.1869
     20  C         17.6910  -10.4650   -5.6570 C.2    29  GLY29       0.2309
     21  O         18.5280  -11.3660   -5.6790 O.2    29  GLY29      -0.2863
     22  N         20.4980  -13.6040   -6.1980 N.3    36  VAL36      -0.1245
     23  CA        20.2270  -14.7100   -7.1020 C.3    36  VAL36       0.1561
     24  C         20.0310  -14.1290   -8.4940 C.2    36  VAL36       0.2260
     25  O         19.2290  -13.2190   -8.6810 O.2    36  VAL36      -0.2867
     26  CB        18.9700  -15.5040   -6.6720 C.3    36  VAL36       0.0252
     27  CG1       17.7560  -14.5910   -6.6330 C.3    36  VAL36       0.0019
     28  CG2       18.7300  -16.6890   -7.6040 C.3    36  VAL36       0.0019
     29  N         18.9690  -20.6710  -12.1030 N.3    54  ALA54      -0.1245
     30  CA        19.1240  -19.5740  -11.1640 C.3    54  ALA54       0.1562
     31  C         20.2810  -19.8910  -10.2370 C.2    54  ALA54       0.2260
     32  O         20.3800  -20.9970   -9.7180 O.2    54  ALA54      -0.2867
     33  CB        17.8450  -19.3760  -10.3700 C.3    54  ALA54       0.0290
     34  N         22.3370  -18.9230   -6.8480 N.3    56  LYS56      -0.1245
     35  CA        22.4740  -18.2330   -5.5720 C.3    56  LYS56       0.1561
     36  C         23.9520  -17.9980   -5.2880 C.2    56  LYS56       0.2260
     37  O         24.7790  -18.8810   -5.5080 O.2    56  LYS56      -0.2867
     38  CB        21.8470  -19.0530   -4.4410 C.3    56  LYS56       0.0271
     39  CG        20.4450  -19.5370   -4.7410 C.3    56  LYS56       0.0035
     40  CD        19.7690  -20.1290   -3.5130 C.3    56  LYS56       0.0206
     41  CE        18.2630  -19.9120   -3.5850 C.3    56  LYS56       0.1093
     42  NZ        17.4560  -21.1340   -3.2950 N.3    56  LYS56      -0.1314
     43  N         11.8470  -26.5100   -5.3740 N.3    86  VAL86      -0.1245
     44  CA        12.8960  -25.9010   -6.1820 C.3    86  VAL86       0.1561
     45  C         14.1510  -26.7460   -5.9860 C.2    86  VAL86       0.2260
     46  O         14.7200  -26.7840   -4.8970 O.2    86  VAL86      -0.2867
     47  CB        13.1640  -24.4410   -5.7730 C.3    86  VAL86       0.0252
     48  CG1       14.2740  -23.8420   -6.6270 C.3    86  VAL86       0.0019
     49  CG2       11.8910  -23.6160   -5.8950 C.3    86  VAL86       0.0019
     50  N         20.1890  -23.7820   -9.0870 N.3   102  THR102     -0.1203
     51  CA        18.8790  -24.3430   -8.7800 C.3   102  THR102      0.1994
     52  C         17.9620  -24.2020   -9.9870 C.2   102  THR102      0.2618
     53  O         18.3480  -23.6310  -11.0050 O.2   102  THR102     -0.2717
     54  CB        18.2190  -23.6240   -7.5870 C.3   102  THR102      0.1784
     55  OG1       17.7130  -22.3530   -8.0110 O.3   102  THR102     -0.2211
     56  CG2       19.2170  -23.4230   -6.4540 C.3   102  THR102      0.0376
     57  N         16.7460  -24.7220   -9.8670 N.am  103  GLU103     -0.1965
     58  CA        15.7650  -24.6080  -10.9370 C.3   103  GLU103      0.1733
     59  C         15.2800  -23.1690  -11.0670 C.2   103  GLU103      0.2616
     60  O         15.0690  -22.4800  -10.0700 O.2   103  GLU103     -0.2715
     61  CB        14.5800  -25.5380  -10.6790 C.3   103  GLU103      0.0429
     62  CG        14.7770  -26.9440  -11.2180 C.3   103  GLU103      0.1163
     63  CD        13.6960  -27.9020  -10.7610 C.2   103  GLU103      0.3649
     64  OE1       13.0640  -27.6270   -9.7210 O.co2 103  GLU103     -0.2457
     65  OE2       13.4790  -28.9310  -11.4380 O.co2 103  GLU103     -0.2457
     66  N         15.1160  -22.7210  -12.3060 N.am  104  TYR104     -0.1960
     67  CA        14.5480  -21.4120  -12.5760 C.3   104  TYR104      0.1771
     68  C         13.0390  -21.5410  -12.7350 C.2   104  TYR104      0.2620
     69  O         12.5560  -22.3220  -13.5550 O.2   104  TYR104     -0.2715
     70  CB        15.1600  -20.8150  -13.8430 C.3   104  TYR104      0.0574
     71  CG        14.5500  -19.4950  -14.2580 C.ar  104  TYR104     -0.0198
     72  CD1       14.7490  -18.3480  -13.5020 C.ar  104  TYR104     -0.0009
     73  CD2       13.7840  -19.3930  -15.4120 C.ar  104  TYR104     -0.0009
     74  CE1       14.1960  -17.1380  -13.8790 C.ar  104  TYR104      0.0417
     75  CE2       13.2280  -18.1880  -15.7970 C.ar  104  TYR104      0.0417
     76  CZ        13.4380  -17.0640  -15.0270 C.ar  104  TYR104      0.1957
     77  OH        12.8820  -15.8630  -15.4060 O.3   104  TYR104     -0.2866
     78  N         12.3030  -20.7810  -11.9320 N.am  105  CYS105     -0.1954
     79  CA        10.8510  -20.7590  -12.0060 C.3   105  CYS105      0.1843
     80  C         10.4050  -19.4550  -12.6570 C.2   105  CYS105      0.2626
     81  O         10.4160  -18.3980  -12.0250 O.2   105  CYS105     -0.2714
     82  CB        10.2590  -20.9110  -10.6080 C.3   105  CYS105      0.0997
     83  SG        10.7950  -22.4250   -9.7760 S.3   105  CYS105     -0.0797
     84  N         10.0020  -19.5450  -13.9210 N.am  106  CYS106     -0.1954
     85  CA         9.8410  -18.3660  -14.7720 C.3   106  CYS106      0.1843
     86  C          8.7600  -17.3770  -14.3220 C.2   106  CYS106      0.2625
     87  O          8.8910  -16.1750  -14.5560 O.2   106  CYS106     -0.2714
     88  CB         9.5860  -18.7910  -16.2240 C.3   106  CYS106      0.0997
     89  SG         8.1240  -19.8260  -16.4760 S.3   106  CYS106     -0.0797
     90  N          7.7000  -17.8660  -13.6850 N.am  107  TYR107     -0.1960
     91  CA         6.5860  -16.9930  -13.3120 C.3   107  TYR107      0.1771
     92  C          6.7500  -16.2990  -11.9570 C.2   107  TYR107      0.2620
     93  O          5.8440  -15.5940  -11.5080 O.2   107  TYR107     -0.2715
     94  CB         5.2590  -17.7570  -13.3330 C.3   107  TYR107      0.0574
     95  CG         4.8900  -18.3010  -14.6930 C.ar  107  TYR107     -0.0198
     96  CD1        4.9350  -19.6640  -14.9490 C.ar  107  TYR107     -0.0009
     97  CD2        4.5070  -17.4530  -15.7230 C.ar  107  TYR107     -0.0009
     98  CE1        4.6060  -20.1690  -16.1890 C.ar  107  TYR107      0.0417
     99  CE2        4.1760  -17.9490  -16.9700 C.ar  107  TYR107      0.0417
    100  CZ         4.2270  -19.3090  -17.1970 C.ar  107  TYR107      0.1957
    101  OH         3.8990  -19.8100  -18.4360 O.3   107  TYR107     -0.2866
    102  N          7.8880  -16.5000  -11.3020 N.am  108  GLY108     -0.1940
    103  CA         8.1720  -15.8000  -10.0600 C.3   108  GLY108      0.2014
    104  C          7.3940  -16.3460   -8.8780 C.2   108  GLY108      0.2638
    105  O          6.8580  -17.4500   -8.9410 O.2   108  GLY108     -0.2714
    106  N          7.3150  -15.5700   -7.8000 N.am  109  ASP109     -0.1971
    107  CA         6.7260  -16.0730   -6.5620 C.3   109  ASP109      0.1709
    108  C          5.1990  -16.0070   -6.5620 C.2   109  ASP109      0.2293
    109  O          4.5960  -15.1680   -7.2300 O.2   109  ASP109     -0.2864
    110  CB         7.3180  -15.3680   -5.3310 C.3   109  ASP109      0.1436
    111  CG         7.0960  -13.8660   -5.3400 C.2   109  ASP109      0.3671
    112  OD1        8.0630  -13.1170   -5.6050 O.co2 109  ASP109     -0.2456
    113  OD2        5.9620  -13.4310   -5.0550 O.co2 109  ASP109     -0.2456
    114  N         -1.3390   -9.5280   -8.6350 N.3   116  ARG116     -0.1245
    115  CA        -1.6030   -8.9050   -9.9260 C.3   116  ARG116      0.1563
    116  C         -2.6380   -9.7210  -10.6960 C.2   116  ARG116      0.2260
    117  O         -2.7690   -9.5890  -11.9130 O.2   116  ARG116     -0.2867
    118  CB        -0.3170   -8.7420  -10.7380 C.3   116  ARG116      0.0307
    119  CG         0.2480  -10.0190  -11.3070 C.3   116  ARG116      0.0489
    120  CD         1.4980   -9.7200  -12.1060 C.3   116  ARG116      0.2205
    121  NE         2.0700  -10.9360  -12.6920 N.pl3 116  ARG116     -0.0865
    122  CZ         3.0100  -11.6840  -12.1170 C.cat 116  ARG116      0.5346
    123  NH1        3.5150  -11.3310  -10.9310 N.pl3 116  ARG116      0.1354
    124  NH2        3.4460  -12.7790  -12.7350 N.pl3 116  ARG116      0.1354
    125  N          7.2450  -20.6290   -5.6530 N.3   155  LEU155     -0.1245
    126  CA         7.4940  -20.1240   -6.9960 C.3   155  LEU155      0.1561
    127  C          6.5970  -20.8580   -7.9820 C.2   155  LEU155      0.2260
    128  O          6.0950  -21.9400   -7.6870 O.2   155  LEU155     -0.2867
    129  CB         8.9610  -20.3390   -7.3790 C.3   155  LEU155      0.0270
    130  CG         9.9760  -19.2460   -7.0240 C.3   155  LEU155      0.0019
    131  CD1        9.6210  -18.5310   -5.7320 C.3   155  LEU155      0.0001
    132  CD2       11.3740  -19.8460   -6.9450 C.3   155  LEU155      0.0001
    133  N         14.0440  -18.4950   -0.1460 N.3   167  PHE167     -0.1241
    134  CA        14.5840  -17.4430   -0.9970 C.3   167  PHE167      0.1605
    135  C         14.9660  -16.2100   -0.1900 C.2   167  PHE167      0.2264
    136  O         14.8670  -15.0830   -0.6750 O.2   167  PHE167     -0.2867
    137  CB        13.5600  -17.0900   -2.0720 C.3   167  PHE167      0.0534
    138  CG        12.9060  -18.2940   -2.6790 C.ar  167  PHE167     -0.0203
    139  CD1       11.5390  -18.4770   -2.5950 C.ar  167  PHE167     -0.0042
    140  CD2       13.6700  -19.2700   -3.2950 C.ar  167  PHE167     -0.0042
    141  CE1       10.9460  -19.5990   -3.1410 C.ar  167  PHE167     -0.0003
    142  CE2       13.0810  -20.3910   -3.8440 C.ar  167  PHE167     -0.0003
    143  CZ        11.7180  -20.5550   -3.7660 C.ar  167  PHE167     -0.0000
    144  N         17.8980  -15.3680    0.6350 N.3   169  LEU169     -0.1231
    145  CA        19.1370  -14.8070    0.1070 C.3   169  LEU169      0.1693
    146  C         18.8500  -13.6600   -0.8600 C.2   169  LEU169      0.2592
    147  O         19.6530  -12.7400   -1.0010 O.2   169  LEU169     -0.2718
    148  CB        19.9400  -15.8860   -0.6290 C.3   169  LEU169      0.0284
    149  CG        21.4680  -15.8980   -0.4820 C.3   169  LEU169      0.0019
    150  CD1       22.1040  -16.4030   -1.7700 C.3   169  LEU169      0.0001
    151  CD2       22.0270  -14.5340   -0.1200 C.3   169  LEU169      0.0001
    152  N         17.6960  -13.7190   -1.5180 N.am  170  ALA170     -0.1966
    153  CA        17.3950  -12.8130   -2.6230 C.3   170  ALA170      0.1728
    154  C         16.4460  -11.6770   -2.2490 C.2   170  ALA170      0.2616
    155  O         15.9920  -10.9370   -3.1220 O.2   170  ALA170     -0.2715
    156  CB        16.8240  -13.5990   -3.7890 C.3   170  ALA170      0.0334
    157  N         16.1360  -11.5400   -0.9640 N.am  171  ARG171     -0.1977
    158  CA        15.3560  -10.3970   -0.5010 C.3   171  ARG171      0.1597
    159  C         15.8860   -9.8540    0.8190 C.2   171  ARG171      0.2287
    160  O         16.7920  -10.4290    1.4210 O.2   171  ARG171     -0.2864
    161  CB        13.8680  -10.7410   -0.3760 C.3   171  ARG171      0.0334
    162  CG        13.5560  -12.1890   -0.0410 C.3   171  ARG171      0.0492
    163  CD        12.1580  -12.2980    0.5550 C.3   171  ARG171      0.2205
    164  NE        11.5330  -13.5920    0.3040 N.pl3 171  ARG171     -0.0865
    165  CZ        10.9640  -13.9340   -0.8470 C.cat 171  ARG171      0.5346
    166  NH1       10.9490  -13.0820   -1.8650 N.pl3 171  ARG171      0.1354
    167  NH2       10.4160  -15.1310   -0.9870 N.pl3 171  ARG171      0.1354
@<TRIPOS>BOND
     1   101   100    1
     2   100    99   ar
     3   100    98   ar
     4    99    97   ar
     5    89    88    1
     6    88    85    1
     7    98    96   ar
     8     7     6    1
     9     7     8    1
    10     1     2    1
    11    75    73   ar
    12    75    76   ar
    13    97    95   ar
    14     5     6    1
    15     5     2    1
    16    73    71   ar
    17    77    76    1
    18     2     3    1
    19    76    74   ar
    20     9     8    1
    21    96    95   ar
    22    85    86    1
    23    85    84    1
    24    95    94    1
    25    87    86    2
    26    86    90   am
    27    71    70    1
    28    71    72   ar
    29    84    80   am
    30    74    72   ar
    31    70    67    1
    32    90    91    1
    33     3     4    2
    34    69    68    2
    35    94    91    1
    36    91    92    1
    37    68    67    1
    38    68    78   am
    39   124   122    1
    40   121   122    2
    41   121   120    1
    42    80    81    2
    43    80    79    1
    44    67    66    1
    45    17    15    1
    46    66    59   am
    47   122   123    1
    48   120   119    1
    49    29    30    1
    50    79    78    1
    51    79    82    1
    52    92    93    2
    53    92   102   am
    54   117   116    2
    55    65    63   ar
    56    15    16    1
    57    15    14    1
    58   119   118    1
    59   102   103    1
    60    62    63    1
    61    62    61    1
    62    30    33    1
    63    30    31    1
    64    59    58    1
    65    59    60    2
    66    53    52    2
    67    58    61    1
    68    58    57    1
    69    63    64   ar
    70   118   115    1
    71   116   115    1
    72    82    83    1
    73    10    11    1
    74    31    32    2
    75    11    14    1
    76    11    12    1
    77   103   104    1
    78    52    57   am
    79    52    51    1
    80   115   114    1
    81    50    51    1
    82   105   104    2
    83   104   106   am
    84    12    13    2
    85    12    18   am
    86    51    54    1
    87    25    24    2
    88    24    23    1
    89    55    54    1
    90   127   128    2
    91   127   126    1
    92    18    19    1
    93   106   107    1
    94    28    26    1
    95    54    56    1
    96   129   130    1
    97   129   126    1
    98   109   108    2
    99    23    26    1
   100    23    22    1
   101   130   132    1
   102   130   131    1
   103   126   125    1
   104    34    35    1
   105    26    27    1
   106    48    47    1
   107   107   108    1
   108   107   110    1
   109    19    20    1
   110    44    45    1
   111    44    47    1
   112    44    43    1
   113    45    46    2
   114    49    47    1
   115    21    20    2
   116   112   111   ar
   117    35    36    1
   118    35    38    1
   119    37    36    2
   120   111   110    1
   121   111   113   ar
   122    39    38    1
   123    39    40    1
   124   142   143   ar
   125   142   140   ar
   126   156   153    1
   127   143   141   ar
   128    41    40    1
   129    41    42    1
   130   140   138   ar
   131   141   139   ar
   132   155   154    2
   133   138   139   ar
   134   138   137    1
   135   153   154    1
   136   153   152    1
   137   154   157   am
   138   137   134    1
   139   166   165    1
   140   150   149    1
   141   152   146   am
   142   147   146    2
   143   134   135    1
   144   134   133    1
   145   167   165    1
   146   157   158    1
   147   146   145    1
   148   165   164    2
   149   136   135    2
   150   148   149    1
   151   148   145    1
   152   158   161    1
   153   158   159    1
   154   149   151    1
   155   161   162    1
   156   162   163    1
   157   145   144    1
   158   164   163    1
   159   159   160    2
