@<TRIPOS>MOLECULE
tmp/3kroD00.pdb
 163 154 0 0 0
SMALL
GASTEIGER

@<TRIPOS>ATOM
      1  N        -26.1000  -10.1110   28.9250 N.3    43  GLY43      -0.1210
      2  CA       -26.2550  -11.4020   28.2620 C.3    43  GLY43       0.1956
      3  C        -25.6680  -12.5050   29.1320 C.2    43  GLY43       0.2612
      4  O        -25.0660  -12.2310   30.1700 O.2    43  GLY43      -0.2717
      5  N        -25.8140  -13.7540   28.7150 N.am   44  LYS44      -0.1965
      6  CA       -25.2680  -14.8790   29.4730 C.3    44  LYS44       0.1728
      7  C        -23.7160  -14.9380   29.3740 C.2    44  LYS44       0.2616
      8  O        -23.0610  -15.5820   30.1870 O.2    44  LYS44      -0.2715
      9  CB       -25.8720  -16.1840   28.9460 C.3    44  LYS44       0.0311
     10  CG       -27.4140  -16.1690   28.9200 C.3    44  LYS44       0.0038
     11  CD       -27.9230  -17.4420   28.2780 C.3    44  LYS44       0.0206
     12  CE       -27.9440  -17.3840   26.7640 C.3    44  LYS44       0.1093
     13  NZ       -28.8240  -16.2990   26.2300 N.3    44  LYS44      -0.1314
     14  N        -23.1440  -14.2940   28.3580 N.am   45  ARG45      -0.1963
     15  CA       -21.6750  -14.2840   28.1920 C.3    45  ARG45       0.1729
     16  C        -21.1720  -15.6810   27.8910 C.2    45  ARG45       0.2616
     17  O        -20.1110  -16.1070   28.3640 O.2    45  ARG45      -0.2715
     18  CB       -21.0000  -13.7420   29.4610 C.3    45  ARG45       0.0348
     19  CG       -21.6490  -12.4660   29.9690 C.3    45  ARG45       0.0492
     20  CD       -21.6970  -11.3870   28.8790 C.3    45  ARG45       0.2205
     21  NE       -21.9390  -10.1140   29.4970 N.pl3  45  ARG45      -0.0865
     22  CZ       -22.4160   -9.0430   28.8840 C.cat  45  ARG45       0.5346
     23  NH1      -22.7490   -9.0670   27.5930 N.pl3  45  ARG45       0.1354
     24  NH2      -22.4830   -7.9200   29.5820 N.pl3  45  ARG45       0.1354
     25  N        -21.9480  -16.4280   27.1200 N.am   46  VAL46      -0.1963
     26  CA       -21.5410  -17.7700   26.7280 C.3    46  VAL46       0.1727
     27  C        -20.2820  -17.7600   25.8640 C.2    46  VAL46       0.2616
     28  O        -19.3690  -18.5970   26.0610 O.2    46  VAL46      -0.2715
     29  CB       -22.6910  -18.4630   25.9440 C.3    46  VAL46       0.0290
     30  CG1      -22.2340  -19.8160   25.3570 C.3    46  VAL46       0.0023
     31  CG2      -23.8500  -18.6980   26.9650 C.3    46  VAL46       0.0023
     32  N        -20.2360  -16.8060   24.9390 N.am   47  ARG47      -0.1977
     33  CA       -19.1240  -16.7310   24.0220 C.3    47  ARG47       0.1597
     34  C        -17.8520  -16.3850   24.7590 C.2    47  ARG47       0.2287
     35  O        -16.8670  -17.0820   24.5780 O.2    47  ARG47      -0.2864
     36  CB       -19.4080  -15.7600   22.8930 C.3    47  ARG47       0.0334
     37  CG       -20.4860  -16.3200   21.9610 C.3    47  ARG47       0.0492
     38  CD       -21.1630  -15.2550   21.0780 C.3    47  ARG47       0.2205
     39  NE       -22.3400  -15.8280   20.3880 N.pl3  47  ARG47      -0.0865
     40  CZ       -23.4860  -16.0360   21.0220 C.cat  47  ARG47       0.5346
     41  NH1      -24.5570  -16.5680   20.4040 N.pl3  47  ARG47       0.1354
     42  NH2      -23.5460  -15.6680   22.2650 N.pl3  47  ARG47       0.1354
     43  N        -17.6070  -10.8420   22.5830 N.3    73  GLU73      -0.1245
     44  CA       -18.8760  -10.4040   23.1670 C.3    73  GLU73       0.1567
     45  C        -19.2310   -9.0150   22.5920 C.2    73  GLU73       0.2260
     46  O        -20.3960   -8.6300   22.4770 O.2    73  GLU73      -0.2867
     47  CB       -18.7580  -10.3720   24.6940 C.3    73  GLU73       0.0388
     48  CG       -20.0270   -9.9660   25.4070 C.3    73  GLU73       0.1160
     49  CD       -21.1630  -10.9970   25.1880 C.2    73  GLU73       0.3649
     50  OE1      -22.3510  -10.6000   25.3760 O.co2  73  GLU73      -0.2457
     51  OE2      -20.8920  -12.1900   24.8340 O.co2  73  GLU73      -0.2457
     52  N        -20.5990   -9.9120   19.1650 N.3    76  HIS76      -0.1241
     53  CA       -21.8760  -10.5930   19.3640 C.3    76  HIS76       0.1621
     54  C        -22.9420   -9.5290   19.6760 C.2    76  HIS76       0.2264
     55  O        -24.0310   -9.5330   19.0980 O.2    76  HIS76      -0.2867
     56  CB       -21.7720  -11.6280   20.4960 C.3    76  HIS76       0.0745
     57  CG       -23.1020  -12.1470   20.9930 C.ar   76  HIS76       0.0817
     58  ND1      -24.0010  -12.8060   20.1730 N.ar   76  HIS76      -0.2268
     59  CD2      -23.6830  -12.0970   22.2150 C.ar   76  HIS76       0.1154
     60  CE1      -25.0810  -13.1270   20.8650 C.ar   76  HIS76       0.1986
     61  NE2      -24.9180  -12.7170   22.1070 N.ar   76  HIS76      -0.2212
     62  N        -26.5280   -8.1480   17.5420 N.3    80  LEU80      -0.1245
     63  CA       -27.9260   -8.1740   18.0430 C.3    80  LEU80       0.1561
     64  C        -28.5190   -6.7810   17.8820 C.2    80  LEU80       0.2260
     65  O        -29.7460   -6.6380   17.6090 O.2    80  LEU80      -0.2867
     66  CB       -27.9970   -8.5270   19.5070 C.3    80  LEU80       0.0270
     67  CG       -27.1910   -9.7360   20.0110 C.3    80  LEU80       0.0019
     68  CD1      -27.4670   -9.9160   21.5170 C.3    80  LEU80       0.0001
     69  CD2      -27.5230  -10.9700   19.2180 C.3    80  LEU80       0.0001
     70  N        -34.6560   -6.3430   24.0600 N.3    94  ARG94      -0.1231
     71  CA       -33.3870   -7.1090   23.9660 C.3    94  ARG94       0.1694
     72  C        -32.6890   -6.9680   25.3040 C.2    94  ARG94       0.2591
     73  O        -32.4940   -5.8490   25.8140 O.2    94  ARG94      -0.2718
     74  CB       -32.5050   -6.5380   22.8510 C.3    94  ARG94       0.0321
     75  CG       -31.0880   -7.1310   22.7720 C.3    94  ARG94       0.0489
     76  CD       -31.0560   -8.5620   22.3330 C.3    94  ARG94       0.2205
     77  NE       -31.3770   -8.6410   20.9280 N.pl3  94  ARG94      -0.0865
     78  CZ       -31.4870   -9.7700   20.2680 C.cat  94  ARG94       0.5346
     79  NH1      -31.7880   -9.7450   18.9700 N.pl3  94  ARG94       0.1354
     80  NH2      -31.2830  -10.9210   20.8770 N.pl3  94  ARG94       0.1354
     81  N        -32.2960   -8.0960   25.8770 N.am   95  ARG95      -0.1980
     82  CA       -31.6410   -8.1310   27.1850 C.3    95  ARG95       0.1597
     83  C        -32.4630   -7.4060   28.2450 C.2    95  ARG95       0.2287
     84  O        -31.9120   -6.6650   29.0710 O.2    95  ARG95      -0.2864
     85  CB       -30.2070   -7.5660   27.1080 C.3    95  ARG95       0.0334
     86  CG       -29.3040   -8.4810   26.1810 C.3    95  ARG95       0.0492
     87  CD       -27.9050   -7.9760   25.9640 C.3    95  ARG95       0.2205
     88  NE       -27.0870   -9.0680   25.4570 N.pl3  95  ARG95      -0.0865
     89  CZ       -25.8240   -8.9210   25.0490 C.cat  95  ARG95       0.5346
     90  NH1      -25.2470   -7.7230   25.1060 N.pl3  95  ARG95       0.1354
     91  NH2      -25.1540   -9.9640   24.5470 N.pl3  95  ARG95       0.1354
     92  N        -24.7080  -18.2060   10.8880 N.3   180  LYS180     -0.1231
     93  CA       -25.2760  -17.1420   11.6710 C.3   180  LYS180      0.1693
     94  C        -24.9200  -17.2610   13.1520 C.2   180  LYS180      0.2592
     95  O        -24.7500  -16.2510   13.8460 O.2   180  LYS180     -0.2718
     96  CB       -26.8150  -17.1720   11.3950 C.3   180  LYS180      0.0285
     97  CG       -27.7750  -16.6490   12.4270 C.3   180  LYS180      0.0035
     98  CD       -29.2410  -16.7130   11.9000 C.3   180  LYS180      0.0206
     99  CE       -30.2230  -16.9520   13.0670 C.3   180  LYS180      0.1093
    100  NZ       -31.6710  -16.9320   12.7260 N.3   180  LYS180     -0.1314
    101  N        -24.8120  -18.4920   13.6360 N.am  181  THR181     -0.1953
    102  CA       -24.5610  -18.7120   15.0500 C.3   181  THR181      0.1897
    103  C        -23.3600  -19.5700   15.3430 C.2   181  THR181      0.2313
    104  O        -22.5370  -19.1810   16.1820 O.2   181  THR181     -0.2863
    105  CB       -25.7620  -19.3750   15.7380 C.3   181  THR181      0.1794
    106  OG1      -26.9220  -18.5580   15.5290 O.3   181  THR181     -0.2208
    107  CG2      -25.5010  -19.5550   17.2520 C.3   181  THR181      0.0378
    108  N        -26.6140  -24.3950   19.8130 N.3   217  PHE217     -0.1227
    109  CA       -27.0510  -23.1060   20.3850 C.3   217  PHE217      0.1736
    110  C        -28.2430  -22.5110   19.5780 C.2   217  PHE217      0.2595
    111  O        -29.1700  -21.9510   20.1800 O.2   217  PHE217     -0.2718
    112  CB       -25.8980  -22.0820   20.3780 C.3   217  PHE217      0.0547
    113  CG       -26.1320  -20.8770   21.2710 C.ar  217  PHE217     -0.0202
    114  CD1      -25.6240  -20.8430   22.5660 C.ar  217  PHE217     -0.0042
    115  CD2      -26.8740  -19.8120   20.8330 C.ar  217  PHE217     -0.0042
    116  CE1      -25.8530  -19.7740   23.4200 C.ar  217  PHE217     -0.0003
    117  CE2      -27.1100  -18.7320   21.6800 C.ar  217  PHE217     -0.0003
    118  CZ       -26.6020  -18.7120   22.9770 C.ar  217  PHE217     -0.0000
    119  N        -28.2160  -22.6540   18.2470 N.am  218  GLN218     -0.1979
    120  CA       -29.2970  -22.1130   17.4110 C.3   218  GLN218      0.1601
    121  C        -30.5740  -22.9780   17.4270 C.2   218  GLN218      0.2287
    122  O        -31.7140  -22.4540   17.3530 O.2   218  GLN218     -0.2864
    123  CB       -28.8280  -21.9190   15.9650 C.3   218  GLN218      0.0394
    124  CG       -29.8080  -21.1290   15.0800 C.3   218  GLN218      0.0908
    125  CD       -30.1280  -19.7700   15.6770 C.2   218  GLN218      0.2608
    126  OE1      -29.2050  -19.0190   16.0320 O.2   218  GLN218     -0.2717
    127  NE2      -31.4250  -19.4520   15.8200 N.am  218  GLN218     -0.0878
    128  N        -32.0110  -22.0160   20.4650 N.3   221  ASP221     -0.1239
    129  CA       -32.5840  -20.6870   20.3800 C.3   221  ASP221      0.1674
    130  C        -33.9820  -20.8190   19.6970 C.2   221  ASP221      0.2266
    131  O        -34.9870  -20.2990   20.2310 O.2   221  ASP221     -0.2867
    132  CB       -31.7120  -19.7530   19.5460 C.3   221  ASP221      0.1410
    133  CG       -32.2340  -18.3130   19.5420 C.2   221  ASP221      0.3668
    134  OD1      -32.1860  -17.6390   20.6110 O.co2 221  ASP221     -0.2456
    135  OD2      -32.7020  -17.8480   18.4730 O.co2 221  ASP221     -0.2456
    136  N        -36.2350  -10.7210   25.3240 N.3   235  LYS235     -0.1245
    137  CA       -36.2850  -10.1430   23.9860 C.3   235  LYS235      0.1561
    138  C        -37.6200  -10.5000   23.3740 C.2   235  LYS235      0.2260
    139  O        -38.3090  -11.3980   23.8600 O.2   235  LYS235     -0.2867
    140  CB       -35.1700  -10.7320   23.1090 C.3   235  LYS235      0.0271
    141  CG       -35.2610  -12.2550   22.8950 C.3   235  LYS235      0.0035
    142  CD       -33.9870  -12.8210   22.3300 C.3   235  LYS235      0.0206
    143  CE       -34.1160  -14.3170   22.0870 C.3   235  LYS235      0.1093
    144  NZ       -32.9330  -14.8750   21.3850 N.3   235  LYS235     -0.1314
    145  N        -30.3620  -24.3130   29.0550 N.3   293  ARG293     -0.1245
    146  CA       -30.6740  -22.9910   29.5800 C.3   293  ARG293      0.1563
    147  C        -32.1390  -22.6780   29.3250 C.2   293  ARG293      0.2260
    148  O        -32.7770  -23.2980   28.4770 O.2   293  ARG293     -0.2867
    149  CB       -29.8150  -21.9510   28.8810 C.3   293  ARG293      0.0307
    150  CG       -30.0350  -21.9170   27.3560 C.3   293  ARG293      0.0489
    151  CD       -28.7380  -21.5680   26.6770 C.3   293  ARG293      0.2205
    152  NE       -28.8660  -21.6030   25.2410 N.pl3 293  ARG293     -0.0865
    153  CZ       -29.4630  -20.6670   24.5090 C.cat 293  ARG293      0.5346
    154  NH1      -29.5090  -20.8430   23.1800 N.pl3 293  ARG293      0.1354
    155  NH2      -30.0090  -19.5740   25.0870 N.pl3 293  ARG293      0.1354
    156  N        -33.0930  -19.2870   28.8340 N.3   295  ASN295     -0.1240
    157  CA       -33.0810  -18.0490   28.0770 C.3   295  ASN295      0.1653
    158  C        -31.6860  -17.8260   27.4220 C.2   295  ASN295      0.2266
    159  O        -30.8840  -18.8000   27.3710 O.2   295  ASN295     -0.2867
    160  CB       -33.4050  -16.9400   29.0540 C.3   295  ASN295      0.1155
    161  CG       -32.5120  -16.9780   30.2940 C.2   295  ASN295      0.2627
    162  OD1      -32.9700  -16.6740   31.3920 O.2   295  ASN295     -0.2716
    163  ND2      -31.2230  -17.3260   30.1180 N.am  295  ASN295     -0.0877
@<TRIPOS>BOND
     1    92    93    1
     2    96    93    1
     3    96    97    1
     4    93    94    1
     5    98    97    1
     6    98    99    1
     7   100    99    1
     8    94   101   am
     9    94    95    2
    10   101   102    1
    11   102   103    1
    12   102   105    1
    13   124   125    1
    14   124   123    1
    15   103   104    2
    16   106   105    1
    17   125   127   am
    18   125   126    2
    19   105   107    1
    20   123   120    1
    21   122   121    2
    22   120   121    1
    23   120   119    1
    24    62    63    1
    25    65    64    2
    26    64    63    1
    27    63    66    1
    28   119   110   am
    29   135   133   ar
    30    79    78    1
    31    55    54    2
    32    52    53    1
    33    69    67    1
    34    53    54    1
    35    53    56    1
    36    66    67    1
    37   133   132    1
    38   133   134   ar
    39   132   129    1
    40   110   111    2
    41   110   109    1
    42   130   131    2
    43   130   129    1
    44   108   109    1
    45    67    68    1
    46    58    60   ar
    47    58    57   ar
    48    78    80    1
    49    78    77    2
    50   112   109    1
    51   112   113    1
    52   129   128    1
    53    39    40    2
    54    39    38    1
    55    41    40    1
    56    56    57    1
    57   115   113   ar
    58   115   117   ar
    59    60    61   ar
    60    77    76    1
    61    57    59   ar
    62    40    42    1
    63    38    37    1
    64   113   114   ar
    65   144   143    1
    66   117   118   ar
    67    37    36    1
    68   143   142    1
    69    61    59   ar
    70   142   141    1
    71    76    75    1
    72    46    45    2
    73   114   116   ar
    74    43    44    1
    75    45    44    1
    76    75    74    1
    77    74    71    1
    78    36    33    1
    79   141   140    1
    80   118   116   ar
    81   140   137    1
    82    44    47    1
    83   154   153    1
    84   138   139    2
    85   138   137    1
    86    71    70    1
    87    71    72    1
    88   137   136    1
    89    33    34    1
    90    33    32    1
    91   153   155    1
    92   153   152    2
    93    91    89    1
    94    35    34    2
    95    47    48    1
    96    51    49   ar
    97    32    27   am
    98    89    90    1
    99    89    88    2
   100    49    50   ar
   101    49    48    1
   102   152   151    1
   103    72    73    2
   104    72    81   am
   105    30    29    1
   106    88    87    1
   107    27    28    2
   108    27    26    1
   109    81    82    1
   110    29    26    1
   111    29    31    1
   112    87    86    1
   113    86    85    1
   114    13    12    1
   115   151   150    1
   116    26    25    1
   117    12    11    1
   118    85    82    1
   119    25    16   am
   120    82    83    1
   121   150   149    1
   122   159   158    2
   123   158   157    1
   124    23    22    1
   125    16    15    1
   126    16    17    2
   127   157   156    1
   128   157   160    1
   129    15    14    1
   130    15    18    1
   131    83    84    2
   132     2     1    1
   133     2     3    1
   134    11    10    1
   135    14     7   am
   136   148   147    2
   137     5     3   am
   138     5     6    1
   139    20    21    1
   140    20    19    1
   141   149   146    1
   142    22    21    2
   143    22    24    1
   144    10     9    1
   145     9     6    1
   146   160   161    1
   147   145   146    1
   148     3     4    2
   149   147   146    1
   150     7     6    1
   151     7     8    2
   152    18    19    1
   153   163   161   am
   154   161   162    2
