@<TRIPOS>MOLECULE
tmp/3kroD01.pdb
 174 159 0 0 0
SMALL
GASTEIGER

@<TRIPOS>ATOM
      1  N        -20.5990   -9.9120   19.1650 N.3    76  HIS76      -0.1241
      2  CA       -21.8760  -10.5930   19.3640 C.3    76  HIS76       0.1621
      3  C        -22.9420   -9.5290   19.6760 C.2    76  HIS76       0.2264
      4  O        -24.0310   -9.5330   19.0980 O.2    76  HIS76      -0.2867
      5  CB       -21.7720  -11.6280   20.4960 C.3    76  HIS76       0.0745
      6  CG       -23.1020  -12.1470   20.9930 C.ar   76  HIS76       0.0817
      7  ND1      -24.0010  -12.8060   20.1730 N.ar   76  HIS76      -0.2268
      8  CD2      -23.6830  -12.0970   22.2150 C.ar   76  HIS76       0.1154
      9  CE1      -25.0810  -13.1270   20.8650 C.ar   76  HIS76       0.1986
     10  NE2      -24.9180  -12.7170   22.1070 N.ar   76  HIS76      -0.2212
     11  N        -23.9670   -7.4210   16.8330 N.3    79  SER79      -0.1202
     12  CA       -24.7090   -8.1250   15.8550 C.3    79  SER79       0.2020
     13  C        -26.2320   -8.1950   16.2550 C.2    79  SER79       0.2618
     14  O        -27.0940   -8.2640   15.3470 O.2    79  SER79      -0.2717
     15  CB       -24.1290   -9.5030   15.5970 C.3    79  SER79       0.2103
     16  OG       -24.4500  -10.3600   16.6440 O.3    79  SER79      -0.2182
     17  N        -26.5280   -8.1480   17.5420 N.am   80  LEU80      -0.1979
     18  CA       -27.9260   -8.1740   18.0430 C.3    80  LEU80       0.1596
     19  C        -28.5190   -6.7810   17.8820 C.2    80  LEU80       0.2287
     20  O        -29.7460   -6.6380   17.6090 O.2    80  LEU80      -0.2864
     21  CB       -27.9970   -8.5270   19.5070 C.3    80  LEU80       0.0297
     22  CG       -27.1910   -9.7360   20.0110 C.3    80  LEU80       0.0022
     23  CD1      -27.4670   -9.9160   21.5170 C.3    80  LEU80       0.0001
     24  CD2      -27.5230  -10.9700   19.2180 C.3    80  LEU80       0.0001
     25  N        -29.3280   -6.5740   14.3880 N.3    83  ASP83      -0.1225
     26  CA       -30.3790   -7.5540   14.0780 C.3    83  ASP83       0.1805
     27  C        -31.7580   -7.0410   14.4980 C.2    83  ASP83       0.2597
     28  O        -32.7890   -7.4210   13.9140 O.2    83  ASP83      -0.2718
     29  CB       -30.1330   -8.8740   14.8200 C.3    83  ASP83       0.1424
     30  CG       -31.1620   -9.9830   14.4490 C.2    83  ASP83       0.3668
     31  OD1      -31.0860  -10.5660   13.3350 O.co2  83  ASP83      -0.2456
     32  OD2      -32.0440  -10.2640   15.2900 O.co2  83  ASP83      -0.2456
     33  N        -31.7670   -6.2360   15.5360 N.am   84  ASP84      -0.1974
     34  CA       -33.0050   -5.6890   16.0830 C.3    84  ASP84       0.1709
     35  C        -33.6130   -4.5290   15.3180 C.2    84  ASP84       0.2293
     36  O        -34.7930   -4.2310   15.5340 O.2    84  ASP84      -0.2864
     37  CB       -32.7920   -5.1930   17.5200 C.3    84  ASP84       0.1436
     38  CG       -32.5420   -6.3140   18.5060 C.2    84  ASP84       0.3671
     39  OD1      -33.0010   -7.4760   18.3070 O.co2  84  ASP84      -0.2456
     40  OD2      -31.8930   -6.0020   19.5400 O.co2  84  ASP84      -0.2456
     41  N        -34.9550   -7.3070   12.0280 N.3    89  ASP89      -0.1239
     42  CA       -36.0600   -8.0280   12.6750 C.3    89  ASP89       0.1674
     43  C        -37.0260   -7.0670   13.2960 C.2    89  ASP89       0.2266
     44  O        -38.0950   -7.4860   13.6690 O.2    89  ASP89      -0.2867
     45  CB       -35.6150   -9.0530   13.7590 C.3    89  ASP89       0.1410
     46  CG       -34.8230  -10.2200   13.1910 C.2    89  ASP89       0.3668
     47  OD1      -34.9250  -10.5000   11.9930 O.co2  89  ASP89      -0.2456
     48  OD2      -34.0870  -10.8930   13.9310 O.co2  89  ASP89      -0.2456
     49  N        -37.2940   -5.2870   16.3660 N.3    91  ASP91      -0.1239
     50  CA       -37.7550   -5.6710   17.6790 C.3    91  ASP91       0.1674
     51  C        -37.7430   -4.5290   18.6490 C.2    91  ASP91       0.2266
     52  O        -37.0920   -3.5200   18.4460 O.2    91  ASP91      -0.2867
     53  CB       -36.9020   -6.8060   18.2330 C.3    91  ASP91       0.1410
     54  CG       -37.2600   -8.1460   17.6490 C.2    91  ASP91       0.3668
     55  OD1      -36.6210   -9.1480   18.0100 O.co2  91  ASP91      -0.2456
     56  OD2      -38.1800   -8.2190   16.8340 O.co2  91  ASP91      -0.2456
     57  N        -34.6560   -6.3430   24.0600 N.3    94  ARG94      -0.1245
     58  CA       -33.3870   -7.1090   23.9660 C.3    94  ARG94       0.1563
     59  C        -32.6890   -6.9680   25.3040 C.2    94  ARG94       0.2260
     60  O        -32.4940   -5.8490   25.8140 O.2    94  ARG94      -0.2867
     61  CB       -32.5050   -6.5380   22.8510 C.3    94  ARG94       0.0307
     62  CG       -31.0880   -7.1310   22.7720 C.3    94  ARG94       0.0489
     63  CD       -31.0560   -8.5620   22.3330 C.3    94  ARG94       0.2205
     64  NE       -31.3770   -8.6410   20.9280 N.pl3  94  ARG94      -0.0865
     65  CZ       -31.4870   -9.7700   20.2680 C.cat  94  ARG94       0.5346
     66  NH1      -31.7880   -9.7450   18.9700 N.pl3  94  ARG94       0.1354
     67  NH2      -31.2830  -10.9210   20.8770 N.pl3  94  ARG94       0.1354
     68  N        -20.6670  -15.2840   10.3420 N.3   152  LEU152     -0.1245
     69  CA       -21.8450  -14.5920   10.8780 C.3   152  LEU152      0.1561
     70  C        -22.6050  -13.7750    9.8610 C.2   152  LEU152      0.2260
     71  O        -23.8490  -13.9310    9.7430 O.2   152  LEU152     -0.2867
     72  CB       -21.4830  -13.7040   12.1060 C.3   152  LEU152      0.0270
     73  CG       -22.5830  -13.0790   13.0470 C.3   152  LEU152      0.0019
     74  CD1      -21.9290  -12.5510   14.3580 C.3   152  LEU152      0.0001
     75  CD2      -23.3360  -11.8460   12.3310 C.3   152  LEU152      0.0001
     76  N        -26.5790  -14.4730    8.2900 N.3   156  GLN156     -0.1245
     77  CA       -27.4980  -13.4220    8.5830 C.3   156  GLN156      0.1566
     78  C        -28.1150  -12.8600    7.2510 C.2   156  GLN156      0.2260
     79  O        -29.3310  -12.5910    7.1660 O.2   156  GLN156     -0.2867
     80  CB       -26.6890  -12.4240    9.4250 C.3   156  GLN156      0.0367
     81  CG       -27.3900  -11.4370   10.2440 C.3   156  GLN156      0.0905
     82  CD       -28.2030  -11.9630   11.4500 C.2   156  GLN156      0.2608
     83  OE1      -28.4560  -13.1520   11.6070 O.2   156  GLN156     -0.2717
     84  NE2      -28.6330  -11.0320   12.2750 N.am  156  GLN156     -0.0878
     85  N        -30.2580  -15.4680    5.8170 N.3   159  ASP159     -0.1239
     86  CA       -31.4450  -15.5850    6.6620 C.3   159  ASP159      0.1674
     87  C        -32.5150  -14.6090    6.1990 C.2   159  ASP159      0.2266
     88  O        -33.6680  -14.9660    6.1180 O.2   159  ASP159     -0.2867
     89  CB       -31.0950  -15.3360    8.1470 C.3   159  ASP159      0.1410
     90  CG       -32.2190  -15.8250    9.1410 C.2   159  ASP159      0.3668
     91  OD1      -32.9000  -16.8450    8.8670 O.co2 159  ASP159     -0.2456
     92  OD2      -32.4130  -15.2130   10.2240 O.co2 159  ASP159     -0.2456
     93  N        -24.7080  -18.2060   10.8880 N.3   180  LYS180     -0.1231
     94  CA       -25.2760  -17.1420   11.6710 C.3   180  LYS180      0.1693
     95  C        -24.9200  -17.2610   13.1520 C.2   180  LYS180      0.2592
     96  O        -24.7500  -16.2510   13.8460 O.2   180  LYS180     -0.2718
     97  CB       -26.8150  -17.1720   11.3950 C.3   180  LYS180      0.0285
     98  CG       -27.7750  -16.6490   12.4270 C.3   180  LYS180      0.0035
     99  CD       -29.2410  -16.7130   11.9000 C.3   180  LYS180      0.0206
    100  CE       -30.2230  -16.9520   13.0670 C.3   180  LYS180      0.1093
    101  NZ       -31.6710  -16.9320   12.7260 N.3   180  LYS180     -0.1314
    102  N        -24.8120  -18.4920   13.6360 N.am  181  THR181     -0.1953
    103  CA       -24.5610  -18.7120   15.0500 C.3   181  THR181      0.1897
    104  C        -23.3600  -19.5700   15.3430 C.2   181  THR181      0.2313
    105  O        -22.5370  -19.1810   16.1820 O.2   181  THR181     -0.2863
    106  CB       -25.7620  -19.3750   15.7380 C.3   181  THR181      0.1794
    107  OG1      -26.9220  -18.5580   15.5290 O.3   181  THR181     -0.2208
    108  CG2      -25.5010  -19.5550   17.2520 C.3   181  THR181      0.0378
    109  N        -28.2160  -22.6540   18.2470 N.3   218  GLN218     -0.1245
    110  CA       -29.2970  -22.1130   17.4110 C.3   218  GLN218      0.1566
    111  C        -30.5740  -22.9780   17.4270 C.2   218  GLN218      0.2260
    112  O        -31.7140  -22.4540   17.3530 O.2   218  GLN218     -0.2867
    113  CB       -28.8280  -21.9190   15.9650 C.3   218  GLN218      0.0367
    114  CG       -29.8080  -21.1290   15.0800 C.3   218  GLN218      0.0905
    115  CD       -30.1280  -19.7700   15.6770 C.2   218  GLN218      0.2608
    116  OE1      -29.2050  -19.0190   16.0320 O.2   218  GLN218     -0.2717
    117  NE2      -31.4250  -19.4520   15.8200 N.am  218  GLN218     -0.0878
    118  N        -32.0110  -22.0160   20.4650 N.3   221  ASP221     -0.1225
    119  CA       -32.5840  -20.6870   20.3800 C.3   221  ASP221      0.1805
    120  C        -33.9820  -20.8190   19.6970 C.2   221  ASP221      0.2597
    121  O        -34.9870  -20.2990   20.2310 O.2   221  ASP221     -0.2718
    122  CB       -31.7120  -19.7530   19.5460 C.3   221  ASP221      0.1424
    123  CG       -32.2340  -18.3130   19.5420 C.2   221  ASP221      0.3668
    124  OD1      -32.1860  -17.6390   20.6110 O.co2 221  ASP221     -0.2456
    125  OD2      -32.7020  -17.8480   18.4730 O.co2 221  ASP221     -0.2456
    126  N        -34.0210  -21.4980   18.5330 N.am  222  ASP222     -0.1974
    127  CA       -35.2780  -21.6890   17.7530 C.3   222  ASP222      0.1709
    128  C        -36.4200  -22.2880   18.6200 C.2   222  ASP222      0.2293
    129  O        -37.5680  -21.8850   18.4630 O.2   222  ASP222     -0.2864
    130  CB       -35.0660  -22.6200   16.5290 C.3   222  ASP222      0.1436
    131  CG       -34.3290  -21.9500   15.3520 C.2   222  ASP222      0.3671
    132  OD1      -34.0610  -20.7300   15.4140 O.co2 222  ASP222     -0.2456
    133  OD2      -34.0110  -22.6550   14.3530 O.co2 222  ASP222     -0.2456
    134  N        -37.5990  -19.7550   21.4120 N.3   225  ASP225     -0.1239
    135  CA       -38.3910  -18.7600   20.7270 C.3   225  ASP225      0.1674
    136  C        -39.8870  -19.1080   20.7080 C.2   225  ASP225      0.2266
    137  O        -40.7360  -18.2120   20.7740 O.2   225  ASP225     -0.2867
    138  CB       -37.8890  -18.6240   19.3060 C.3   225  ASP225      0.1410
    139  CG       -38.6870  -17.6420   18.5110 C.2   225  ASP225      0.3668
    140  OD1      -38.5440  -16.4280   18.7810 O.co2 225  ASP225     -0.2456
    141  OD2      -39.4610  -18.0800   17.6220 O.co2 225  ASP225     -0.2456
    142  N        -36.2350  -10.7210   25.3240 N.3   235  LYS235     -0.1231
    143  CA       -36.2850  -10.1430   23.9860 C.3   235  LYS235      0.1693
    144  C        -37.6200  -10.5000   23.3740 C.2   235  LYS235      0.2592
    145  O        -38.3090  -11.3980   23.8600 O.2   235  LYS235     -0.2718
    146  CB       -35.1700  -10.7320   23.1090 C.3   235  LYS235      0.0285
    147  CG       -35.2610  -12.2550   22.8950 C.3   235  LYS235      0.0035
    148  CD       -33.9870  -12.8210   22.3300 C.3   235  LYS235      0.0206
    149  CE       -34.1160  -14.3170   22.0870 C.3   235  LYS235      0.1093
    150  NZ       -32.9330  -14.8750   21.3850 N.3   235  LYS235     -0.1314
    151  N        -37.9810   -9.8230   22.3000 N.am  236  THR236     -0.1953
    152  CA       -39.2290  -10.0970   21.5970 C.3   236  THR236      0.1897
    153  C        -39.2240  -11.5530   21.1210 C.2   236  THR236      0.2313
    154  O        -38.4100  -11.9280   20.2730 O.2   236  THR236     -0.2863
    155  CB       -39.3410   -9.1860   20.3820 C.3   236  THR236      0.1794
    156  OG1      -38.9550   -7.8670   20.7640 O.3   236  THR236     -0.2208
    157  CG2      -40.7500   -9.1500   19.8610 C.3   236  THR236      0.0378
    158  N        -40.6770  -15.4520   14.9740 N.3   240  ASP240     -0.1239
    159  CA       -40.0510  -16.3470   14.0060 C.3   240  ASP240      0.1674
    160  C        -41.1170  -17.2900   13.4250 C.2   240  ASP240      0.2266
    161  O        -40.9330  -17.8790   12.3500 O.2   240  ASP240     -0.2867
    162  CB       -38.9010  -17.1510   14.6620 C.3   240  ASP240      0.1410
    163  CG       -37.6540  -16.2790   14.9840 C.2   240  ASP240      0.3668
    164  OD1      -37.2160  -15.5100   14.0980 O.co2 240  ASP240     -0.2456
    165  OD2      -37.1010  -16.3720   16.1150 O.co2 240  ASP240     -0.2456
    166  N        -39.7750  -17.5920    8.2830 N.3   245  LYS245     -0.1245
    167  CA       -38.3940  -17.9080    8.6530 C.3   245  LYS245      0.1561
    168  C        -38.0600  -19.4070    8.6460 C.2   245  LYS245      0.2260
    169  O        -38.9410  -20.2730    8.7370 O.2   245  LYS245     -0.2867
    170  CB       -38.0450  -17.3020   10.0310 C.3   245  LYS245      0.0271
    171  CG       -37.9380  -15.7740   10.0820 C.3   245  LYS245      0.0035
    172  CD       -37.2640  -15.3370   11.3730 C.3   245  LYS245      0.0206
    173  CE       -37.2130  -13.8210   11.5100 C.3   245  LYS245      0.1093
    174  NZ       -36.4130  -13.3490   12.6970 N.3   245  LYS245     -0.1314
@<TRIPOS>BOND
     1    85    86    1
     2    88    87    2
     3    87    86    1
     4    86    89    1
     5    79    78    2
     6    78    77    1
     7    89    90    1
     8   166   167    1
     9    76    77    1
    10    77    80    1
    11   168   167    1
    12   168   169    2
    13   167   170    1
    14    91    90   ar
    15    90    92   ar
    16    80    81    1
    17    71    70    2
    18    70    69    1
    19   170   171    1
    20   171   172    1
    21    81    82    1
    22    68    69    1
    23    69    72    1
    24    93    94    1
    25   172   173    1
    26    97    94    1
    27    97    98    1
    28    82    83    2
    29    82    84   am
    30   173   174    1
    31    94    95    1
    32    99    98    1
    33    99   100    1
    34    47    46   ar
    35    41    42    1
    36    72    73    1
    37    75    73    1
    38   161   160    2
    39    42    43    1
    40    42    45    1
    41   101   100    1
    42    73    74    1
    43    95   102   am
    44    95    96    2
    45    46    45    1
    46    46    48   ar
    47    43    44    2
    48    31    30   ar
    49   160   159    1
    50   102   103    1
    51    28    27    2
    52   159   162    1
    53   159   158    1
    54    26    25    1
    55    26    27    1
    56    26    29    1
    57   164   163   ar
    58   133   131   ar
    59    30    29    1
    60    30    32   ar
    61    27    33   am
    62   162   163    1
    63   163   165   ar
    64   103   104    1
    65   103   106    1
    66   114   115    1
    67   114   113    1
    68    35    36    2
    69    35    34    1
    70   104   105    2
    71    14    13    2
    72   131   132   ar
    73   131   130    1
    74   107   106    1
    75    33    34    1
    76    15    12    1
    77    15    16    1
    78   115   117   am
    79   115   116    2
    80   106   108    1
    81    12    13    1
    82    12    11    1
    83   113   110    1
    84    34    37    1
    85    13    17   am
    86    49    50    1
    87   130   127    1
    88    56    54   ar
    89   112   111    2
    90   110   111    1
    91   110   109    1
    92    37    38    1
    93    17    18    1
    94    20    19    2
    95   141   139   ar
    96    54    55   ar
    97    54    53    1
    98    50    53    1
    99    50    51    1
   100   127   126    1
   101   127   128    1
   102    19    18    1
   103    18    21    1
   104    39    38   ar
   105    52    51    2
   106   129   128    2
   107   125   123   ar
   108    38    40   ar
   109   139   140   ar
   110   139   138    1
   111   126   120   am
   112    66    65    1
   113     4     3    2
   114     1     2    1
   115    24    22    1
   116   138   135    1
   117     2     3    1
   118     2     5    1
   119    21    22    1
   120   123   122    1
   121   123   124   ar
   122   122   119    1
   123   120   121    2
   124   120   119    1
   125   157   155    1
   126    22    23    1
   127     7     9   ar
   128     7     6   ar
   129    65    67    1
   130    65    64    2
   131   154   153    2
   132   119   118    1
   133   155   156    1
   134   155   152    1
   135     5     6    1
   136   136   135    1
   137   136   137    2
   138   135   134    1
   139     9    10   ar
   140    64    63    1
   141     6     8   ar
   142   153   152    1
   143   150   149    1
   144   152   151    1
   145   149   148    1
   146    10     8   ar
   147   151   144   am
   148   148   147    1
   149    63    62    1
   150    62    61    1
   151    61    58    1
   152   147   146    1
   153   146   143    1
   154   144   145    2
   155   144   143    1
   156    58    57    1
   157    58    59    1
   158   143   142    1
   159    59    60    2
