@<TRIPOS>MOLECULE
tmp/3kroA00.pdb
 153 144 0 0 0
SMALL
GASTEIGER

@<TRIPOS>ATOM
      1  N         -6.8180   40.7760   14.2620 N.3    43  GLY43      -0.1210
      2  CA        -6.6900   42.0540   14.9120 C.3    43  GLY43       0.1956
      3  C         -5.2150   42.3520   14.7820 C.2    43  GLY43       0.2612
      4  O         -4.5120   41.5800   14.1280 O.2    43  GLY43      -0.2717
      5  N         -4.7420   43.4100   15.4420 N.am   44  LYS44      -0.1965
      6  CA        -3.3520   43.8130   15.3240 C.3    44  LYS44       0.1728
      7  C         -2.3290   42.9470   16.0390 C.2    44  LYS44       0.2616
      8  O         -1.1090   43.0140   15.7250 O.2    44  LYS44      -0.2715
      9  CB        -3.2280   45.2630   15.7710 C.3    44  LYS44       0.0311
     10  CG        -4.0730   46.1540   14.9030 C.3    44  LYS44       0.0038
     11  CD        -3.8770   47.7050   15.1140 C.3    44  LYS44       0.0206
     12  CE        -4.7910   48.4200   14.0400 C.3    44  LYS44       0.1093
     13  NZ        -4.6640   49.9240   13.8000 N.3    44  LYS44      -0.1314
     14  N         -2.8220   42.2070   17.0320 N.am   45  ARG45      -0.1963
     15  CA        -1.9880   41.3340   17.8370 C.3    45  ARG45       0.1729
     16  C         -0.8830   42.1410   18.5040 C.2    45  ARG45       0.2616
     17  O          0.2370   41.6590   18.5820 O.2    45  ARG45      -0.2715
     18  CB        -1.3340   40.2540   16.9760 C.3    45  ARG45       0.0348
     19  CG        -2.2900   39.3350   16.2640 C.3    45  ARG45       0.0492
     20  CD        -3.3530   38.6780   17.2100 C.3    45  ARG45       0.2205
     21  NE        -4.1790   37.7520   16.4560 N.pl3  45  ARG45      -0.0865
     22  CZ        -5.4260   37.4060   16.8180 C.cat  45  ARG45       0.5346
     23  NH1       -5.9980   37.8960   17.9270 N.pl3  45  ARG45       0.1354
     24  NH2       -6.0900   36.5520   16.0800 N.pl3  45  ARG45       0.1354
     25  N         -1.1940   43.3710   18.9400 N.am   46  VAL46      -0.1963
     26  CA        -0.2320   44.2570   19.6210 C.3    46  VAL46       0.1727
     27  C          0.3920   43.6260   20.9020 C.2    46  VAL46       0.2616
     28  O          1.6060   43.7270   21.1320 O.2    46  VAL46      -0.2715
     29  CB        -0.8790   45.7330   19.9850 C.3    46  VAL46       0.0290
     30  CG1        0.1890   46.6630   20.6020 C.3    46  VAL46       0.0023
     31  CG2       -1.4200   46.4670   18.6930 C.3    46  VAL46       0.0023
     32  N         -0.4210   42.9560   21.7210 N.am   47  ARG47      -0.1977
     33  CA         0.0910   42.3250   22.9410 C.3    47  ARG47       0.1597
     34  C          1.1450   41.2670   22.6280 C.2    47  ARG47       0.2287
     35  O          2.2550   41.2970   23.2250 O.2    47  ARG47      -0.2864
     36  CB        -1.0910   41.8140   23.7920 C.3    47  ARG47       0.0334
     37  CG        -1.9350   43.0500   24.3620 C.3    47  ARG47       0.0492
     38  CD        -3.4100   42.7110   24.7690 C.3    47  ARG47       0.2205
     39  NE        -4.0900   43.9770   25.0090 N.pl3  47  ARG47      -0.0865
     40  CZ        -4.6260   44.7580   24.0680 C.cat  47  ARG47       0.5346
     41  NH1       -5.1990   45.9000   24.4090 N.pl3  47  ARG47       0.1354
     42  NH2       -4.6310   44.3750   22.8090 N.pl3  47  ARG47       0.1354
     43  N         -2.7060   37.2620   24.3700 N.3    73  GLU73      -0.1245
     44  CA        -3.7720   37.4530   23.3940 C.3    73  GLU73       0.1567
     45  C         -5.0270   36.6530   23.8110 C.2    73  GLU73       0.2260
     46  O         -6.1770   37.0910   23.5790 O.2    73  GLU73      -0.2867
     47  CB        -3.3020   37.0100   21.9990 C.3    73  GLU73       0.0388
     48  CG        -4.2850   37.3660   20.9460 C.3    73  GLU73       0.1160
     49  CD        -4.3820   38.8940   20.7110 C.2    73  GLU73       0.3649
     50  OE1       -5.3010   39.3040   19.9780 O.co2  73  GLU73      -0.2457
     51  OE2       -3.5550   39.6840   21.2270 O.co2  73  GLU73      -0.2457
     52  N         -6.5750   38.7190   26.5530 N.3    76  HIS76      -0.1241
     53  CA        -7.1830   39.8920   25.9320 C.3    76  HIS76       0.1621
     54  C         -8.5030   39.4700   25.2970 C.2    76  HIS76       0.2264
     55  O         -9.5460   40.1130   25.5190 O.2    76  HIS76      -0.2867
     56  CB        -6.2440   40.4300   24.8680 C.3    76  HIS76       0.0745
     57  CG        -6.8440   41.5150   24.0240 C.ar   76  HIS76       0.0817
     58  ND1       -7.1560   42.7560   24.5230 N.ar   76  HIS76      -0.2268
     59  CD2       -7.0780   41.5740   22.6930 C.ar   76  HIS76       0.1154
     60  CE1       -7.5440   43.5430   23.5380 C.ar   76  HIS76       0.1986
     61  NE2       -7.5080   42.8510   22.4140 N.ar   76  HIS76      -0.2212
     62  N        -12.5570   40.5740   26.3060 N.3    80  LEU80      -0.1245
     63  CA       -13.5650   41.1880   25.4550 C.3    80  LEU80       0.1561
     64  C        -14.8250   40.3360   25.3380 C.2    80  LEU80       0.2260
     65  O        -15.9270   40.8960   25.1850 O.2    80  LEU80      -0.2867
     66  CB       -13.0280   41.4330   24.0660 C.3    80  LEU80       0.0270
     67  CG       -11.6890   42.1670   23.9440 C.3    80  LEU80       0.0019
     68  CD1      -11.2220   42.0780   22.5090 C.3    80  LEU80       0.0001
     69  CD2      -11.8560   43.6230   24.3460 C.3    80  LEU80       0.0001
     70  N        -16.2920   44.5670   15.6540 N.3    95  ARG95      -0.1245
     71  CA       -15.5510   44.4110   14.4120 C.3    95  ARG95       0.1563
     72  C        -16.5530   43.9950   13.3220 C.2    95  ARG95       0.2260
     73  O        -16.1870   43.2750   12.3940 O.2    95  ARG95      -0.2867
     74  CB       -14.4910   43.3010   14.5600 C.3    95  ARG95       0.0307
     75  CG       -13.2340   43.6810   15.3450 C.3    95  ARG95       0.0489
     76  CD       -12.4050   42.4320   15.6960 C.3    95  ARG95       0.2205
     77  NE       -12.9670   41.6840   16.8330 N.pl3  95  ARG95      -0.0865
     78  CZ       -12.3240   40.7120   17.4820 C.cat  95  ARG95       0.5346
     79  NH1      -11.0970   40.3670   17.0990 N.pl3  95  ARG95       0.1354
     80  NH2      -12.8930   40.0970   18.5200 N.pl3  95  ARG95       0.1354
     81  N         -6.0540   48.8670   30.5020 N.3   181  THR181     -0.1218
     82  CA        -5.2080   48.7910   29.3230 C.3   181  THR181      0.1862
     83  C         -3.6830   48.6010   29.5700 C.2   181  THR181      0.2287
     84  O         -3.0480   47.7100   28.9830 O.2   181  THR181     -0.2866
     85  CB        -5.3680   50.0840   28.4330 C.3   181  THR181      0.1770
     86  OG1       -6.6850   50.1290   27.8810 O.3   181  THR181     -0.2211
     87  CG2       -4.3810   50.0790   27.2550 C.3   181  THR181      0.0375
     88  N         -0.6180   45.2980   28.9110 N.3   185  LEU185     -0.1245
     89  CA         0.5350   45.5900   28.0280 C.3   185  LEU185      0.1561
     90  C          1.8350   45.4360   28.8450 C.2   185  LEU185      0.2260
     91  O          2.9070   45.0500   28.3260 O.2   185  LEU185     -0.2867
     92  CB         0.5290   47.0420   27.5110 C.3   185  LEU185      0.0270
     93  CG        -0.6610   47.6010   26.7420 C.3   185  LEU185      0.0019
     94  CD1       -0.3240   48.9880   26.0870 C.3   185  LEU185      0.0001
     95  CD2       -0.9890   46.5800   25.6660 C.3   185  LEU185      0.0001
     96  N          2.9510   53.8220   27.2120 N.3   213  ILE213     -0.1245
     97  CA         2.1970   53.6570   25.9810 C.3   213  ILE213      0.1561
     98  C          0.8050   53.1650   26.2970 C.2   213  ILE213      0.2260
     99  O         -0.1110   53.3850   25.5200 O.2   213  ILE213     -0.2867
    100  CB         2.8410   52.7020   24.9470 C.3   213  ILE213      0.0252
    101  CG1        2.9310   51.2940   25.4920 C.3   213  ILE213      0.0019
    102  CG2        4.2190   53.2510   24.4940 C.3   213  ILE213      0.0019
    103  CD1        3.4760   50.3630   24.4690 C.3   213  ILE213      0.0001
    104  N         -2.2600   55.4720   24.7260 N.3   217  PHE217     -0.1241
    105  CA        -3.3160   55.0060   23.8720 C.3   217  PHE217      0.1605
    106  C         -4.6930   55.6030   24.1790 C.2   217  PHE217      0.2264
    107  O         -5.3990   56.0470   23.2550 O.2   217  PHE217     -0.2867
    108  CB        -3.4270   53.4970   23.9470 C.3   217  PHE217      0.0534
    109  CG        -4.4610   52.9550   23.0280 C.ar  217  PHE217     -0.0203
    110  CD1       -4.1650   52.7540   21.6750 C.ar  217  PHE217     -0.0042
    111  CD2       -5.7600   52.7190   23.4900 C.ar  217  PHE217     -0.0042
    112  CE1       -5.1320   52.3330   20.7880 C.ar  217  PHE217     -0.0003
    113  CE2       -6.7610   52.2860   22.6060 C.ar  217  PHE217     -0.0003
    114  CZ        -6.4560   52.0930   21.2460 C.ar  217  PHE217     -0.0000
    115  N          6.3300   51.7460   17.4260 N.3   270  LEU270     -0.1245
    116  CA         4.9720   51.4870   17.9350 C.3   270  LEU270      0.1561
    117  C          4.5350   52.6610   18.8500 C.2   270  LEU270      0.2260
    118  O          3.3580   53.0590   18.8580 O.2   270  LEU270     -0.2867
    119  CB         4.9770   50.1780   18.7450 C.3   270  LEU270      0.0270
    120  CG         3.7510   50.0410   19.6520 C.3   270  LEU270      0.0019
    121  CD1        2.5590   49.7270   18.6950 C.3   270  LEU270      0.0001
    122  CD2        3.9250   48.9230   20.7510 C.3   270  LEU270      0.0001
    123  N          3.7110   55.3120   16.6320 N.3   273  TYR273     -0.1227
    124  CA         2.4540   54.9920   15.9350 C.3   273  TYR273      0.1736
    125  C          1.2130   55.2330   16.8120 C.2   273  TYR273      0.2595
    126  O          0.2200   55.7790   16.3560 O.2   273  TYR273     -0.2718
    127  CB         2.4680   53.5490   15.4600 C.3   273  TYR273      0.0548
    128  CG         1.1440   53.1160   14.8650 C.ar  273  TYR273     -0.0200
    129  CD1        0.1600   52.5310   15.6670 C.ar  273  TYR273     -0.0009
    130  CD2        0.8680   53.3210   13.5080 C.ar  273  TYR273     -0.0009
    131  CE1       -1.0500   52.1620   15.1400 C.ar  273  TYR273      0.0417
    132  CE2       -0.3570   52.9560   12.9600 C.ar  273  TYR273      0.0417
    133  CZ        -1.3120   52.3690   13.7860 C.ar  273  TYR273      0.1957
    134  OH        -2.5070   51.9290   13.2450 O.3   273  TYR273     -0.2866
    135  N          1.2560   54.8100   18.0610 N.am  274  ILE274     -0.1980
    136  CA         0.1040   55.0310   18.9250 C.3   274  ILE274      0.1595
    137  C         -0.1400   56.5320   19.1300 C.2   274  ILE274      0.2287
    138  O         -1.2830   56.9870   19.1750 O.2   274  ILE274     -0.2864
    139  CB         0.3080   54.3730   20.3000 C.3   274  ILE274      0.0276
    140  CG1        0.2990   52.8450   20.1450 C.3   274  ILE274      0.0022
    141  CG2       -0.8030   54.8190   21.2750 C.3   274  ILE274      0.0022
    142  CD1        0.8330   52.0490   21.3970 C.3   274  ILE274      0.0001
    143  N         -1.1950   58.2060   15.2270 N.3   277  ARG277     -0.1245
    144  CA        -2.2500   57.6210   14.4250 C.3   277  ARG277      0.1563
    145  C         -3.4530   58.5460   14.1800 C.2   277  ARG277      0.2260
    146  O         -3.8260   59.3450   15.0380 O.2   277  ARG277     -0.2867
    147  CB        -2.7180   56.3380   15.0820 C.3   277  ARG277      0.0307
    148  CG        -3.1590   56.4640   16.5050 C.3   277  ARG277      0.0489
    149  CD        -3.5190   55.0650   16.9880 C.3   277  ARG277      0.2205
    150  NE        -4.7910   54.9970   17.7300 N.pl3 277  ARG277     -0.0865
    151  CZ        -4.9070   55.2700   19.0230 C.cat 277  ARG277      0.5346
    152  NH1       -6.0850   55.1840   19.6390 N.pl3 277  ARG277      0.1354
    153  NH2       -3.8340   55.6490   19.6910 N.pl3 277  ARG277      0.1354
@<TRIPOS>BOND
     1    73    72    2
     2   132   130   ar
     3   132   133   ar
     4   134   133    1
     5    72    71    1
     6   130   128   ar
     7   133   131   ar
     8    13    12    1
     9    12    11    1
    10     4     3    2
    11   145   144    1
    12   145   146    2
    13     1     2    1
    14    71    74    1
    15    71    70    1
    16   144   147    1
    17   144   143    1
    18    74    75    1
    19     3     2    1
    20     3     5   am
    21   128   127    1
    22   128   129   ar
    23    10    11    1
    24    10     9    1
    25   147   148    1
    26   131   129   ar
    27     6     5    1
    28     6     9    1
    29     6     7    1
    30    75    76    1
    31   127   124    1
    32    76    77    1
    33     8     7    2
    34   124   123    1
    35   124   125    1
    36     7    14   am
    37    24    22    1
    38    19    18    1
    39    19    20    1
    40   126   125    2
    41    21    22    2
    42    21    20    1
    43   148   149    1
    44   125   135   am
    45    22    23    1
    46    77    78    2
    47    18    15    1
    48   149   150    1
    49    14    15    1
    50    79    78    1
    51   115   116    1
    52    78    80    1
    53   150   151    2
    54    15    16    1
    55   116   119    1
    56   116   117    1
    57   135   136    1
    58    16    17    2
    59    16    25   am
    60    31    29    1
    61   121   120    1
    62   119   120    1
    63   117   118    2
    64   136   137    1
    65   136   139    1
    66    25    26    1
    67   151   152    1
    68   151   153    1
    69   137   138    2
    70    26    29    1
    71    26    27    1
    72   120   122    1
    73    50    49   ar
    74    29    30    1
    75   140   139    1
    76   140   142    1
    77   139   141    1
    78    49    48    1
    79    49    51   ar
    80   112   114   ar
    81   112   110   ar
    82    27    28    2
    83    27    32   am
    84    48    47    1
    85   114   113   ar
    86   110   109   ar
    87    32    33    1
    88    47    44    1
    89    61    59   ar
    90    61    60   ar
    91    68    67    1
    92   113   111   ar
    93    34    33    1
    94    34    35    2
    95    59    57   ar
    96    42    40    1
    97    33    36    1
    98   109   111   ar
    99   109   108    1
   100   107   106    2
   101    44    45    1
   102    44    43    1
   103    60    58   ar
   104    46    45    2
   105    36    37    1
   106   105   108    1
   107   105   106    1
   108   105   104    1
   109    67    66    1
   110    67    69    1
   111    57    58   ar
   112    57    56    1
   113    66    63    1
   114    40    41    1
   115    40    39    2
   116    37    38    1
   117   103   101    1
   118   102   100    1
   119    38    39    1
   120    56    53    1
   121   100   101    1
   122   100    97    1
   123    65    64    2
   124    54    55    2
   125    54    53    1
   126    64    63    1
   127    63    62    1
   128    99    98    2
   129    95    93    1
   130    53    52    1
   131    97    98    1
   132    97    96    1
   133    94    93    1
   134    93    92    1
   135    87    85    1
   136    92    89    1
   137    86    85    1
   138    89    90    1
   139    89    88    1
   140    91    90    2
   141    85    82    1
   142    84    83    2
   143    82    83    1
   144    82    81    1
