@<TRIPOS>MOLECULE
tmp/3krrA00.pdb
 203 192 0 0 0
SMALL
GASTEIGER

@<TRIPOS>ATOM
      1  N         11.2510    5.0610   12.3290 N.3    15  GLN15      -0.1245
      2  CA        12.4750    5.7860   12.6770 C.3    15  GLN15       0.1566
      3  C         12.4940    7.1990   12.1250 C.2    15  GLN15       0.2260
      4  O         11.8100    7.5150   11.1490 O.2    15  GLN15      -0.2867
      5  CB        13.7310    5.0120   12.2320 C.3    15  GLN15       0.0367
      6  CG        14.1690    5.2120   10.7970 C.3    15  GLN15       0.0905
      7  CD        15.5910    4.7240   10.5450 C.2    15  GLN15       0.2608
      8  OE1       15.8200    3.5360   10.3470 O.2    15  GLN15      -0.2717
      9  NE2       16.5430    5.6500   10.5270 N.am   15  GLN15      -0.0878
     10  N         14.1910   10.1700   10.0720 N.3    17  LEU17      -0.1231
     11  CA        15.0410   10.2020    8.8880 C.3    17  LEU17       0.1693
     12  C         15.8430   11.4860    8.7820 C.2    17  LEU17       0.2593
     13  O         16.9420   11.4700    8.2340 O.2    17  LEU17      -0.2718
     14  CB        14.2270    9.9880    7.6080 C.3    17  LEU17       0.0284
     15  CG        13.4840    8.6570    7.4910 C.3    17  LEU17       0.0019
     16  CD1       12.5600    8.6540    6.2700 C.3    17  LEU17       0.0001
     17  CD2       14.4730    7.4720    7.4430 C.3    17  LEU17       0.0001
     18  N         15.3080   12.5850    9.3030 N.am   18  GLY18      -0.1942
     19  CA        16.0410   13.8510    9.3300 C.3    18  GLY18       0.2014
     20  C         15.2390   14.9540    9.9870 C.2    18  GLY18       0.2639
     21  O         14.0190   14.8460   10.1390 O.2    18  GLY18      -0.2714
     22  N         15.9250   16.0310   10.3550 N.am   19  LYS19      -0.1963
     23  CA        15.2950   17.1770   11.0030 C.3    19  LYS19       0.1728
     24  C         15.9790   18.4310   10.4900 C.2    19  LYS19       0.2617
     25  O         17.1990   18.4470   10.3550 O.2    19  LYS19      -0.2715
     26  CB        15.4610   17.0710   12.5250 C.3    19  LYS19       0.0311
     27  CG        14.3130   17.6430   13.3480 C.3    19  LYS19       0.0038
     28  CD        14.3490   17.0680   14.7550 C.3    19  LYS19       0.0206
     29  CE        13.1810   17.5220   15.6140 C.3    19  LYS19       0.1093
     30  NZ        13.0540   16.6440   16.8190 N.3    19  LYS19      -0.1314
     31  N         15.2060   19.4700   10.1940 N.am   20  GLY20      -0.1940
     32  CA        15.7650   20.6910    9.6120 C.3    20  GLY20       0.2014
     33  C         14.7350   21.5560    8.9120 C.2    20  GLY20       0.2638
     34  O         13.6410   21.0950    8.5900 O.2    20  GLY20      -0.2714
     35  N         15.0780   22.8230    8.6830 N.am   21  ASN21      -0.1972
     36  CA        14.1580   23.7560    8.0310 C.3    21  ASN21       0.1688
     37  C         12.7790   23.7930    8.7010 C.2    21  ASN21       0.2292
     38  O         11.7520   23.8260    8.0090 O.2    21  ASN21      -0.2864
     39  CB        13.9970   23.3820    6.5510 C.3    21  ASN21       0.1181
     40  CG        12.6960   22.8220    6.0600 C.2    21  ASN21       0.2629
     41  OD1       12.0850   23.3680    5.0750 O.2    21  ASN21      -0.2716
     42  ND2       12.2160   21.7220    6.6750 N.am   21  ASN21      -0.0877
     43  N         11.2600   21.4340   10.1670 N.3    23  GLY23      -0.1225
     44  CA        10.5160   20.2260    9.8490 C.3    23  GLY23       0.1811
     45  C         11.2650   18.9630   10.2020 C.2    23  GLY23       0.2280
     46  O         12.4480   18.9900   10.5520 O.2    23  GLY23      -0.2866
     47  N         11.3170   14.5960    8.9380 N.3    25  VAL25      -0.1245
     48  CA        10.8390   13.4990    8.1090 C.3    25  VAL25       0.1561
     49  C         11.0690   12.1850    8.8300 C.2    25  VAL25       0.2260
     50  O         12.1700   11.9200    9.3280 O.2    25  VAL25      -0.2867
     51  CB        11.5060   13.4740    6.7160 C.3    25  VAL25       0.0252
     52  CG1       10.8780   12.3750    5.8470 C.3    25  VAL25       0.0019
     53  CG2       11.3690   14.8510    6.0560 C.3    25  VAL25       0.0019
     54  N         10.2080    7.7910    8.9340 N.3    27  MET27      -0.1245
     55  CA         9.8030    6.5640    8.2880 C.3    27  MET27       0.1570
     56  C          8.6830    5.9510    9.1370 C.2    27  MET27       0.2261
     57  O          8.8660    5.7320   10.3460 O.2    27  MET27      -0.2867
     58  CB        11.0070    5.6180    8.2180 C.3    27  MET27       0.0387
     59  CG        10.7620    4.3000    7.5170 C.3    27  MET27       0.0595
     60  SD        12.1080    3.1280    7.8700 S.3    27  MET27      -0.1393
     61  CE        11.4880    1.6930    6.9940 C.3    27  MET27       0.0692
     62  N          7.3650    7.6500    3.7490 N.3    42  ALA42      -0.1245
     63  CA         8.0400    8.7940    4.3490 C.3    42  ALA42       0.1562
     64  C          6.9870    9.8350    4.7110 C.2    42  ALA42       0.2260
     65  O          6.0750   10.0980    3.9280 O.2    42  ALA42      -0.2867
     66  CB         9.0760    9.3830    3.3720 C.3    42  ALA42       0.0290
     67  N          6.5290   13.7800    6.2060 N.3    44  LYS44      -0.1245
     68  CA         7.0730   15.0610    6.6020 C.3    44  LYS44       0.1561
     69  C          6.0570   15.8300    7.4420 C.2    44  LYS44       0.2260
     70  O          4.8830   15.9200    7.0870 O.2    44  LYS44      -0.2867
     71  CB         7.5190   15.8840    5.3850 C.3    44  LYS44       0.0271
     72  CG         8.2020   17.2100    5.7840 C.3    44  LYS44       0.0035
     73  CD         8.8500   17.9150    4.5990 C.3    44  LYS44       0.0206
     74  CE         9.5910   19.1670    5.0450 C.3    44  LYS44       0.1093
     75  NZ        10.0820   19.9890    3.9040 N.3    44  LYS44      -0.1314
     76  N         10.7030   13.0880   -6.1080 N.3    73  VAL73      -0.1245
     77  CA        10.0960   12.1510   -5.1490 C.3    73  VAL73       0.1561
     78  C          8.5630   12.1600   -5.3020 C.2    73  VAL73       0.2260
     79  O          7.9690   13.2080   -5.5180 O.2    73  VAL73      -0.2867
     80  CB        10.5200   12.4570   -3.6770 C.3    73  VAL73       0.0252
     81  CG1        9.9990   13.8380   -3.1960 C.3    73  VAL73       0.0019
     82  CG2       10.0820   11.3250   -2.7190 C.3    73  VAL73       0.0019
     83  N          4.8800   10.6310    1.4800 N.3    91  MET91      -0.1230
     84  CA         5.6660   10.4150    0.2550 C.3    91  MET91       0.1702
     85  C          6.1420    8.9720    0.1640 C.2    91  MET91       0.2592
     86  O          6.2000    8.2620    1.1740 O.2    91  MET91      -0.2718
     87  CB         6.8820   11.3460    0.2520 C.3    91  MET91       0.0401
     88  CG         6.5270   12.8410    0.1550 C.3    91  MET91       0.0596
     89  SD         7.9180   13.9510    0.4390 S.3    91  MET91      -0.1393
     90  CE         8.1480   13.7010    2.2170 C.3    91  MET91       0.0692
     91  N          6.5120    8.5440   -1.0390 N.am   92  GLU92      -0.1966
     92  CA         7.2170    7.2640   -1.1840 C.3    92  GLU92       0.1733
     93  C          8.4830    7.2380   -0.3210 C.2    92  GLU92       0.2616
     94  O          9.1470    8.2650   -0.1420 O.2    92  GLU92      -0.2715
     95  CB         7.5610    6.9710   -2.6510 C.3    92  GLU92       0.0429
     96  CG         8.5730    7.9590   -3.2860 C.3    92  GLU92       0.1163
     97  CD         8.9280    7.6260   -4.7310 C.2    92  GLU92       0.3649
     98  OE1        8.7010    6.4730   -5.1660 O.co2  92  GLU92      -0.2457
     99  OE2        9.4560    8.5250   -5.4290 O.co2  92  GLU92      -0.2457
    100  N          8.7970    6.0720    0.2400 N.am   93  TYR93      -0.1960
    101  CA        10.0420    5.8800    0.9750 C.3    93  TYR93       0.1771
    102  C         11.1360    5.3760    0.0330 C.2    93  TYR93       0.2619
    103  O         11.0060    4.3130   -0.5710 O.2    93  TYR93      -0.2715
    104  CB         9.8410    4.9080    2.1520 C.3    93  TYR93       0.0574
    105  CG        11.1110    4.6410    2.9240 C.ar   93  TYR93      -0.0198
    106  CD1       11.6620    5.6120    3.7390 C.ar   93  TYR93      -0.0009
    107  CD2       11.7730    3.4130    2.8170 C.ar   93  TYR93      -0.0009
    108  CE1       12.8390    5.3810    4.4400 C.ar   93  TYR93       0.0417
    109  CE2       12.9510    3.1710    3.5130 C.ar   93  TYR93       0.0417
    110  CZ        13.4760    4.1560    4.3270 C.ar   93  TYR93       0.1957
    111  OH        14.6500    3.9460    5.0220 O.3    93  TYR93      -0.2866
    112  N         12.2210    6.1380   -0.0740 N.am   94  LEU94      -0.1964
    113  CA        13.3560    5.7930   -0.9410 C.3    94  LEU94       0.1713
    114  C         14.4900    5.2660   -0.0580 C.2    94  LEU94       0.2458
    115  O         15.1400    6.0110    0.6680 O.2    94  LEU94      -0.2730
    116  CB        13.7940    7.0160   -1.7600 C.3    94  LEU94       0.0310
    117  CG        12.7790    7.6270   -2.7470 C.3    94  LEU94       0.0022
    118  CD1       13.4810    8.5260   -3.7690 C.3    94  LEU94       0.0001
    119  CD2       11.9780    6.5650   -3.4930 C.3    94  LEU94       0.0001
    120  N         14.7130    3.9540   -0.0960 N.am   95  PRO95      -0.2716
    121  CA        15.4310    3.2700    0.9770 C.3    95  PRO95       0.1536
    122  C         16.9320    3.5440    1.1010 C.2    95  PRO95       0.2599
    123  O         17.4820    3.3360    2.1770 O.2    95  PRO95      -0.2715
    124  CB        15.1930    1.7840    0.6540 C.3    95  PRO95       0.0310
    125  CG        14.9410    1.7500   -0.7740 C.3    95  PRO95       0.0237
    126  CD        14.2680    3.0230   -1.1450 C.3    95  PRO95       0.0939
    127  N         17.5900    4.0060    0.0430 N.am   96  TYR96      -0.1960
    128  CA        19.0460    4.2540    0.1260 C.3    96  TYR96       0.1771
    129  C         19.3850    5.6330    0.7250 C.2    96  TYR96       0.2620
    130  O         20.5570    5.9340    0.9720 O.2    96  TYR96      -0.2715
    131  CB        19.7100    4.0770   -1.2420 C.3    96  TYR96       0.0574
    132  CG        19.8250    2.6510   -1.7420 C.ar   96  TYR96      -0.0198
    133  CD1       20.8350    2.2890   -2.6320 C.ar   96  TYR96      -0.0009
    134  CD2       18.9410    1.6570   -1.3310 C.ar   96  TYR96      -0.0009
    135  CE1       20.9530    0.9730   -3.0960 C.ar   96  TYR96       0.0417
    136  CE2       19.0540    0.3560   -1.7900 C.ar   96  TYR96       0.0417
    137  CZ        20.0530    0.0200   -2.6610 C.ar   96  TYR96       0.1957
    138  OH        20.1290   -1.2780   -3.0980 O.3    96  TYR96      -0.2866
    139  N         18.3710    6.4680    0.9630 N.am   97  GLY97      -0.1940
    140  CA        18.5410    7.7170    1.7090 C.3    97  GLY97       0.2014
    141  C         19.0850    8.8770    0.8930 C.2    97  GLY97       0.2639
    142  O         18.9530    8.9040   -0.3340 O.2    97  GLY97      -0.2714
    143  N         19.7130    9.8270    1.5740 N.am   98  SER98      -0.1949
    144  CA        20.1890   11.0350    0.9050 C.3    98  SER98       0.1924
    145  C         21.4180   10.6970    0.0790 C.2    98  SER98       0.2314
    146  O         22.2050    9.7920    0.4250 O.2    98  SER98      -0.2863
    147  CB        20.5050   12.1580    1.8920 C.3    98  SER98       0.2116
    148  OG        21.7190   11.9350    2.5850 O.3    98  SER98      -0.2180
    149  N         24.6330   11.2520    2.1470 N.3   101  ASP101     -0.1239
    150  CA        25.0440   10.1340    3.0110 C.3   101  ASP101      0.1674
    151  C         25.5510    8.9410    2.1960 C.2   101  ASP101      0.2266
    152  O         26.5730    8.3320    2.5240 O.2   101  ASP101     -0.2867
    153  CB        23.8870    9.7080    3.9120 C.3   101  ASP101      0.1410
    154  CG        23.5940   10.7170    5.0120 C.2   101  ASP101      0.3668
    155  OD1       24.4340   11.6050    5.2760 O.co2 101  ASP101     -0.2456
    156  OD2       22.5050   10.6200    5.6160 O.co2 101  ASP101     -0.2456
    157  N         17.0300   25.5470   -2.7730 N.3   138  ASP138     -0.1239
    158  CA        17.7610   24.7470   -1.7800 C.3   138  ASP138      0.1674
    159  C         18.4110   23.5000   -2.4000 C.2   138  ASP138      0.2266
    160  O         18.4550   22.4380   -1.7750 O.2   138  ASP138     -0.2867
    161  CB        16.7570   24.3350   -0.6870 C.3   138  ASP138      0.1410
    162  CG        17.4080   23.9150    0.6220 C.2   138  ASP138      0.3668
    163  OD1       18.6000   24.2250    0.8640 O.co2 138  ASP138     -0.2456
    164  OD2       16.6900   23.2710    1.4300 O.co2 138  ASP138     -0.2456
    165  N         22.1800   16.9840    0.2460 N.3   142  ARG142     -0.1231
    166  CA        21.4030   16.5440    1.4080 C.3   142  ARG142      0.1694
    167  C         19.8940   16.4810    1.1200 C.2   142  ARG142      0.2592
    168  O         19.1630   15.8310    1.8590 O.2   142  ARG142     -0.2718
    169  CB        21.6700   17.4160    2.6320 C.3   142  ARG142      0.0321
    170  CG        21.2110   18.8500    2.5440 C.3   142  ARG142      0.0489
    171  CD        21.2790   19.5050    3.9360 C.3   142  ARG142      0.2205
    172  NE        22.6540   19.5290    4.4430 N.pl3 142  ARG142     -0.0865
    173  CZ        23.1610   18.7560    5.4120 C.cat 142  ARG142      0.5346
    174  NH1       22.4280   17.8530    6.0570 N.pl3 142  ARG142      0.1354
    175  NH2       24.4400   18.9040    5.7480 N.pl3 142  ARG142      0.1354
    176  N         19.4550   17.1370    0.0420 N.am  143  ASN143     -0.1974
    177  CA        18.0360   17.1730   -0.3470 C.3   143  ASN143      0.1688
    178  C         17.7380   16.3190   -1.5770 C.2   143  ASN143      0.2292
    179  O         16.6620   16.4180   -2.1580 O.2   143  ASN143     -0.2864
    180  CB        17.6160   18.6260   -0.6340 C.3   143  ASN143      0.1181
    181  CG        17.7120   19.5230    0.5820 C.2   143  ASN143      0.2629
    182  OD1       17.4530   19.1010    1.7110 O.2   143  ASN143     -0.2716
    183  ND2       18.0530   20.7870    0.3520 N.am  143  ASN143     -0.0877
    184  N         17.7250   12.3490   -3.1150 N.3   145  LEU145     -0.1245
    185  CA        17.5240   11.0010   -2.5890 C.3   145  LEU145      0.1561
    186  C         17.9640    9.9370   -3.5820 C.2   145  LEU145      0.2260
    187  O         17.8950   10.1370   -4.7980 O.2   145  LEU145     -0.2867
    188  CB        16.0390   10.7840   -2.2470 C.3   145  LEU145      0.0270
    189  CG        15.4660   11.6430   -1.1290 C.3   145  LEU145      0.0019
    190  CD1       13.9150   11.6190   -1.1180 C.3   145  LEU145      0.0001
    191  CD2       16.0410   11.2180    0.2170 C.3   145  LEU145      0.0001
    192  N         14.3040   15.5320   -3.5040 N.3   155  GLY155     -0.1210
    193  CA        13.5540   14.9370   -2.3880 C.3   155  GLY155      0.1956
    194  C         12.9220   15.8590   -1.3600 C.2   155  GLY155      0.2611
    195  O         12.2770   15.3800   -0.4100 O.2   155  GLY155     -0.2717
    196  N         13.1040   17.1710   -1.5120 N.am  156  ASP156     -0.1973
    197  CA        12.5010   18.1370   -0.6080 C.3   156  ASP156      0.1709
    198  C         12.2380   19.4340   -1.3550 C.2   156  ASP156      0.2293
    199  O         12.9990   19.7820   -2.2600 O.2   156  ASP156     -0.2864
    200  CB        13.4070   18.4090    0.5950 C.3   156  ASP156      0.1436
    201  CG        12.7090   19.2230    1.6680 C.2   156  ASP156      0.3671
    202  OD1       11.9490   18.6280    2.4600 O.co2 156  ASP156     -0.2456
    203  OD2       12.9050   20.4570    1.7140 O.co2 156  ASP156     -0.2456
@<TRIPOS>BOND
     1    76    77    1
     2    79    78    2
     3    99    97   ar
     4    78    77    1
     5    98    97   ar
     6    77    80    1
     7   187   186    2
     8    97    96    1
     9   118   117    1
    10    80    81    1
    11    80    82    1
    12   186   185    1
    13   192   193    1
    14   119   117    1
    15    96    95    1
    16   184   185    1
    17   138   137    1
    18   135   137   ar
    19   135   133   ar
    20   157   158    1
    21   117   116    1
    22   137   136   ar
    23    95    92    1
    24   133   132   ar
    25   185   188    1
    26   159   158    1
    27   159   160    2
    28   193   194    1
    29   199   198    2
    30   188   189    1
    31   179   178    2
    32   136   134   ar
    33   158   161    1
    34   116   113    1
    35   132   134   ar
    36   132   131    1
    37   178   177    1
    38   196   194   am
    39   196   197    1
    40   194   195    2
    41   198   197    1
    42   131   128    1
    43    92    91    1
    44    92    93    1
    45   126   125    1
    46   126   120    1
    47   189   190    1
    48   189   191    1
    49    91    85   am
    50   113   112    1
    51   113   114    1
    52   125   124    1
    53   161   162    1
    54   180   177    1
    55   180   181    1
    56   197   200    1
    57   103   102    2
    58   177   176    1
    59   142   141    2
    60    93    94    2
    61    93   100   am
    62   120   114   am
    63   120   121    1
    64   112   102   am
    65   114   115    2
    66   102   101    1
    67   176   167   am
    68   127   128    1
    69   127   122   am
    70   145   146    2
    71   145   144    1
    72   128   129    1
    73    88    87    1
    74    88    89    1
    75    85    84    1
    76    85    86    2
    77   100   101    1
    78   165   166    1
    79    87    84    1
    80    84    83    1
    81   183   181   am
    82    89    90    1
    83   181   182    2
    84   200   201    1
    85   162   163   ar
    86   162   164   ar
    87   124   121    1
    88   129   139   am
    89   129   130    2
    90   141   143   am
    91   141   140    1
    92   144   143    1
    93   144   147    1
    94   139   140    1
    95   101   104    1
    96   121   122    1
    97   122   123    2
    98   167   166    1
    99   167   168    2
   100   166   169    1
   101   201   203   ar
   102   201   202   ar
   103   147   148    1
   104   149   150    1
   105   104   105    1
   106   151   152    2
   107   151   150    1
   108   170   169    1
   109   170   171    1
   110   107   105   ar
   111   107   109   ar
   112   105   106   ar
   113   150   153    1
   114    66    63    1
   115   109   110   ar
   116   106   108   ar
   117    62    63    1
   118    75    74    1
   119   153   154    1
   120    65    64    2
   121   171   172    1
   122   110   108   ar
   123   110   111    1
   124    63    64    1
   125   172   173    2
   126    73    74    1
   127    73    72    1
   128   154   155   ar
   129   154   156   ar
   130    41    40    2
   131    71    72    1
   132    71    68    1
   133   173   175    1
   134   173   174    1
   135    52    51    1
   136    53    51    1
   137    40    39    1
   138    40    42   am
   139    67    68    1
   140    16    15    1
   141    39    36    1
   142    68    69    1
   143    51    48    1
   144    61    60    1
   145    70    69    2
   146    17    15    1
   147    15    14    1
   148    59    60    1
   149    59    58    1
   150    14    11    1
   151    38    37    2
   152    36    35    1
   153    36    37    1
   154    48    49    1
   155    48    47    1
   156    58    55    1
   157    13    12    2
   158    55    54    1
   159    55    56    1
   160    34    33    2
   161    35    33   am
   162    12    11    1
   163    12    18   am
   164    49    50    2
   165    11    10    1
   166    33    32    1
   167    56    57    2
   168    18    19    1
   169    19    20    1
   170    32    31    1
   171    44    43    1
   172    44    45    1
   173    20    21    2
   174    20    22   am
   175    31    24   am
   176    45    46    2
   177     8     7    2
   178    22    23    1
   179    25    24    2
   180    24    23    1
   181     9     7   am
   182     7     6    1
   183     6     5    1
   184    23    26    1
   185     4     3    2
   186     3     2    1
   187     5     2    1
   188     1     2    1
   189    26    27    1
   190    27    28    1
   191    28    29    1
   192    29    30    1
