@<TRIPOS>MOLECULE
tmp/3kruB00.pdb
 211 204 0 0 0
SMALL
GASTEIGER

@<TRIPOS>ATOM
      1  N         68.4600    6.8480   16.0550 N.3    21  SER21      -0.1203
      2  CA        67.5000    7.9330   15.8470 C.3    21  SER21       0.2005
      3  C         68.1350    9.0610   15.0300 C.2    21  SER21       0.2461
      4  O         69.3240    9.3230   15.1910 O.2    21  SER21      -0.2732
      5  CB        67.0660    8.4880   17.1790 C.3    21  SER21       0.2103
      6  OG        65.8830    9.2470   17.0610 O.3    21  SER21      -0.2182
      7  N         67.3510    9.6940   14.1460 N.am   22  PRO22      -0.2717
      8  CA        67.9200   10.7810   13.3470 C.3    22  PRO22       0.1535
      9  C         68.2920   11.9540   14.2300 C.2    22  PRO22       0.2598
     10  O         67.4380   12.4470   14.9560 O.2    22  PRO22      -0.2715
     11  CB        66.7960   11.1440   12.3730 C.3    22  PRO22       0.0310
     12  CG        65.5730   10.6040   12.9560 C.3    22  PRO22       0.0237
     13  CD        65.9560    9.4050   13.7670 C.3    22  PRO22       0.0939
     14  N         69.5500   12.3940   14.1400 N.am   23  MET23      -0.1964
     15  CA        70.0710   13.4760   14.9680 C.3    23  MET23       0.1736
     16  C         70.9630   14.3950   14.1230 C.2    23  MET23       0.2617
     17  O         72.0320   14.0120   13.6750 O.2    23  MET23      -0.2715
     18  CB        70.8720   12.9320   16.1580 C.3    23  MET23       0.0427
     19  CG        70.0520   12.1600   17.1410 C.3    23  MET23       0.0599
     20  SD        71.1310   11.4500   18.4090 S.3    23  MET23      -0.1393
     21  CE        71.7520   10.0510   17.4690 C.3    23  MET23       0.0692
     22  N         70.5050   15.6260   13.9670 N.am   24  CYS24      -0.1954
     23  CA        71.2660   16.6630   13.2930 C.3    24  CYS24       0.1843
     24  C         72.6420   16.8480   13.9150 C.2    24  CYS24       0.2625
     25  O         72.7730   16.9440   15.1320 O.2    24  CYS24      -0.2714
     26  CB        70.5530   17.9830   13.3960 C.3    24  CYS24       0.0997
     27  SG        69.1850   18.1080   12.2090 S.3    24  CYS24      -0.0797
     28  N         73.6410   16.9890   13.0450 N.am   25  MET25      -0.1963
     29  CA        75.0240   17.1560   13.4720 C.3    25  MET25       0.1736
     30  C         75.5810   18.5550   13.1980 C.2    25  MET25       0.2616
     31  O         76.6920   18.8730   13.6430 O.2    25  MET25      -0.2715
     32  CB        75.8760   16.0630   12.8190 C.3    25  MET25       0.0427
     33  CG        75.5890   14.6650   13.3850 C.3    25  MET25       0.0599
     34  SD        76.1100   14.5190   15.1250 S.3    25  MET25      -0.1393
     35  CE        74.6120   14.2140   15.9830 C.3    25  MET25       0.0692
     36  N         74.8240   19.3730   12.4590 N.am   26  TYR26      -0.1974
     37  CA        75.1640   20.7900   12.2190 C.3    26  TYR26       0.1639
     38  C         76.6250   20.9400   11.7410 C.2    26  TYR26       0.2290
     39  O         77.3320   21.8840   12.1490 O.2    26  TYR26      -0.2864
     40  CB        74.9210   21.5970   13.4900 C.3    26  TYR26       0.0560
     41  CG        73.5620   21.3540   14.0960 C.ar   26  TYR26      -0.0198
     42  CD1       72.4100   21.8470   13.4930 C.ar   26  TYR26      -0.0009
     43  CD2       73.4310   20.5850   15.2430 C.ar   26  TYR26      -0.0009
     44  CE1       71.1590   21.5870   14.0260 C.ar   26  TYR26       0.0417
     45  CE2       72.1890   20.3340   15.8010 C.ar   26  TYR26       0.0417
     46  CZ        71.0550   20.8340   15.1870 C.ar   26  TYR26       0.1957
     47  OH        69.8030   20.5870   15.7350 O.3    26  TYR26      -0.2866
     48  N         67.9670   14.7380    9.7250 N.3    57  ALA57      -0.1245
     49  CA        67.0940   15.5470    8.8800 C.3    57  ALA57       0.1562
     50  C         67.8670   16.1050    7.7070 C.2    57  ALA57       0.2260
     51  O         68.8060   16.8810    7.8770 O.2    57  ALA57      -0.2867
     52  CB        66.4870   16.7000    9.6990 C.3    57  ALA57       0.0290
     53  N         66.9340   23.3590    8.7410 N.3    66  ILE66      -0.1245
     54  CA        66.8180   23.9390   10.0850 C.3    66  ILE66       0.1561
     55  C         67.9020   25.0080   10.2830 C.2    66  ILE66       0.2260
     56  O         67.6310   26.1260   10.7480 O.2    66  ILE66      -0.2867
     57  CB        66.9230   22.8580   11.1970 C.3    66  ILE66       0.0252
     58  CG1       65.8700   21.7600   10.9770 C.3    66  ILE66       0.0019
     59  CG2       66.8050   23.5080   12.5700 C.3    66  ILE66       0.0019
     60  CD1       66.1370   20.4560   11.7200 C.3    66  ILE66       0.0001
     61  N         66.1380   10.5310    6.6620 N.3    99  GLN99      -0.1245
     62  CA        64.9970   11.3290    7.1020 C.3    99  GLN99       0.1566
     63  C         64.8790   12.5240    6.1410 C.2    99  GLN99       0.2260
     64  O         65.6730   13.4630    6.2050 O.2    99  GLN99      -0.2867
     65  CB        65.1650   11.8080    8.5450 C.3    99  GLN99       0.0367
     66  CG        63.9640   12.5280    9.0810 C.3    99  GLN99       0.0905
     67  CD        64.1710   13.0970   10.4500 C.2    99  GLN99       0.2608
     68  OE1       65.0250   13.9860   10.6600 O.2    99  GLN99      -0.2717
     69  NE2       63.3830   12.6020   11.4100 N.am   99  GLN99      -0.0878
     70  N         59.6750   13.2740    7.6500 N.3   162  HIS162     -0.1241
     71  CA        59.7210   13.9570    8.9550 C.3   162  HIS162      0.1621
     72  C         58.4960   14.8370    9.1210 C.2   162  HIS162      0.2264
     73  O         58.4760   15.9890    8.6710 O.2   162  HIS162     -0.2867
     74  CB        60.9720   14.8230    9.0700 C.3   162  HIS162      0.0745
     75  CG        61.2990   15.2570   10.4730 C.ar  162  HIS162      0.0817
     76  ND1       60.4250   15.1250   11.5330 N.ar  162  HIS162     -0.2268
     77  CD2       62.4190   15.8240   10.9840 C.ar  162  HIS162      0.1154
     78  CE1       61.0010   15.5690   12.6340 C.ar  162  HIS162      0.1986
     79  NE2       62.2150   16.0080   12.3290 N.ar  162  HIS162     -0.2212
     80  N         58.1280   17.2790   15.2970 N.3   165  HIS165     -0.1241
     81  CA        59.0450   18.2350   15.9220 C.3   165  HIS165      0.1621
     82  C         58.8670   19.6980   15.4940 C.2   165  HIS165      0.2264
     83  O         59.8050   20.5070   15.5670 O.2   165  HIS165     -0.2867
     84  CB        60.4840   17.7710   15.7400 C.3   165  HIS165      0.0745
     85  CG        60.7790   16.4800   16.4360 C.ar  165  HIS165      0.0817
     86  ND1       61.9690   15.8030   16.2870 N.ar  165  HIS165     -0.2268
     87  CD2       60.0270   15.7410   17.2840 C.ar  165  HIS165      0.1154
     88  CE1       61.9460   14.7170   17.0420 C.ar  165  HIS165      0.1986
     89  NE2       60.7770   14.6460   17.6480 N.ar  165  HIS165     -0.2212
     90  N         58.0740   21.0410   12.6030 N.3   167  TYR167     -0.1241
     91  CA        58.5270   21.3910   11.2510 C.3   167  TYR167      0.1605
     92  C         57.3340   21.4440   10.2900 C.2   167  TYR167      0.2264
     93  O         56.1910   21.4820   10.7520 O.2   167  TYR167     -0.2867
     94  CB        59.6860   20.4730   10.8200 C.3   167  TYR167      0.0534
     95  CG        60.8650   20.5810   11.7730 C.ar  167  TYR167     -0.0201
     96  CD1       61.4560   21.8150   12.0330 C.ar  167  TYR167     -0.0009
     97  CD2       61.3530   19.4730   12.4410 C.ar  167  TYR167     -0.0009
     98  CE1       62.5210   21.9430   12.9180 C.ar  167  TYR167      0.0417
     99  CE2       62.4240   19.5920   13.3380 C.ar  167  TYR167      0.0417
    100  CZ        62.9880   20.8260   13.5720 C.ar  167  TYR167      0.1957
    101  OH        64.0490   20.9310   14.4510 O.3   167  TYR167     -0.2866
    102  N         57.8550    9.8430   10.6940 N.3   215  ARG215     -0.1245
    103  CA        58.0500   10.3210   12.0660 C.3   215  ARG215      0.1563
    104  C         56.9850   11.3660   12.4100 C.2   215  ARG215      0.2260
    105  O         56.7930   12.3400   11.6520 O.2   215  ARG215     -0.2867
    106  CB        59.4400   10.9380   12.2880 C.3   215  ARG215      0.0307
    107  CG        59.6760   11.4100   13.7140 C.3   215  ARG215      0.0489
    108  CD        61.1500   11.7340   14.0240 C.3   215  ARG215      0.2205
    109  NE        61.8260   10.5400   14.5360 N.pl3 215  ARG215     -0.0865
    110  CZ        62.7260   10.4960   15.5170 C.cat 215  ARG215      0.5346
    111  NH1       63.2230   11.5950   16.0820 N.pl3 215  ARG215      0.1354
    112  NH2       63.1570    9.3110   15.9180 N.pl3 215  ARG215      0.1354
    113  N         57.2770   10.1420   18.0660 N.3   248  SER248     -0.1217
    114  CA        57.8590   11.1120   18.9650 C.3   248  SER248      0.1889
    115  C         56.7500   12.0320   19.4760 C.2   248  SER248      0.2288
    116  O         55.5680   11.6610   19.4350 O.2   248  SER248     -0.2866
    117  CB        58.9920   11.8700   18.2610 C.3   248  SER248      0.2089
    118  OG        59.7070   12.6950   19.1620 O.3   248  SER248     -0.2183
    119  N         59.2870    8.1250   28.2150 N.3   263  TYR263     -0.1227
    120  CA        58.1750    9.0700   28.2820 C.3   263  TYR263      0.1736
    121  C         57.3370    9.1500   27.0010 C.2   263  TYR263      0.2595
    122  O         56.2060    9.6690   27.0520 O.2   263  TYR263     -0.2718
    123  CB        58.6500   10.4690   28.7140 C.3   263  TYR263      0.0548
    124  CG        59.3930   11.2570   27.6600 C.ar  263  TYR263     -0.0200
    125  CD1       58.7900   12.3290   27.0180 C.ar  263  TYR263     -0.0009
    126  CD2       60.7060   10.9490   27.3220 C.ar  263  TYR263     -0.0009
    127  CE1       59.4820   13.0750   26.0700 C.ar  263  TYR263      0.0417
    128  CE2       61.3860   11.6740   26.3680 C.ar  263  TYR263      0.0417
    129  CZ        60.7710   12.7300   25.7430 C.ar  263  TYR263      0.1957
    130  OH        61.4640   13.4580   24.7940 O.3   263  TYR263     -0.2866
    131  N         57.8370    8.6180   25.8820 N.am  264  GLN264     -0.1979
    132  CA        57.0510    8.5790   24.6470 C.3   264  GLN264      0.1601
    133  C         56.5940    7.1610   24.2570 C.2   264  GLN264      0.2287
    134  O         55.9660    6.9640   23.2140 O.2   264  GLN264     -0.2864
    135  CB        57.8160    9.2480   23.4900 C.3   264  GLN264      0.0394
    136  CG        58.1090   10.6870   23.7690 C.3   264  GLN264      0.0908
    137  CD        59.0280   11.3330   22.7610 C.2   264  GLN264      0.2608
    138  OE1       59.9850   10.7170   22.2400 O.2   264  GLN264     -0.2717
    139  NE2       58.7960   12.5970   22.5280 N.am  264  GLN264     -0.0878
    140  N         61.0360    5.8620   21.0170 N.3   282  VAL282     -0.1231
    141  CA        62.2270    6.6960   21.2570 C.3   282  VAL282      0.1692
    142  C         61.9770    7.6250   22.4510 C.2   282  VAL282      0.2593
    143  O         60.8370    8.0370   22.7070 O.2   282  VAL282     -0.2718
    144  CB        62.6060    7.5310   19.9740 C.3   282  VAL282      0.0266
    145  CG1       61.5990    8.6640   19.6990 C.3   282  VAL282      0.0020
    146  CG2       64.0330    8.0810   20.0730 C.3   282  VAL282      0.0020
    147  N         63.0420    7.9540   23.1770 N.am  283  GLY283     -0.1942
    148  CA        62.9830    8.9790   24.2080 C.3   283  GLY283      0.2014
    149  C         63.5050    8.5310   25.5540 C.2   283  GLY283      0.2639
    150  O         62.7880    7.8930   26.3190 O.2   283  GLY283     -0.2714
    151  N         64.7520    8.8930   25.8200 N.am  284  LEU284     -0.1963
    152  CA        65.4280    8.6330   27.1000 C.3   284  LEU284      0.1728
    153  C         65.5310    7.1430   27.4310 C.2   284  LEU284      0.2616
    154  O         65.5660    6.7460   28.6200 O.2   284  LEU284     -0.2715
    155  CB        64.7950    9.4660   28.2250 C.3   284  LEU284      0.0311
    156  CG        65.0660   10.9780   28.1380 C.3   284  LEU284      0.0022
    157  CD1       64.1470   11.7690   29.0680 C.3   284  LEU284      0.0001
    158  CD2       66.5190   11.2660   28.4710 C.3   284  LEU284      0.0001
    159  N         65.6340    6.3310   26.3790 N.am  285  ILE285     -0.1977
    160  CA        65.9130    4.9160   26.5250 C.3   285  ILE285      0.1596
    161  C         67.4270    4.7310   26.4360 C.2   285  ILE285      0.2287
    162  O         68.0440    5.1060   25.4320 O.2   285  ILE285     -0.2864
    163  CB        65.2140    4.0790   25.4300 C.3   285  ILE285      0.0276
    164  CG1       63.6990    4.3310   25.4300 C.3   285  ILE285      0.0022
    165  CG2       65.5350    2.5800   25.5860 C.3   285  ILE285      0.0022
    166  CD1       63.0240    3.9430   24.1320 C.3   285  ILE285      0.0001
    167  N         64.4990    3.0350   19.1040 N.3   304  ALA304     -0.1231
    168  CA        65.4360    4.0340   18.6070 C.3   304  ALA304      0.1694
    169  C         66.2180    4.6260   19.7470 C.2   304  ALA304      0.2592
    170  O         65.6410    5.0310   20.7650 O.2   304  ALA304     -0.2718
    171  CB        64.6860    5.1540   17.8410 C.3   304  ALA304      0.0304
    172  N         67.5380    4.7040   19.5580 N.am  305  LEU305     -0.1966
    173  CA        68.4200    5.3400   20.5210 C.3   305  LEU305      0.1728
    174  C         69.0360    6.5570   19.8550 C.2   305  LEU305      0.2617
    175  O         69.5750    6.4510   18.7540 O.2   305  LEU305     -0.2715
    176  CB        69.5100    4.3810   20.9770 C.3   305  LEU305      0.0311
    177  CG        69.0980    2.9980   21.5110 C.3   305  LEU305      0.0022
    178  CD1       70.3610    2.1980   21.7450 C.3   305  LEU305      0.0001
    179  CD2       68.2790    3.1220   22.7970 C.3   305  LEU305      0.0001
    180  N         68.9770    7.6930   20.5360 N.am  306  GLY306     -0.1940
    181  CA        69.6210    8.9050   20.0630 C.3   306  GLY306      0.2014
    182  C         70.8490    9.1800   20.9060 C.2   306  GLY306      0.2639
    183  O         71.9590    8.7570   20.5750 O.2   306  GLY306     -0.2714
    184  N         70.6600    9.8860   22.0110 N.am  307  ARG307     -0.1963
    185  CA        71.8020   10.3630   22.7990 C.3   307  ARG307      0.1729
    186  C         72.6930    9.2090   23.2870 C.2   307  ARG307      0.2616
    187  O         73.9180    9.3500   23.3310 O.2   307  ARG307     -0.2715
    188  CB        71.3410   11.2990   23.9270 C.3   307  ARG307      0.0348
    189  CG        71.0150   12.7020   23.4250 C.3   307  ARG307      0.0492
    190  CD        70.2390   13.5110   24.4470 C.3   307  ARG307      0.2205
    191  NE        68.8760   12.9930   24.5960 N.pl3 307  ARG307     -0.0865
    192  CZ        67.9230   13.5270   25.3570 C.cat 307  ARG307      0.5346
    193  NH1       68.1580   14.6230   26.0560 N.pl3 307  ARG307      0.1354
    194  NH2       66.7250   12.9640   25.4220 N.pl3 307  ARG307      0.1354
    195  N         72.0980    8.0710   23.6170 N.am  308  GLU308     -0.1977
    196  CA        72.9050    6.9310   24.0630 C.3   308  GLU308      0.1602
    197  C         73.8970    6.4980   22.9890 C.2   308  GLU308      0.2287
    198  O         75.0320    6.1470   23.3080 O.2   308  GLU308     -0.2864
    199  CB        72.0400    5.7580   24.5260 C.3   308  GLU308      0.0415
    200  CG        72.8250    4.5810   25.1090 C.3   308  GLU308      0.1163
    201  CD        73.5780    4.8930   26.4110 C.2   308  GLU308      0.3649
    202  OE1       73.2460    5.8630   27.1190 O.co2 308  GLU308     -0.2457
    203  OE2       74.5240    4.1330   26.7330 O.co2 308  GLU308     -0.2457
    204  N         75.2520    8.5350   20.7650 N.3   310  LEU310     -0.1245
    205  CA        76.2760    9.5840   20.6990 C.3   310  LEU310      0.1561
    206  C         77.3730    9.2900   21.7090 C.2   310  LEU310      0.2260
    207  O         78.5440    9.3020   21.3610 O.2   310  LEU310     -0.2867
    208  CB        75.6800   10.9730   20.9100 C.3   310  LEU310      0.0270
    209  CG        74.6350   11.3750   19.8790 C.3   310  LEU310      0.0019
    210  CD1       74.2500   12.8460   20.1090 C.3   310  LEU310      0.0001
    211  CD2       75.1030   11.1630   18.4600 C.3   310  LEU310      0.0001
@<TRIPOS>BOND
     1    63    64    2
     2    63    62    1
     3    61    62    1
     4    62    65    1
     5    70    71    1
     6    50    51    2
     7    50    49    1
     8    65    66    1
     9    73    72    2
    10    53    54    1
    11    49    52    1
    12    49    48    1
    13    71    74    1
    14    71    72    1
    15    74    75    1
    16    66    67    1
    17    54    55    1
    18    54    57    1
    19    55    56    2
    20    92    93    2
    21    92    91    1
    22    67    68    2
    23    67    69   am
    24    75    77   ar
    25    75    76   ar
    26   102   103    1
    27    94    91    1
    28    94    95    1
    29    58    57    1
    30    58    60    1
    31    77    79   ar
    32    57    59    1
    33    91    90    1
    34    76    78   ar
    35   105   104    2
    36    38    39    2
    37    38    37    1
    38    95    96   ar
    39    95    97   ar
    40    96    98   ar
    41   103   106    1
    42   103   104    1
    43    27    26    1
    44    37    36    1
    45    37    40    1
    46   106   107    1
    47    79    78   ar
    48    11    12    1
    49    11     8    1
    50    97    99   ar
    51    36    30   am
    52    32    33    1
    53    32    29    1
    54    98   100   ar
    55    12    13    1
    56    28    29    1
    57    28    24   am
    58    30    29    1
    59    30    31    2
    60    23    26    1
    61    23    24    1
    62    23    22    1
    63    99   100   ar
    64     8     7    1
    65     8     9    1
    66    33    34    1
    67    40    41    1
    68    42    44   ar
    69    42    41   ar
    70   100   101    1
    71    17    16    2
    72   107   108    1
    73    13     7    1
    74    24    25    2
    75    22    16   am
    76   108   109    1
    77    44    46   ar
    78    41    43   ar
    79    16    15    1
    80    14     9   am
    81    14    15    1
    82     7     3   am
    83     9    10    2
    84   109   110    2
    85    15    18    1
    86     3     4    2
    87     3     2    1
    88    34    35    1
    89    46    47    1
    90    46    45   ar
    91    43    45   ar
    92    80    81    1
    93    82    83    2
    94    82    81    1
    95   110   112    1
    96   110   111    1
    97    84    81    1
    98    84    85    1
    99     2     1    1
   100     2     5    1
   101    18    19    1
   102    86    85   ar
   103    86    88   ar
   104    85    87   ar
   105    88    89   ar
   106     6     5    1
   107    19    20    1
   108    87    89   ar
   109    21    20    1
   110   171   168    1
   111   113   114    1
   112   117   114    1
   113   117   118    1
   114   211   209    1
   115   168   167    1
   116   168   169    1
   117   175   174    2
   118   114   115    1
   119   116   115    2
   120   172   169   am
   121   172   173    1
   122   145   144    1
   123   169   170    2
   124   174   173    1
   125   174   180   am
   126   209   210    1
   127   209   208    1
   128   144   146    1
   129   144   141    1
   130   181   180    1
   131   181   182    1
   132   173   176    1
   133   183   182    2
   134   205   204    1
   135   205   208    1
   136   205   206    1
   137   182   184   am
   138   176   177    1
   139   140   141    1
   140   141   142    1
   141   207   206    2
   142   177   178    1
   143   177   179    1
   144   184   185    1
   145   138   137    2
   146   142   143    2
   147   142   147   am
   148   139   137   am
   149   137   136    1
   150   185   186    1
   151   185   188    1
   152   197   198    2
   153   197   196    1
   154   147   148    1
   155   134   133    2
   156   186   187    2
   157   186   195   am
   158   189   188    1
   159   189   190    1
   160   135   136    1
   161   135   132    1
   162   195   196    1
   163   196   199    1
   164   166   164    1
   165   148   149    1
   166   133   132    1
   167   190   191    1
   168   199   200    1
   169   191   192    2
   170   132   131    1
   171   130   129    1
   172   200   201    1
   173   192   194    1
   174   192   193    1
   175   163   164    1
   176   163   165    1
   177   163   160    1
   178   162   161    2
   179   149   151   am
   180   149   150    2
   181   129   127   ar
   182   129   128   ar
   183   151   152    1
   184   131   121   am
   185   127   125   ar
   186   128   126   ar
   187   159   160    1
   188   159   153   am
   189   201   203   ar
   190   201   202   ar
   191   161   160    1
   192   121   122    2
   193   121   120    1
   194   125   124   ar
   195   152   153    1
   196   152   155    1
   197   126   124   ar
   198   153   154    2
   199   124   123    1
   200   156   155    1
   201   156   158    1
   202   156   157    1
   203   119   120    1
   204   120   123    1
