@<TRIPOS>MOLECULE
tmp/3krxA00.pdb
 200 188 0 0 0
SMALL
GASTEIGER

@<TRIPOS>ATOM
      1  N         27.3510   -2.7550   53.3590 N.3   166  ILE166     -0.1231
      2  CA        27.9500   -2.8610   52.0260 C.3   166  ILE166      0.1692
      3  C         29.1200   -3.8570   52.0150 C.2   166  ILE166      0.2593
      4  O         30.1220   -3.6480   51.3260 O.2   166  ILE166     -0.2718
      5  CB        28.4070   -1.4700   51.4840 C.3   166  ILE166      0.0266
      6  CG1       29.4350   -0.8190   52.4170 C.3   166  ILE166      0.0019
      7  CG2       27.2090   -0.5350   51.3000 C.3   166  ILE166      0.0020
      8  CD1       30.0730    0.4270   51.8470 C.3   166  ILE166      0.0001
      9  N         28.9810   -4.9430   52.7750 N.am  167  GLY167     -0.1942
     10  CA        30.0040   -5.9900   52.8210 C.3   167  GLY167      0.2014
     11  C         29.9930   -6.8120   54.0990 C.2   167  GLY167      0.2639
     12  O         29.9660   -6.2600   55.1970 O.2   167  GLY167     -0.2714
     13  N         30.0160   -8.1360   53.9480 N.am  168  ARG168     -0.1963
     14  CA        30.1470   -9.0570   55.0770 C.3   168  ARG168      0.1729
     15  C         31.5500   -9.6630   55.0800 C.2   168  ARG168      0.2617
     16  O         32.2930   -9.5440   54.1000 O.2   168  ARG168     -0.2715
     17  CB        29.1140  -10.1840   54.9820 C.3   168  ARG168      0.0348
     18  CG        27.6500   -9.7520   55.0490 C.3   168  ARG168      0.0492
     19  CD        26.7540  -10.8190   54.4160 C.3   168  ARG168      0.2205
     20  NE        25.3410  -10.6700   54.7610 N.pl3 168  ARG168     -0.0865
     21  CZ        24.3630  -11.4560   54.3040 C.cat 168  ARG168      0.5346
     22  NH1       24.6290  -12.4600   53.4710 N.pl3 168  ARG168      0.1354
     23  NH2       23.1070  -11.2380   54.6790 N.pl3 168  ARG168      0.1354
     24  N         31.9010  -10.3170   56.1850 N.am  169  GLY169     -0.1940
     25  CA        33.1950  -10.9870   56.3170 C.3   169  GLY169      0.2014
     26  C         33.1860  -12.0610   57.3890 C.2   169  GLY169      0.2639
     27  O         32.1320  -12.6150   57.7200 O.2   169  GLY169     -0.2714
     28  N         34.3670  -12.3570   57.9270 N.am  170  GLY170     -0.1939
     29  CA        34.5190  -13.3740   58.9690 C.3   170  GLY170      0.2014
     30  C         34.3070  -12.8140   60.3630 C.2   170  GLY170      0.2639
     31  O         33.5240  -13.3590   61.1440 O.2   170  GLY170     -0.2714
     32  N         35.0010  -11.7170   60.6660 N.am  171  PHE171     -0.1959
     33  CA        34.9730  -11.1160   62.0020 C.3   171  PHE171      0.1774
     34  C         33.9360   -9.9940   62.1310 C.2   171  PHE171      0.2659
     35  O         33.5610   -9.6230   63.2450 O.2   171  PHE171     -0.2711
     36  CB        36.3600  -10.5780   62.3840 C.3   171  PHE171      0.0574
     37  CG        37.4950  -11.5150   62.0560 C.ar  171  PHE171     -0.0200
     38  CD1       38.6140  -11.0570   61.3720 C.ar  171  PHE171     -0.0042
     39  CD2       37.4410  -12.8550   62.4240 C.ar  171  PHE171     -0.0042
     40  CE1       39.6620  -11.9140   61.0640 C.ar  171  PHE171     -0.0003
     41  CE2       38.4870  -13.7180   62.1200 C.ar  171  PHE171     -0.0003
     42  CZ        39.5970  -13.2480   61.4390 C.ar  171  PHE171     -0.0000
     43  N         33.4800   -9.4510   61.0040 N.am  172  GLY172     -0.1716
     44  CA        32.4950   -8.3690   61.0310 C.2   172  GLY172      0.1480
     45  C         31.9290   -7.9780   59.6750 C.2   172  GLY172      0.2820
     46  O         32.0470   -8.7240   58.7000 O.2   172  GLY172     -0.2669
     47  N         31.3160   -6.7960   59.6190 N.am  173  GLU173     -0.1929
     48  CA        30.6820   -6.3020   58.3970 C.3   173  GLU173      0.1736
     49  C         30.9670   -4.8170   58.1480 C.2   173  GLU173      0.2616
     50  O         30.8920   -3.9970   59.0630 O.2   173  GLU173     -0.2715
     51  CB        29.1680   -6.5470   58.4420 C.3   173  GLU173      0.0429
     52  CG        28.4720   -6.1180   59.7380 C.3   173  GLU173      0.1163
     53  CD        28.1950   -7.2770   60.6870 C.2   173  GLU173      0.3649
     54  OE1       28.5950   -7.1870   61.8680 O.co2 173  GLU173     -0.2457
     55  OE2       27.5690   -8.2730   60.2580 O.co2 173  GLU173     -0.2457
     56  N         31.2860   -4.4860   56.8970 N.am  174  VAL174     -0.1977
     57  CA        31.5420   -3.1050   56.4870 C.3   174  VAL174      0.1596
     58  C         30.2280   -2.3460   56.2930 C.2   174  VAL174      0.2287
     59  O         29.2720   -2.8860   55.7470 O.2   174  VAL174     -0.2864
     60  CB        32.3530   -3.0500   55.1720 C.3   174  VAL174      0.0276
     61  CG1       32.5290   -1.6120   54.7060 C.3   174  VAL174      0.0022
     62  CG2       33.7060   -3.7270   55.3500 C.3   174  VAL174      0.0022
     63  N         33.3220    4.9060   55.1370 N.3   187  ALA187     -0.1245
     64  CA        32.9250    3.5070   55.2590 C.3   187  ALA187      0.1562
     65  C         33.4750    2.9540   56.5660 C.2   187  ALA187      0.2260
     66  O         34.6870    2.9660   56.7770 O.2   187  ALA187     -0.2867
     67  CB        33.4640    2.7090   54.0950 C.3   187  ALA187      0.0290
     68  N         34.2110   -0.1970   59.2310 N.3   189  LYS189     -0.1245
     69  CA        34.4950   -1.6270   59.1970 C.3   189  LYS189      0.1561
     70  C         34.5800   -2.1520   60.6260 C.2   189  LYS189      0.2260
     71  O         35.6270   -2.0540   61.2610 O.2   189  LYS189     -0.2867
     72  CB        35.8020   -1.8850   58.4470 C.3   189  LYS189      0.0271
     73  CG        36.2400   -3.3390   58.4430 C.3   189  LYS189      0.0035
     74  CD        37.3020   -3.6060   57.3940 C.3   189  LYS189      0.0206
     75  CE        37.7370   -5.0590   57.4230 C.3   189  LYS189      0.1093
     76  NZ        38.7100   -5.3820   56.3460 N.3   189  LYS189     -0.1314
     77  N         34.7820   -4.9760   63.2940 N.3   191  LEU191     -0.1245
     78  CA        35.1340   -6.3570   63.6230 C.3   191  LEU191      0.1561
     79  C         34.7300   -6.6670   65.0660 C.2   191  LEU191      0.2260
     80  O         35.1420   -5.9720   65.9980 O.2   191  LEU191     -0.2867
     81  CB        36.6380   -6.5850   63.4450 C.3   191  LEU191      0.0270
     82  CG        37.1790   -6.6460   62.0130 C.3   191  LEU191      0.0019
     83  CD1       36.6140   -5.5390   61.1440 C.3   191  LEU191      0.0001
     84  CD2       38.6990   -6.5950   62.0210 C.3   191  LEU191      0.0001
     85  N         46.5080  -11.2030   63.0960 N.3   204  LEU204     -0.1231
     86  CA        45.9400  -10.8580   61.7930 C.3   204  LEU204      0.1693
     87  C         45.2360   -9.4960   61.8030 C.2   204  LEU204      0.2591
     88  O         45.4520   -8.6730   60.9110 O.2   204  LEU204     -0.2718
     89  CB        44.9640  -11.9530   61.3460 C.3   204  LEU204      0.0284
     90  CG        44.2470  -11.7650   60.0060 C.3   204  LEU204      0.0019
     91  CD1       45.2140  -11.3550   58.8970 C.3   204  LEU204      0.0001
     92  CD2       43.5020  -13.0390   59.6320 C.3   204  LEU204      0.0001
     93  N         44.3950   -9.2690   62.8110 N.am  205  ALA205     -0.1980
     94  CA        43.6530   -8.0110   62.9450 C.3   205  ALA205      0.1597
     95  C         44.5640   -6.8550   63.3570 C.2   205  ALA205      0.2287
     96  O         44.4140   -5.7330   62.8710 O.2   205  ALA205     -0.2864
     97  CB        42.5180   -8.1700   63.9500 C.3   205  ALA205      0.0319
     98  N         46.5560   -5.6870   60.1410 N.3   208  GLU208     -0.1245
     99  CA        45.8080   -4.7920   59.2520 C.3   208  GLU208      0.1567
    100  C         45.9290   -3.3280   59.6770 C.2   208  GLU208      0.2260
    101  O         46.1830   -2.4560   58.8450 O.2   208  GLU208     -0.2867
    102  CB        44.3310   -5.1960   59.2100 C.3   208  GLU208      0.0388
    103  CG        43.4690   -4.3410   58.2820 C.3   208  GLU208      0.1160
    104  CD        42.0620   -4.8870   58.1110 C.2   208  GLU208      0.3649
    105  OE1       41.5310   -4.8230   56.9820 O.co2 208  GLU208     -0.2457
    106  OE2       41.4880   -5.3830   59.1050 O.co2 208  GLU208     -0.2457
    107  N         42.1890    2.0220   49.0880 N.3   224  VAL224     -0.1245
    108  CA        41.1790    2.3730   50.0810 C.3   224  VAL224      0.1561
    109  C         41.8990    2.6870   51.3820 C.2   224  VAL224      0.2260
    110  O         42.4810    1.8000   52.0040 O.2   224  VAL224     -0.2867
    111  CB        40.1570    1.2480   50.3090 C.3   224  VAL224      0.0252
    112  CG1       39.2210    1.6010   51.4590 C.3   224  VAL224      0.0019
    113  CG2       39.3640    0.9940   49.0400 C.3   224  VAL224      0.0019
    114  N         37.2850    3.9910   56.7110 N.3   240  LEU240     -0.1231
    115  CA        37.9360    3.9340   55.4010 C.3   240  LEU240      0.1693
    116  C         37.2100    4.7730   54.3520 C.2   240  LEU240      0.2592
    117  O         36.0720    5.2030   54.5560 O.2   240  LEU240     -0.2718
    118  CB        38.0240    2.4830   54.9120 C.3   240  LEU240      0.0284
    119  CG        38.4260    1.4220   55.9390 C.3   240  LEU240      0.0019
    120  CD1       38.6390    0.0790   55.2570 C.3   240  LEU240      0.0001
    121  CD2       39.6750    1.8450   56.6900 C.3   240  LEU240      0.0001
    122  N         37.8830    4.9860   53.2240 N.am  241  ASP241     -0.1960
    123  CA        37.3150    5.7200   52.0970 C.3   241  ASP241      0.1840
    124  C         36.0740    5.0140   51.5840 C.2   241  ASP241      0.2622
    125  O         36.0640    3.7880   51.4650 O.2   241  ASP241     -0.2715
    126  CB        38.3250    5.8120   50.9540 C.3   241  ASP241      0.1450
    127  CG        39.5280    6.6460   51.3050 C.2   241  ASP241      0.3671
    128  OD1       39.5260    7.2690   52.3840 O.co2 241  ASP241     -0.2456
    129  OD2       40.4860    6.6770   50.5060 O.co2 241  ASP241     -0.2456
    130  N         35.0350    5.7860   51.2690 N.am  242  LEU242     -0.1963
    131  CA        33.7900    5.2080   50.7710 C.3   242  LEU242      0.1728
    132  C         33.8740    4.9270   49.2720 C.2   242  LEU242      0.2616
    133  O         34.4990    5.6800   48.5170 O.2   242  LEU242     -0.2715
    134  CB        32.5920    6.1110   51.0730 C.3   242  LEU242      0.0311
    135  CG        31.2230    5.4870   50.7730 C.3   242  LEU242      0.0022
    136  CD1       31.0490    4.1760   51.5240 C.3   242  LEU242      0.0001
    137  CD2       30.0980    6.4530   51.1150 C.3   242  LEU242      0.0001
    138  N         33.2490    3.8230   48.8660 N.am  243  MET243     -0.1977
    139  CA        33.1850    3.3940   47.4730 C.3   243  MET243      0.1605
    140  C         31.8260    2.7390   47.2780 C.2   243  MET243      0.2287
    141  O         31.5700    1.6670   47.8230 O.2   243  MET243     -0.2864
    142  CB        34.2790    2.3620   47.1640 C.3   243  MET243      0.0413
    143  CG        35.6970    2.7610   47.5530 C.3   243  MET243      0.0598
    144  SD        36.3800    4.0460   46.4980 S.3   243  MET243     -0.1393
    145  CE        36.6970    3.0990   45.0120 C.3   243  MET243      0.0692
    146  N         32.5830   -4.2250   43.8910 N.3   247  ASP247     -0.1239
    147  CA        33.8830   -4.7920   43.5270 C.3   247  ASP247      0.1674
    148  C         33.9090   -5.2680   42.0800 C.2   247  ASP247      0.2266
    149  O         32.8700   -5.5370   41.4800 O.2   247  ASP247     -0.2867
    150  CB        34.3060   -5.9210   44.4860 C.3   247  ASP247      0.1410
    151  CG        33.2210   -6.9740   44.6920 C.2   247  ASP247      0.3668
    152  OD1       33.5660   -8.1270   45.0330 O.co2 247  ASP247     -0.2456
    153  OD2       32.0260   -6.6490   44.5270 O.co2 247  ASP247     -0.2456
    154  N         37.9140   -9.1780   43.2600 N.3   290  ALA290     -0.1231
    155  CA        37.0470   -8.9920   44.4240 C.3   290  ALA290      0.1694
    156  C         37.6180   -7.9890   45.4360 C.2   290  ALA290      0.2592
    157  O         36.8640   -7.4050   46.2160 O.2   290  ALA290     -0.2718
    158  CB        36.7800  -10.3360   45.1010 C.3   290  ALA290      0.0304
    159  N         38.9400   -7.8030   45.4260 N.am  291  ASN291     -0.1974
    160  CA        39.5970   -6.8000   46.2680 C.3   291  ASN291      0.1688
    161  C         39.7410   -5.4310   45.6030 C.2   291  ASN291      0.2292
    162  O         40.3230   -4.5200   46.1950 O.2   291  ASN291     -0.2864
    163  CB        40.9790   -7.2950   46.7020 C.3   291  ASN291      0.1181
    164  CG        40.9050   -8.4840   47.6290 C.2   291  ASN291      0.2629
    165  OD1       39.9270   -8.6580   48.3560 O.2   291  ASN291     -0.2716
    166  ND2       41.9440   -9.3110   47.6170 N.am  291  ASN291     -0.0877
    167  N         37.7270   -2.1360   44.0130 N.3   293  LEU293     -0.1245
    168  CA        36.4400   -1.4620   44.1670 C.3   293  LEU293      0.1561
    169  C         36.2990   -0.2840   43.2100 C.2   293  LEU293      0.2260
    170  O         37.2900    0.2170   42.6850 O.2   293  LEU293     -0.2867
    171  CB        36.2870   -0.9800   45.6070 C.3   293  LEU293      0.0270
    172  CG        36.1110   -2.1100   46.6230 C.3   293  LEU293      0.0019
    173  CD1       36.4720   -1.6370   48.0180 C.3   293  LEU293      0.0001
    174  CD2       34.6850   -2.6570   46.5820 C.3   293  LEU293      0.0001
    175  N         41.6480   -2.5790   47.9360 N.3   303  SER303     -0.1202
    176  CA        40.9120   -2.5140   49.2070 C.3   303  SER303      0.2020
    177  C         41.4700   -3.3470   50.3700 C.2   303  SER303      0.2618
    178  O         42.1140   -2.7970   51.2670 O.2   303  SER303     -0.2717
    179  CB        39.4390   -2.8520   48.9780 C.3   303  SER303      0.2103
    180  OG        38.6740   -2.5600   50.1350 O.3   303  SER303     -0.2182
    181  N         41.2250   -4.6560   50.3570 N.am  304  ASP304     -0.1973
    182  CA        41.3870   -5.4940   51.5530 C.3   304  ASP304      0.1709
    183  C         42.8580   -5.6730   51.9620 C.2   304  ASP304      0.2293
    184  O         43.5970   -6.4260   51.3330 O.2   304  ASP304     -0.2864
    185  CB        40.7190   -6.8570   51.3210 C.3   304  ASP304      0.1436
    186  CG        40.2250   -7.4980   52.6050 C.2   304  ASP304      0.3671
    187  OD1       40.9890   -7.5390   53.5970 O.co2 304  ASP304     -0.2456
    188  OD2       39.0660   -7.9740   52.6110 O.co2 304  ASP304     -0.2456
    189  N         44.2410   -6.9060   54.8550 N.3   306  GLY306     -0.1210
    190  CA        44.4790   -7.8280   55.9590 C.3   306  GLY306      0.1956
    191  C         45.7230   -8.6730   55.7570 C.2   306  GLY306      0.2611
    192  O         46.4870   -8.8990   56.6980 O.2   306  GLY306     -0.2717
    193  N         45.9210   -9.1380   54.5240 N.am  307  LEU307     -0.1979
    194  CA        47.0100  -10.0560   54.1980 C.3   307  LEU307      0.1596
    195  C         48.2900   -9.3480   53.7640 C.2   307  LEU307      0.2287
    196  O         49.2950  -10.0060   53.4940 O.2   307  LEU307     -0.2864
    197  CB        46.5700  -11.0170   53.0920 C.3   307  LEU307      0.0297
    198  CG        45.2910  -11.8190   53.3320 C.3   307  LEU307      0.0022
    199  CD1       45.1170  -12.8350   52.2190 C.3   307  LEU307      0.0001
    200  CD2       45.3050  -12.5070   54.6850 C.3   307  LEU307      0.0001
@<TRIPOS>BOND
     1   149   148    2
     2   148   147    1
     3   170   169    2
     4   169   168    1
     5   154   155    1
     6   147   146    1
     7   147   150    1
     8   167   168    1
     9   168   171    1
    10   155   158    1
    11   155   156    1
    12   150   151    1
    13   153   151   ar
    14   151   152   ar
    15   145   144    1
    16   159   156   am
    17   159   160    1
    18   156   157    2
    19   161   162    2
    20   161   160    1
    21   171   172    1
    22   160   163    1
    23   144   143    1
    24   174   172    1
    25   172   173    1
    26   163   164    1
    27   142   139    1
    28   142   143    1
    29   140   139    1
    30   140   141    2
    31   139   138    1
    32   166   164   am
    33   164   165    2
    34   175   176    1
    35   133   132    2
    36   138   132   am
    37   179   176    1
    38   179   180    1
    39   113   111    1
    40   107   108    1
    41   176   177    1
    42   132   131    1
    43   108   111    1
    44   108   109    1
    45   111   112    1
    46   181   177   am
    47   181   182    1
    48   177   178    2
    49   129   127   ar
    50   131   134    1
    51   131   130    1
    52   135   134    1
    53   135   137    1
    54   135   136    1
    55   126   127    1
    56   126   123    1
    57   130   124   am
    58     7     5    1
    59   127   128   ar
    60   185   182    1
    61   185   186    1
    62     4     3    2
    63   184   183    2
    64   109   110    2
    65   125   124    2
    66     5     2    1
    67     5     6    1
    68   182   183    1
    69   124   123    1
    70     8     6    1
    71     3     2    1
    72     3     9   am
    73     2     1    1
    74   123   122    1
    75   199   198    1
    76   186   188   ar
    77   186   187   ar
    78     9    10    1
    79    10    11    1
    80   197   198    1
    81   197   194    1
    82   122   116   am
    83   198   200    1
    84    22    21    1
    85   196   195    2
    86   195   194    1
    87    13    11   am
    88    13    14    1
    89    67    64    1
    90    11    12    2
    91    16    15    2
    92   194   193    1
    93    21    23    1
    94    21    20    2
    95   116   117    2
    96   116   115    1
    97    19    20    1
    98    19    18    1
    99   193   191   am
   100    61    60    1
   101   189   190    1
   102   118   115    1
   103   118   119    1
   104    17    18    1
   105    17    14    1
   106    14    15    1
   107    15    24   am
   108    63    64    1
   109    60    62    1
   110    60    57    1
   111   120   119    1
   112    64    65    1
   113   115   114    1
   114    59    58    2
   115   191   190    1
   116   191   192    2
   117   119   121    1
   118    24    25    1
   119    58    57    1
   120    25    26    1
   121    76    75    1
   122    57    56    1
   123    65    66    2
   124    56    49   am
   125   105   104   ar
   126    26    27    2
   127    26    28   am
   128    74    75    1
   129    74    73    1
   130    28    29    1
   131   104   103    1
   132   104   106   ar
   133    49    48    1
   134    49    50    2
   135   103   102    1
   136    48    51    1
   137    48    47    1
   138    51    52    1
   139    73    72    1
   140    72    69    1
   141    46    45    2
   142   101   100    2
   143    91    90    1
   144    29    30    1
   145    69    68    1
   146    69    70    1
   147   102    99    1
   148    99   100    1
   149    99    98    1
   150    47    45   am
   151    92    90    1
   152    45    44    1
   153    52    53    1
   154    90    89    1
   155    55    53   ar
   156    30    32   am
   157    30    31    2
   158    70    71    2
   159    32    33    1
   160    53    54   ar
   161    88    87    2
   162    43    44    2
   163    43    34    1
   164    40    38   ar
   165    40    42   ar
   166    83    82    1
   167    89    86    1
   168    38    37   ar
   169    42    41   ar
   170    86    87    1
   171    86    85    1
   172    87    93   am
   173    33    34    1
   174    33    36    1
   175    82    84    1
   176    82    81    1
   177    37    36    1
   178    37    39   ar
   179    41    39   ar
   180    34    35    2
   181    93    94    1
   182    96    95    2
   183    94    95    1
   184    94    97    1
   185    77    78    1
   186    81    78    1
   187    78    79    1
   188    79    80    2
