@<TRIPOS>MOLECULE
tmp/3kryD00.pdb
 191 190 0 0 0
SMALL
GASTEIGER

@<TRIPOS>ATOM
      1  N         13.6670   16.4670   19.2620 N.3    76  ASP76      -0.1239
      2  CA        14.7490   15.5250   19.5420 C.3    76  ASP76       0.1674
      3  C         15.7040   15.9730   20.6520 C.2    76  ASP76       0.2266
      4  O         16.8510   15.5080   20.7180 O.2    76  ASP76      -0.2867
      5  CB        15.5220   15.2520   18.2330 C.3    76  ASP76       0.1410
      6  CG        16.0860   16.5160   17.6020 C.2    76  ASP76       0.3668
      7  OD1       15.7840   17.6300   18.1040 O.co2  76  ASP76      -0.2456
      8  OD2       16.8410   16.4110   16.5990 O.co2  76  ASP76      -0.2456
      9  N         20.0670   19.2960   16.5630 N.3    80  GLY80      -0.1210
     10  CA        19.3330   18.5330   15.5560 C.3    80  GLY80       0.1956
     11  C         18.1890   19.3390   14.9640 C.2    80  GLY80       0.2612
     12  O         18.3970   20.4390   14.4710 O.2    80  GLY80      -0.2717
     13  N         16.9750   18.7960   15.0300 N.am   81  LEU81      -0.1965
     14  CA        15.7680   19.5410   14.6780 C.3    81  LEU81       0.1728
     15  C         15.6180   20.7660   15.5420 C.2    81  LEU81       0.2616
     16  O         15.6650   20.6680   16.7630 O.2    81  LEU81      -0.2715
     17  CB        14.5150   18.6970   14.8620 C.3    81  LEU81       0.0311
     18  CG        14.3590   17.3910   14.0910 C.3    81  LEU81       0.0022
     19  CD1       13.0310   16.7530   14.4910 C.3    81  LEU81       0.0001
     20  CD2       14.4490   17.6010   12.5850 C.3    81  LEU81       0.0001
     21  N         15.4370   21.9250   14.9090 N.am   82  LEU82      -0.1963
     22  CA        15.2120   23.1760   15.6300 C.3    82  LEU82       0.1728
     23  C         13.7330   23.5480   15.6310 C.2    82  LEU82       0.2616
     24  O         13.2230   24.0780   16.6140 O.2    82  LEU82      -0.2715
     25  CB        16.0360   24.3140   15.0130 C.3    82  LEU82       0.0311
     26  CG        17.5540   24.0980   14.9810 C.3    82  LEU82       0.0022
     27  CD1       18.2780   25.3030   14.3810 C.3    82  LEU82       0.0001
     28  CD2       18.0970   23.8030   16.3430 C.3    82  LEU82       0.0001
     29  N         13.0490   23.2520   14.5310 N.am   83  ALA83      -0.1963
     30  CA        11.6980   23.7450   14.3040 C.3    83  ALA83       0.1728
     31  C         11.1770   23.1430   13.0180 C.2    83  ALA83       0.2616
     32  O         11.9710   22.7570   12.1660 O.2    83  ALA83      -0.2715
     33  CB        11.7070   25.2800   14.1930 C.3    83  ALA83       0.0334
     34  N          9.8550   23.0380   12.8880 N.am   84  HIS84      -0.1973
     35  CA         9.2240   22.6620   11.6080 C.3    84  HIS84       0.1656
     36  C          7.9110   23.4050   11.4450 C.2    84  HIS84       0.2291
     37  O          7.3410   23.9060   12.4150 O.2    84  HIS84      -0.2864
     38  CB         8.9980   21.1380   11.4630 C.3    84  HIS84       0.0771
     39  CG         8.2800   20.5040   12.6190 C.ar   84  HIS84       0.0820
     40  ND1        8.8700   19.5610   13.4330 N.ar   84  HIS84      -0.2267
     41  CD2        7.0170   20.6670   13.0870 C.ar   84  HIS84       0.1154
     42  CE1        8.0110   19.1880   14.3680 C.ar   84  HIS84       0.1986
     43  NE2        6.8770   19.8390   14.1760 N.ar   84  HIS84      -0.2212
     44  N         15.5530   34.5840   12.9050 N.3   115  LEU115     -0.1231
     45  CA        16.0730   33.9300   11.6990 C.3   115  LEU115      0.1693
     46  C         15.4000   32.5750   11.4530 C.2   115  LEU115      0.2591
     47  O         14.9420   32.2960   10.3530 O.2   115  LEU115     -0.2718
     48  CB        17.5930   33.7490   11.7850 C.3   115  LEU115      0.0284
     49  CG        18.4840   34.9770   11.5670 C.3   115  LEU115      0.0019
     50  CD1       19.9690   34.5860   11.5800 C.3   115  LEU115      0.0001
     51  CD2       18.1240   35.6750   10.2630 C.3   115  LEU115      0.0001
     52  N         15.3390   31.7320   12.4760 N.am  116  VAL116     -0.1980
     53  CA        14.6710   30.4290   12.3420 C.3   116  VAL116      0.1595
     54  C         13.1780   30.6140   11.9930 C.2   116  VAL116      0.2287
     55  O         12.6550   29.9490   11.0960 O.2   116  VAL116     -0.2864
     56  CB        14.8420   29.5620   13.6130 C.3   116  VAL116      0.0276
     57  CG1       14.1250   28.2270   13.4530 C.3   116  VAL116      0.0022
     58  CG2       16.3310   29.3570   13.9270 C.3   116  VAL116      0.0022
     59  N         12.6100   31.6330    8.3820 N.3   119  HIS119     -0.1226
     60  CA        12.7390   30.4120    7.6000 C.3   119  HIS119      0.1752
     61  C         11.4620   29.5610    7.6600 C.2   119  HIS119      0.2595
     62  O         10.9260   29.1740    6.6220 O.2   119  HIS119     -0.2718
     63  CB        13.9560   29.6160    8.0810 C.3   119  HIS119      0.0759
     64  CG        14.1140   28.2840    7.4230 C.ar  119  HIS119      0.0818
     65  ND1       14.9880   28.0720    6.3810 N.ar  119  HIS119     -0.2268
     66  CD2       13.5200   27.0930    7.6670 C.ar  119  HIS119      0.1154
     67  CE1       14.9350   26.8040    6.0190 C.ar  119  HIS119      0.1986
     68  NE2       14.0490   26.1870    6.7810 N.ar  119  HIS119     -0.2212
     69  N         10.9730   29.2980    8.8710 N.am  120  GLU120     -0.1979
     70  CA         9.7710   28.4800    9.0580 C.3   120  GLU120      0.1602
     71  C          8.5350   29.0710    8.3890 C.2   120  GLU120      0.2287
     72  O          7.7380   28.3420    7.7820 O.2   120  GLU120     -0.2864
     73  CB         9.4990   28.2500   10.5550 C.3   120  GLU120      0.0415
     74  CG        10.5490   27.3990   11.2530 C.3   120  GLU120      0.1163
     75  CD        10.8450   26.1170   10.4860 C.2   120  GLU120      0.3649
     76  OE1        9.8940   25.4230   10.0600 O.co2 120  GLU120     -0.2457
     77  OE2       12.0310   25.8110   10.3070 O.co2 120  GLU120     -0.2457
     78  N          8.1560   28.2190    4.9950 N.3   123  HIS123     -0.1241
     79  CA         7.4670   26.9380    4.8210 C.3   123  HIS123      0.1621
     80  C          5.9620   27.1250    4.9510 C.2   123  HIS123      0.2264
     81  O          5.2080   26.6000    4.1180 O.2   123  HIS123     -0.2867
     82  CB         7.9310   25.8790    5.8290 C.3   123  HIS123      0.0745
     83  CG         9.3210   25.3760    5.6030 C.ar  123  HIS123      0.0817
     84  ND1        9.7900   25.0080    4.3600 N.ar  123  HIS123     -0.2268
     85  CD2       10.3310   25.1400    6.4720 C.ar  123  HIS123      0.1154
     86  CE1       11.0360   24.5810    4.4720 C.ar  123  HIS123      0.1986
     87  NE2       11.3840   24.6390    5.7460 N.ar  123  HIS123     -0.2212
     88  N         12.8350   24.0040    0.6950 N.3   129  HIS129     -0.1241
     89  CA        14.2400   24.3340    0.8910 C.3   129  HIS129      0.1621
     90  C         14.9290   24.7220   -0.4090 C.2   129  HIS129      0.2264
     91  O         14.5350   24.2850   -1.4960 O.2   129  HIS129     -0.2867
     92  CB        14.9810   23.1740    1.5730 C.3   129  HIS129      0.0745
     93  CG        14.5710   22.9810    2.9950 C.ar  129  HIS129      0.0817
     94  ND1       13.9720   21.8270    3.4520 N.ar  129  HIS129     -0.2268
     95  CD2       14.6020   23.8320    4.0470 C.ar  129  HIS129      0.1154
     96  CE1       13.6810   21.9650    4.7340 C.ar  129  HIS129      0.1986
     97  NE2       14.0630   23.1690    5.1210 N.ar  129  HIS129     -0.2212
     98  N         23.3000   28.1330   -0.8190 N.3   133  PRO133     -0.2102
     99  CA        23.7540   28.2750    0.5800 C.3   133  PRO133      0.1504
    100  C         23.5960   29.6760    1.1810 C.2   133  PRO133      0.2576
    101  O         23.7280   29.8480    2.3950 O.2   133  PRO133     -0.2718
    102  CB        25.2340   27.8760    0.5180 C.3   133  PRO133      0.0282
    103  CG        25.6330   28.0650   -0.9110 C.3   133  PRO133      0.0208
    104  CD        24.4100   27.7790   -1.7240 C.3   133  PRO133      0.0893
    105  N         23.3270   30.6680    0.3400 N.am  134  GLY134     -0.1943
    106  CA        23.0540   32.0270    0.8120 C.3   134  GLY134      0.2014
    107  C         21.5820   32.3180    1.0740 C.2   134  GLY134      0.2639
    108  O         21.2550   33.3650    1.6480 O.2   134  GLY134     -0.2714
    109  N         20.6960   31.4050    0.6670 N.am  135  ALA135     -0.1963
    110  CA        19.2530   31.6200    0.7770 C.3   135  ALA135      0.1728
    111  C         18.7780   31.4490    2.2240 C.2   135  ALA135      0.2616
    112  O         19.3410   30.6430    2.9700 O.2   135  ALA135     -0.2715
    113  CB        18.5060   30.6550   -0.1380 C.3   135  ALA135      0.0334
    114  N         17.7490   32.2050    2.6160 N.am  136  LEU136     -0.1977
    115  CA        17.1130   32.0280    3.9410 C.3   136  LEU136      0.1596
    116  C         16.4900   30.6390    4.0660 C.2   136  LEU136      0.2287
    117  O         16.4500   30.0830    5.1610 O.2   136  LEU136     -0.2864
    118  CB        16.0500   33.1080    4.2210 C.3   136  LEU136      0.0297
    119  CG        15.2270   32.9970    5.5220 C.3   136  LEU136      0.0022
    120  CD1       16.1120   33.1370    6.7610 C.3   136  LEU136      0.0001
    121  CD2       14.1000   34.0360    5.5370 C.3   136  LEU136      0.0001
    122  N         17.7430   27.9720    2.8290 N.3   138  PHE138     -0.1228
    123  CA        18.7860   26.9480    2.9690 C.3   138  PHE138      0.1721
    124  C         18.6590   26.3350    4.3760 C.2   138  PHE138      0.2437
    125  O         18.4780   27.0750    5.3410 O.2   138  PHE138     -0.2733
    126  CB        20.1700   27.5670    2.7680 C.3   138  PHE138      0.0547
    127  CG        21.2750   26.5570    2.5580 C.ar  138  PHE138     -0.0202
    128  CD1       21.3200   25.7850    1.3990 C.ar  138  PHE138     -0.0042
    129  CD2       22.2920   26.4090    3.4980 C.ar  138  PHE138     -0.0042
    130  CE1       22.3500   24.8630    1.1800 C.ar  138  PHE138     -0.0003
    131  CE2       23.3250   25.4820    3.2940 C.ar  138  PHE138     -0.0003
    132  CZ        23.3520   24.7150    2.1250 C.ar  138  PHE138     -0.0000
    133  N         18.7320   24.9900    4.4990 N.am  139  PRO139     -0.2718
    134  CA        18.4560   24.3630    5.8050 C.3   139  PRO139      0.1535
    135  C         19.6380   24.2350    6.7870 C.2   139  PRO139      0.2598
    136  O         19.6440   23.3160    7.6040 O.2   139  PRO139     -0.2715
    137  CB        17.9000   22.9800    5.4230 C.3   139  PRO139      0.0310
    138  CG        18.4480   22.6820    4.0610 C.3   139  PRO139      0.0237
    139  CD        18.8530   23.9890    3.4170 C.3   139  PRO139      0.0939
    140  N         20.6130   25.1440    6.7230 N.am  140  ILE140     -0.1964
    141  CA        21.6480   25.2380    7.7630 C.3   140  ILE140      0.1727
    142  C         21.5570   26.5900    8.4710 C.2   140  ILE140      0.2616
    143  O         21.5730   27.6310    7.8360 O.2   140  ILE140     -0.2715
    144  CB        23.0840   25.0590    7.1840 C.3   140  ILE140      0.0290
    145  CG1       23.2060   23.6990    6.5340 C.3   140  ILE140      0.0022
    146  CG2       24.1400   25.2150    8.3100 C.3   140  ILE140      0.0023
    147  CD1       24.5230   23.4530    5.8320 C.3   140  ILE140      0.0001
    148  N         21.4830   26.5790    9.7950 N.am  141  TYR141     -0.1960
    149  CA        21.4430   27.8310   10.5370 C.3   141  TYR141      0.1771
    150  C         22.8060   28.5570   10.4640 C.2   141  TYR141      0.2620
    151  O         23.8470   27.9270   10.6170 O.2   141  TYR141     -0.2715
    152  CB        21.0410   27.5800   11.9900 C.3   141  TYR141      0.0574
    153  CG        21.1210   28.8210   12.8520 C.ar  141  TYR141     -0.0198
    154  CD1       20.0090   29.6380   13.0490 C.ar  141  TYR141     -0.0009
    155  CD2       22.3130   29.1750   13.4770 C.ar  141  TYR141     -0.0009
    156  CE1       20.0890   30.7850   13.8550 C.ar  141  TYR141      0.0417
    157  CE2       22.4010   30.3020   14.2790 C.ar  141  TYR141      0.0417
    158  CZ        21.2890   31.1070   14.4610 C.ar  141  TYR141      0.1957
    159  OH        21.4040   32.2400   15.2460 O.3   141  TYR141     -0.2866
    160  N         22.7730   29.8680   10.2190 N.am  142  THR142     -0.1951
    161  CA        23.9470   30.7480   10.3470 C.3   142  THR142      0.1897
    162  C         23.5060   32.1570   10.7590 C.2   142  THR142      0.2313
    163  O         22.3900   32.5920   10.4410 O.2   142  THR142     -0.2863
    164  CB        24.7670   30.8590    9.0320 C.3   142  THR142      0.1794
    165  OG1       23.9200   31.2950    7.9640 O.3   142  THR142     -0.2208
    166  CG2       25.3940   29.5410    8.6640 C.3   142  THR142      0.0378
    167  N         23.8370   36.1050   10.7020 N.3   144  THR144     -0.1218
    168  CA        24.1450   36.7740    9.4380 C.3   144  THR144      0.1862
    169  C         24.2310   38.3020    9.5260 C.2   144  THR144      0.2287
    170  O         23.7200   38.9140   10.4620 O.2   144  THR144     -0.2866
    171  CB        23.0700   36.3700    8.4110 C.3   144  THR144      0.1770
    172  OG1       22.2280   35.3610    8.9930 O.3   144  THR144     -0.2211
    173  CG2       23.7140   35.8220    7.1300 C.3   144  THR144      0.0375
    174  N         18.5320   42.8340    8.2490 N.3   147  PHE147     -0.1241
    175  CA        18.3300   41.6320    7.4370 C.3   147  PHE147      0.1605
    176  C         17.8000   41.9800    6.0450 C.2   147  PHE147      0.2264
    177  O         16.8160   42.7010    5.9150 O.2   147  PHE147     -0.2867
    178  CB        17.3580   40.6760    8.1370 C.3   147  PHE147      0.0534
    179  CG        17.1460   39.3870    7.3980 C.ar  147  PHE147     -0.0203
    180  CD1       18.1050   38.3930    7.4330 C.ar  147  PHE147     -0.0042
    181  CD2       16.0040   39.1780    6.6500 C.ar  147  PHE147     -0.0042
    182  CE1       17.9210   37.2080    6.7460 C.ar  147  PHE147     -0.0003
    183  CE2       15.8110   37.9890    5.9640 C.ar  147  PHE147     -0.0003
    184  CZ        16.7740   37.0050    6.0150 C.ar  147  PHE147     -0.0000
    185  N         17.5190   37.3100    0.7540 N.3   150  PRO150     -0.2116
    186  CA        18.2990   37.0030   -0.4590 C.3   150  PRO150      0.1372
    187  C         17.4280   36.8280   -1.7100 C.2   150  PRO150      0.2244
    188  O         16.2380   36.5050   -1.5970 O.2   150  PRO150     -0.2868
    189  CB        19.0110   35.6930   -0.1030 C.3   150  PRO150      0.0268
    190  CG        19.0380   35.6580    1.4000 C.3   150  PRO150      0.0207
    191  CD        17.7930   36.3500    1.8430 C.3   150  PRO150      0.0892
@<TRIPOS>BOND
     1   104   103    1
     2   104    98    1
     3   187   188    2
     4   187   186    1
     5    91    90    2
     6   103   102    1
     7    98    99    1
     8   186   189    1
     9   186   185    1
    10    90    89    1
    11   113   110    1
    12   189   190    1
    13   105   106    1
    14   105   100   am
    15   102    99    1
    16    99   100    1
    17   109   110    1
    18   109   107   am
    19    88    89    1
    20   185   191    1
    21   110   111    1
    22   106   107    1
    23    89    92    1
    24   107   108    2
    25   130   128   ar
    26   130   132   ar
    27   100   101    2
    28   128   127   ar
    29   190   191    1
    30    92    93    1
    31   132   131   ar
    32   111   114   am
    33   111   112    2
    34   127   126    1
    35   127   129   ar
    36   114   115    1
    37   126   123    1
    38   122   123    1
    39   123   124    1
    40    93    94   ar
    41    93    95   ar
    42   131   129   ar
    43   139   138    1
    44   139   133    1
    45    94    96   ar
    46   115   116    1
    47   115   118    1
    48    95    97   ar
    49   138   137    1
    50   116   117    2
    51    81    80    2
    52   118   119    1
    53    84    86   ar
    54    84    83   ar
    55   124   133   am
    56   124   125    2
    57    86    87   ar
    58   133   134    1
    59    96    97   ar
    60    79    80    1
    61    79    78    1
    62    79    82    1
    63   137   134    1
    64   119   121    1
    65   119   120    1
    66    83    82    1
    67    83    85   ar
    68    87    85   ar
    69   134   135    1
    70   147   145    1
    71   177   176    2
    72   183   184   ar
    73   183   181   ar
    74   184   182   ar
    75    67    65   ar
    76    67    68   ar
    77   176   175    1
    78    65    64   ar
    79   145   144    1
    80    62    61    2
    81   181   179   ar
    82   140   135   am
    83   140   141    1
    84   182   180   ar
    85    68    66   ar
    86   135   136    2
    87   173   171    1
    88   144   141    1
    89   144   146    1
    90   179   180   ar
    91   179   178    1
    92    64    66   ar
    93    64    63    1
    94   175   178    1
    95   175   174    1
    96    60    61    1
    97    60    63    1
    98    60    59    1
    99    61    69   am
   100   141   142    1
   101    72    71    2
   102   143   142    2
   103   165   164    1
   104    71    70    1
   105   171   172    1
   106   171   168    1
   107   142   148   am
   108   166   164    1
   109    69    70    1
   110   164   161    1
   111    70    73    1
   112   168   169    1
   113   168   167    1
   114   169   170    2
   115   148   149    1
   116    76    75   ar
   117   160   161    1
   118   160   150   am
   119    51    49    1
   120    77    75   ar
   121   161   162    1
   122    47    46    2
   123   163   162    2
   124   150   149    1
   125   150   151    2
   126    75    74    1
   127   149   152    1
   128    73    74    1
   129    55    54    2
   130    36    35    1
   131    36    37    2
   132    46    45    1
   133    46    52   am
   134    38    35    1
   135    38    39    1
   136    49    50    1
   137    49    48    1
   138    35    34    1
   139    45    48    1
   140    45    44    1
   141   152   153    1
   142    54    53    1
   143    32    31    2
   144    53    52    1
   145    53    56    1
   146    20    18    1
   147    39    41   ar
   148    39    40   ar
   149   153   154   ar
   150   153   155   ar
   151    34    31   am
   152    31    30    1
   153   154   156   ar
   154    41    43   ar
   155    40    42   ar
   156    57    56    1
   157   155   157   ar
   158    56    58    1
   159   156   158   ar
   160    18    19    1
   161    18    17    1
   162    43    42   ar
   163    33    30    1
   164   157   158   ar
   165    30    29    1
   166    27    26    1
   167   158   159    1
   168    12    11    2
   169    29    23   am
   170    14    17    1
   171    14    13    1
   172    14    15    1
   173    21    15   am
   174    21    22    1
   175    11    13   am
   176    11    10    1
   177    26    25    1
   178    26    28    1
   179    25    22    1
   180    15    16    2
   181    10     9    1
   182    22    23    1
   183    23    24    2
   184     8     6   ar
   185     6     7   ar
   186     6     5    1
   187     5     2    1
   188     1     2    1
   189     2     3    1
   190     3     4    2
