@<TRIPOS>MOLECULE
tmp/3krzB01.pdb
 115 108 0 0 0
SMALL
GASTEIGER

@<TRIPOS>ATOM
      1  N         67.7950   10.0100   14.1810 N.3    21  PRO21      -0.2116
      2  CA        68.4250   11.1050   13.4060 C.3    21  PRO21       0.1372
      3  C         68.8710   12.2390   14.3320 C.2    21  PRO21       0.2244
      4  O         68.0890   12.6760   15.1910 O.2    21  PRO21      -0.2868
      5  CB        67.2960   11.5730   12.4580 C.3    21  PRO21       0.0268
      6  CG        66.0260   11.1090   13.1030 C.3    21  PRO21       0.0207
      7  CD        66.3690    9.8220   13.8330 C.3    21  PRO21       0.0892
      8  N         71.0050   15.9490   14.1040 N.3    23  CYS23      -0.1235
      9  CA        71.7740   16.9990   13.4170 C.3    23  CYS23       0.1677
     10  C         73.1580   17.1870   14.0310 C.2    23  CYS23       0.2270
     11  O         73.2960   17.2970   15.2720 O.2    23  CYS23      -0.2867
     12  CB        71.0420   18.3290   13.5110 C.3    23  CYS23       0.0956
     13  SG        69.6160   18.4360   12.3840 S.3    23  CYS23      -0.0801
     14  N         75.3010   19.7430   12.6630 N.3    25  TYR25      -0.1241
     15  CA        75.6430   21.1540   12.4080 C.3    25  TYR25       0.1605
     16  C         77.0940   21.3050   11.9150 C.2    25  TYR25       0.2264
     17  O         77.8200   22.2090   12.3350 O.2    25  TYR25      -0.2867
     18  CB        75.3810   22.0090   13.6600 C.3    25  TYR25       0.0534
     19  CG        74.0260   21.7470   14.2990 C.ar   25  TYR25      -0.0201
     20  CD1       72.8500   22.2440   13.7190 C.ar   25  TYR25      -0.0009
     21  CD2       73.9140   20.9550   15.4500 C.ar   25  TYR25      -0.0009
     22  CE1       71.5950   21.9870   14.2950 C.ar   25  TYR25       0.0417
     23  CE2       72.6720   20.6920   16.0390 C.ar   25  TYR25       0.0417
     24  CZ        71.5140   21.2210   15.4660 C.ar   25  TYR25       0.1957
     25  OH        70.2830   20.9750   16.0360 O.3    25  TYR25      -0.2866
     26  N         68.3260   15.1340    9.9480 N.3    56  ALA56      -0.1245
     27  CA        67.4290   15.9360    9.0950 C.3    56  ALA56       0.1562
     28  C         68.2080   16.5130    7.8990 C.2    56  ALA56       0.2260
     29  O         69.1750   17.2630    8.0850 O.2    56  ALA56      -0.2867
     30  CB        66.8110   17.0600    9.9360 C.3    56  ALA56       0.0290
     31  N         67.3270   23.9260    9.0290 N.3    65  ILE65      -0.1245
     32  CA        67.2700   24.5310   10.3500 C.3    65  ILE65       0.1561
     33  C         68.4030   25.5660   10.5230 C.2    65  ILE65       0.2260
     34  O         68.1780   26.7180   10.9580 O.2    65  ILE65      -0.2867
     35  CB        67.3730   23.4360   11.4440 C.3    65  ILE65       0.0252
     36  CG1       66.3160   22.3430   11.1940 C.3    65  ILE65       0.0019
     37  CG2       67.2760   24.0650   12.8300 C.3    65  ILE65       0.0019
     38  CD1       66.4850   21.1020   12.0850 C.3    65  ILE65       0.0001
     39  N         66.4800   10.9800    6.7660 N.3    98  GLN98      -0.1245
     40  CA        65.3210   11.7720    7.1900 C.3    98  GLN98       0.1566
     41  C         65.2070   12.9870    6.2660 C.2    98  GLN98       0.2260
     42  O         66.0500   13.8820    6.3180 O.2    98  GLN98      -0.2867
     43  CB        65.4940   12.2400    8.6310 C.3    98  GLN98       0.0367
     44  CG        64.2510   12.9450    9.1670 C.3    98  GLN98       0.0905
     45  CD        64.4460   13.4670   10.5780 C.2    98  GLN98       0.2608
     46  OE1       65.2800   14.3290   10.8300 O.2    98  GLN98      -0.2717
     47  NE2       63.6570   12.9530   11.5000 N.am   98  GLN98      -0.0878
     48  N         60.5050   27.2390   11.5360 N.3   105  LYS105     -0.1245
     49  CA        61.6070   27.0320   12.4720 C.3   105  LYS105      0.1561
     50  C         62.9940   27.0410   11.7870 C.2   105  LYS105      0.2260
     51  O         64.0150   26.7220   12.4130 O.2   105  LYS105     -0.2867
     52  CB        61.3700   25.7480   13.3000 C.3   105  LYS105      0.0271
     53  CG        60.5350   25.9610   14.5520 C.3   105  LYS105      0.0035
     54  CD        60.3710   24.6930   15.4370 C.3   105  LYS105      0.0206
     55  CE        61.6540   24.2610   16.1270 C.3   105  LYS105      0.1093
     56  NZ        61.3660   23.2460   17.1930 N.3   105  LYS105     -0.1314
     57  N         60.1430   13.7830    7.8160 N.3   161  HIS161     -0.1241
     58  CA        60.1340   14.4720    9.1110 C.3   161  HIS161      0.1621
     59  C         58.8690   15.3170    9.2740 C.2   161  HIS161      0.2264
     60  O         58.8340   16.4720    8.8300 O.2   161  HIS161     -0.2867
     61  CB        61.3600   15.3810    9.2450 C.3   161  HIS161      0.0745
     62  CG        61.6760   15.7640   10.6620 C.ar  161  HIS161      0.0817
     63  ND1       60.8000   15.5640   11.7140 N.ar  161  HIS161     -0.2268
     64  CD2       62.7940   16.3050   11.2030 C.ar  161  HIS161      0.1154
     65  CE1       61.3680   15.9730   12.8370 C.ar  161  HIS161      0.1986
     66  NE2       62.5800   16.4230   12.5520 N.ar  161  HIS161     -0.2212
     67  N         58.4590   17.7540   15.4880 N.3   164  HIS164     -0.1241
     68  CA        59.3990   18.6800   16.1120 C.3   164  HIS164      0.1621
     69  C         59.2190   20.1490   15.7040 C.2   164  HIS164      0.2264
     70  O         60.1550   20.9380   15.7660 O.2   164  HIS164     -0.2867
     71  CB        60.8540   18.2110   15.8960 C.3   164  HIS164      0.0745
     72  CG        61.1680   16.8980   16.5450 C.ar  164  HIS164      0.0817
     73  ND1       62.3630   16.2400   16.3540 N.ar  164  HIS164     -0.2268
     74  CD2       60.4390   16.1240   17.3920 C.ar  164  HIS164      0.1154
     75  CE1       62.3540   15.1100   17.0490 C.ar  164  HIS164      0.1986
     76  NE2       61.1950   15.0130   17.6780 N.ar  164  HIS164     -0.2212
     77  N         58.4810   21.4960   12.7960 N.3   166  TYR166     -0.1241
     78  CA        58.9140   21.9010   11.4520 C.3   166  TYR166      0.1605
     79  C         57.7330   21.9860   10.4720 C.2   166  TYR166      0.2264
     80  O         56.5700   22.0180   10.9170 O.2   166  TYR166     -0.2867
     81  CB        60.0730   21.0010   10.9870 C.3   166  TYR166      0.0534
     82  CG        61.2440   21.1090   11.9630 C.ar  166  TYR166     -0.0201
     83  CD1       61.8350   22.3470   12.2380 C.ar  166  TYR166     -0.0009
     84  CD2       61.7100   20.0040   12.6410 C.ar  166  TYR166     -0.0009
     85  CE1       62.8950   22.4690   13.1570 C.ar  166  TYR166      0.0417
     86  CE2       62.7840   20.1020   13.5660 C.ar  166  TYR166      0.0417
     87  CZ        63.3580   21.3300   13.8120 C.ar  166  TYR166      0.1957
     88  OH        64.3890   21.4050   14.7160 O.3   166  TYR166     -0.2866
     89  N         57.9190   20.3340   20.2130 N.3   250  GLY250     -0.1225
     90  CA        58.6830   21.0710   19.2010 C.3   250  GLY250      0.1811
     91  C         57.9710   22.2600   18.5740 C.2   250  GLY250      0.2280
     92  O         58.6290   23.1680   18.0440 O.2   250  GLY250     -0.2866
     93  N         59.5820    8.2380   28.3090 N.3   262  TYR262     -0.1241
     94  CA        58.4720    9.1960   28.3580 C.3   262  TYR262      0.1605
     95  C         57.6510    9.3360   27.0740 C.2   262  TYR262      0.2264
     96  O         56.5410    9.8800   27.1090 O.2   262  TYR262     -0.2867
     97  CB        58.9500   10.5720   28.8240 C.3   262  TYR262      0.0534
     98  CG        59.7510   11.3470   27.8050 C.ar  262  TYR262     -0.0201
     99  CD1       59.2150   12.4890   27.1950 C.ar  262  TYR262     -0.0009
    100  CD2       61.0480   10.9600   27.4670 C.ar  262  TYR262     -0.0009
    101  CE1       59.9600   13.2150   26.2730 C.ar  262  TYR262      0.0417
    102  CE2       61.7950   11.6770   26.5350 C.ar  262  TYR262      0.0417
    103  CZ        61.2480   12.7920   25.9450 C.ar  262  TYR262      0.1957
    104  OH        62.0000   13.5170   25.0310 O.3   262  TYR262     -0.2866
    105  N         71.0310   10.1500   22.0750 N.3   306  ARG306     -0.1245
    106  CA        72.1750   10.6260   22.8660 C.3   306  ARG306      0.1563
    107  C         73.0460    9.4730   23.3770 C.2   306  ARG306      0.2260
    108  O         74.2800    9.6070   23.4470 O.2   306  ARG306     -0.2867
    109  CB        71.7040   11.5610   23.9870 C.3   306  ARG306      0.0307
    110  CG        71.3370   12.9600   23.4620 C.3   306  ARG306      0.0489
    111  CD        70.5400   13.7630   24.4710 C.3   306  ARG306      0.2205
    112  NE        69.2030   13.1870   24.6720 N.pl3 306  ARG306     -0.0865
    113  CZ        68.3020   13.6790   25.5150 C.cat 306  ARG306      0.5346
    114  NH1       68.5840   14.7640   26.2290 N.pl3 306  ARG306      0.1354
    115  NH2       67.1160   13.0970   25.6320 N.pl3 306  ARG306      0.1354
@<TRIPOS>BOND
     1    41    42    2
     2    41    40    1
     3    39    40    1
     4    40    43    1
     5    57    58    1
     6    28    29    2
     7    28    27    1
     8    43    44    1
     9    60    59    2
    10    31    32    1
    11    27    30    1
    12    27    26    1
    13    58    61    1
    14    58    59    1
    15    44    45    1
    16    61    62    1
    17    32    33    1
    18    32    35    1
    19    79    80    2
    20    79    78    1
    21    33    34    2
    22    45    46    2
    23    45    47   am
    24    62    64   ar
    25    62    63   ar
    26    81    78    1
    27    81    82    1
    28    36    35    1
    29    36    38    1
    30    64    66   ar
    31    35    37    1
    32    78    77    1
    33    48    49    1
    34    63    65   ar
    35    50    51    2
    36    50    49    1
    37    16    17    2
    38    16    15    1
    39    82    83   ar
    40    82    84   ar
    41    83    85   ar
    42    13    12    1
    43    15    14    1
    44    15    18    1
    45     5     6    1
    46     5     2    1
    47    49    52    1
    48    66    65   ar
    49    84    86   ar
    50     6     7    1
    51    85    87   ar
    52    52    53    1
    53     2     1    1
    54     2     3    1
    55     9    12    1
    56     9    10    1
    57     9     8    1
    58    86    87   ar
    59    18    19    1
    60    20    22   ar
    61    20    19   ar
    62    87    88    1
    63     7     1    1
    64    10    11    2
    65    22    24   ar
    66    19    21   ar
    67     3     4    2
    68    53    54    1
    69    54    55    1
    70    21    23   ar
    71    24    25    1
    72    24    23   ar
    73    67    68    1
    74    69    70    2
    75    69    68    1
    76    71    68    1
    77    71    72    1
    78    55    56    1
    79    73    72   ar
    80    73    75   ar
    81    72    74   ar
    82    75    76   ar
    83    74    76   ar
    84    92    91    2
    85    91    90    1
    86    90    89    1
    87   105   106    1
    88   106   107    1
    89   106   109    1
    90   107   108    2
    91   110   109    1
    92   110   111    1
    93   111   112    1
    94   112   113    2
    95   104   103    1
    96   113   115    1
    97   113   114    1
    98   103   101   ar
    99   103   102   ar
   100   101    99   ar
   101   102   100   ar
   102    95    96    2
   103    95    94    1
   104    99    98   ar
   105   100    98   ar
   106    98    97    1
   107    93    94    1
   108    94    97    1
