@<TRIPOS>MOLECULE
tmp/3ks9A00.pdb
 141 135 0 0 0
SMALL
GASTEIGER

@<TRIPOS>ATOM
      1  N        -33.2100    8.1690   30.6110 N.3    40  TYR40      -0.1241
      2  CA       -34.4960    7.9320   29.9120 C.3    40  TYR40       0.1605
      3  C        -34.2990    7.4290   28.4820 C.2    40  TYR40       0.2264
      4  O        -35.2760    7.1000   27.7820 O.2    40  TYR40      -0.2867
      5  CB       -35.3010    9.2380   29.8420 C.3    40  TYR40       0.0534
      6  CG       -36.0670    9.5990   31.0970 C.ar   40  TYR40      -0.0201
      7  CD1      -35.4070    9.9380   32.2840 C.ar   40  TYR40      -0.0009
      8  CD2      -37.4560    9.6460   31.0840 C.ar   40  TYR40      -0.0009
      9  CE1      -36.1210   10.2780   33.4370 C.ar   40  TYR40       0.0417
     10  CE2      -38.1720    9.9870   32.2220 C.ar   40  TYR40       0.0417
     11  CZ       -37.5050   10.2960   33.3870 C.ar   40  TYR40       0.1957
     12  OH       -38.2380   10.6270   34.4960 O.3    40  TYR40      -0.2866
     13  N        -39.4640   12.2730   23.7500 N.3    76  TRP76      -0.1241
     14  CA       -40.4320   12.7330   24.7360 C.3    76  TRP76       0.1605
     15  C        -41.4330   13.7090   24.1300 C.2    76  TRP76       0.2264
     16  O        -41.7610   14.7340   24.7290 O.2    76  TRP76      -0.2867
     17  CB       -39.7180   13.4340   25.8880 C.3    76  TRP76       0.0550
     18  CG       -40.4720   13.3910   27.1540 C.ar   76  TRP76       0.0003
     19  CD1      -41.2100   14.3950   27.7070 C.ar   76  TRP76       0.0946
     20  CD2      -40.5490   12.2840   28.0600 C.ar   76  TRP76       0.0152
     21  NE1      -41.7450   13.9800   28.9040 N.ar   76  TRP76      -0.2442
     22  CE2      -41.3530   12.6900   29.1440 C.ar   76  TRP76       0.0810
     23  CE3      -40.0060   10.9920   28.0650 C.ar   76  TRP76       0.0012
     24  CZ2      -41.6430   11.8450   30.2220 C.ar   76  TRP76       0.0191
     25  CZ3      -40.2910   10.1480   29.1420 C.ar   76  TRP76       0.0001
     26  CH2      -41.1040   10.5840   30.2050 C.ar   76  TRP76       0.0015
     27  N        -42.5940    6.6250   27.2290 N.3   103  GLY103     -0.1210
     28  CA       -42.4660    6.8890   28.6590 C.3   103  GLY103      0.1956
     29  C        -43.6190    7.6370   29.3200 C.2   103  GLY103      0.2613
     30  O        -44.0940    7.2200   30.3710 O.2   103  GLY103     -0.2717
     31  N        -44.0990    8.7140   28.7030 N.am  104  SER104     -0.1938
     32  CA       -45.0460    9.5900   29.3560 C.3   104  SER104      0.2055
     33  C        -46.4740    9.2470   28.9340 C.2   104  SER104      0.2644
     34  O        -46.6800    8.7620   27.8090 O.2   104  SER104     -0.2714
     35  CB       -44.6820   11.0420   29.0610 C.3   104  SER104      0.2130
     36  OG       -45.3920   11.5560   27.9660 O.3   104  SER104     -0.2179
     37  N        -47.4420    9.4840   29.8230 N.am  105  SER105     -0.1935
     38  CA       -48.8360    9.1090   29.5490 C.3   105  SER105      0.2055
     39  C        -49.4550    9.8330   28.3510 C.2   105  SER105      0.2643
     40  O        -50.1920    9.2190   27.5900 O.2   105  SER105     -0.2714
     41  CB       -49.7390    9.2870   30.7870 C.3   105  SER105      0.2130
     42  OG       -49.4380    8.3310   31.8090 O.3   105  SER105     -0.2179
     43  N        -49.2200   11.1430   28.2080 N.am  106  SER106     -0.1949
     44  CA       -49.8460   11.9040   27.0970 C.3   106  SER106      0.1924
     45  C        -49.3390   11.3700   25.7490 C.2   106  SER106      0.2314
     46  O        -50.0910   11.2150   24.8020 O.2   106  SER106     -0.2863
     47  CB       -49.6020   13.4370   27.2270 C.3   106  SER106      0.2116
     48  OG       -48.1960   13.7510   27.0890 O.3   106  SER106     -0.2180
     49  N        -43.6820    3.2130   32.4150 N.3   126  SER126     -0.1202
     50  CA       -43.7010    4.4010   33.2700 C.3   126  SER126      0.2020
     51  C        -44.9520    5.2930   33.1170 C.2   126  SER126      0.2619
     52  O        -45.1080    6.2820   33.8340 O.2   126  SER126     -0.2717
     53  CB       -42.4480    5.2420   33.0080 C.3   126  SER126      0.2103
     54  OG       -42.5070    5.7600   31.6760 O.3   126  SER126     -0.2182
     55  N        -45.8400    4.9370   32.1950 N.am  127  ALA127     -0.1965
     56  CA       -47.0840    5.6850   31.9990 C.3   127  ALA127      0.1728
     57  C        -48.1680    5.2980   33.0100 C.2   127  ALA127      0.2617
     58  O        -48.7340    4.2010   32.9490 O.2   127  ALA127     -0.2715
     59  CB       -47.5680    5.5270   30.5660 C.3   127  ALA127      0.0334
     60  N        -48.4720    6.2100   33.9330 N.am  128  THR128     -0.1937
     61  CA       -49.2690    5.8740   35.1070 C.3   128  THR128      0.2028
     62  C        -50.6790    6.4700   35.0500 C.2   128  THR128      0.2642
     63  O        -51.4700    6.2930   35.9720 O.2   128  THR128     -0.2714
     64  CB       -48.5660    6.3350   36.3970 C.3   128  THR128      0.1808
     65  OG1      -48.3450    7.7580   36.3250 O.3   128  THR128     -0.2208
     66  CG2      -47.2040    5.6010   36.5660 C.3   128  THR128      0.0379
     67  N        -50.9920    7.1800   33.9680 N.am  129  SER129     -0.1949
     68  CA       -52.2580    7.8850   33.9000 C.3   129  SER129      0.1924
     69  C        -53.4460    6.9120   34.0610 C.2   129  SER129      0.2314
     70  O        -53.4360    5.7980   33.4980 O.2   129  SER129     -0.2863
     71  CB       -52.4000    8.6320   32.5800 C.3   129  SER129      0.2116
     72  OG       -53.7580    9.0200   32.3750 O.3   129  SER129     -0.2180
     73  N        -51.9160    5.4830   38.7790 N.3   148  ASP148     -0.1239
     74  CA       -51.9780    6.4540   39.8910 C.3   148  ASP148      0.1674
     75  C        -53.1900    6.3250   40.7860 C.2   148  ASP148      0.2266
     76  O        -53.1980    6.8220   41.9100 O.2   148  ASP148     -0.2867
     77  CB       -51.8190    7.8880   39.3680 C.3   148  ASP148      0.1410
     78  CG       -50.4040    8.1520   38.8830 C.2   148  ASP148      0.3668
     79  OD1      -49.4750    7.5930   39.5040 O.co2 148  ASP148     -0.2456
     80  OD2      -50.2190    8.8840   37.8860 O.co2 148  ASP148     -0.2456
     81  N        -54.0310   16.6220   34.4520 N.3   175  ASN175     -0.1225
     82  CA       -54.4430   15.2080   34.5520 C.3   175  ASN175      0.1785
     83  C        -53.9490   14.5450   35.8390 C.2   175  ASN175      0.2597
     84  O        -54.7180   13.9100   36.5410 O.2   175  ASN175     -0.2718
     85  CB       -54.0100   14.3720   33.3270 C.3   175  ASN175      0.1169
     86  CG       -54.6260   12.9550   33.3280 C.2   175  ASN175      0.2627
     87  OD1      -53.9580   11.9690   33.6590 O.2   175  ASN175     -0.2716
     88  ND2      -55.9070   12.8630   32.9740 N.am  175  ASN175     -0.0877
     89  N        -52.6730   14.7190   36.1580 N.am  176  TYR176     -0.1976
     90  CA       -52.0990   13.9980   37.2910 C.3   176  TYR176      0.1639
     91  C        -52.8160   14.2670   38.6210 C.2   176  TYR176      0.2290
     92  O        -53.3220   13.3320   39.2600 O.2   176  TYR176     -0.2864
     93  CB       -50.6180   14.2890   37.4080 C.3   176  TYR176      0.0560
     94  CG       -49.9970   13.7550   38.6590 C.ar  176  TYR176     -0.0198
     95  CD1      -49.6040   12.4220   38.7510 C.ar  176  TYR176     -0.0009
     96  CD2      -49.7630   14.5980   39.7560 C.ar  176  TYR176     -0.0009
     97  CE1      -48.9950   11.9300   39.9160 C.ar  176  TYR176      0.0417
     98  CE2      -49.1560   14.1140   40.9180 C.ar  176  TYR176      0.0417
     99  CZ       -48.7890   12.7750   40.9870 C.ar  176  TYR176      0.1957
    100  OH       -48.1520   12.3050   42.1210 O.3   176  TYR176     -0.2866
    101  N        -48.1290   17.9310   42.3400 N.3   232  GLU232     -0.1245
    102  CA       -46.8090   18.0740   41.8040 C.3   232  GLU232      0.1567
    103  C        -45.9590   18.7450   42.8810 C.2   232  GLU232      0.2260
    104  O        -46.4740   19.4560   43.7730 O.2   232  GLU232     -0.2867
    105  CB       -46.8710   18.8420   40.4780 C.3   232  GLU232      0.0388
    106  CG       -47.7040   18.0750   39.4250 C.3   232  GLU232      0.1160
    107  CD       -47.6560   18.6870   38.0300 C.2   232  GLU232      0.3649
    108  OE1      -48.6730   18.5960   37.2850 O.co2 232  GLU232     -0.2457
    109  OE2      -46.6160   19.2490   37.6780 O.co2 232  GLU232     -0.2457
    110  N        -46.6780   10.9470   44.8030 N.3   258  ASP258     -0.1225
    111  CA       -45.3070   10.7880   44.3200 C.3   258  ASP258      0.1805
    112  C        -44.7310   11.9880   43.5310 C.2   258  ASP258      0.2598
    113  O        -43.5320   12.0280   43.2270 O.2   258  ASP258     -0.2718
    114  CB       -45.1170    9.4160   43.6280 C.3   258  ASP258      0.1424
    115  CG       -45.6300    9.3790   42.2060 C.2   258  ASP258      0.3668
    116  OD1      -46.3790   10.2990   41.7770 O.co2 258  ASP258     -0.2456
    117  OD2      -45.2530    8.4020   41.5050 O.co2 258  ASP258     -0.2456
    118  N        -45.5790   12.9780   43.2480 N.am  259  GLY259     -0.1957
    119  CA       -45.1370   14.3060   42.8200 C.3   259  GLY259      0.1869
    120  C        -44.1370   14.8970   43.8110 C.2   259  GLY259      0.2309
    121  O        -43.2130   15.6070   43.4340 O.2   259  GLY259     -0.2863
    122  N        -38.2330   13.9550   47.0250 N.3   263  ARG263     -0.1245
    123  CA       -37.4940   15.0180   46.3390 C.3   263  ARG263      0.1563
    124  C        -36.9450   16.0930   47.2820 C.2   263  ARG263      0.2260
    125  O        -37.6940   16.8260   47.9380 O.2   263  ARG263     -0.2867
    126  CB       -38.3670   15.6670   45.2570 C.3   263  ARG263      0.0307
    127  CG       -38.7910   14.7290   44.1430 C.3   263  ARG263      0.0489
    128  CD       -39.8660   15.3770   43.2850 C.3   263  ARG263      0.2205
    129  NE       -39.3050   16.5110   42.5560 N.pl3 263  ARG263     -0.0865
    130  CZ       -40.0050   17.4340   41.9130 C.cat 263  ARG263      0.5346
    131  NH1      -41.3300   17.3890   41.8910 N.pl3 263  ARG263      0.1354
    132  NH2      -39.3620   18.4010   41.2700 N.pl3 263  ARG263      0.1354
    133  N        -36.3000    3.7010   36.6290 N.3   344  LYS344     -0.1245
    134  CA       -37.3870    2.8920   36.0960 C.3   344  LYS344      0.1561
    135  C        -36.8590    1.6130   35.4370 C.2   344  LYS344      0.2260
    136  O        -37.6070    0.8950   34.8020 O.2   344  LYS344     -0.2867
    137  CB       -38.1990    3.6960   35.0770 C.3   344  LYS344      0.0271
    138  CG       -38.9660    4.9150   35.6460 C.3   344  LYS344      0.0035
    139  CD       -40.3930    4.5500   36.1450 C.3   344  LYS344      0.0206
    140  CE       -41.2000    5.8170   36.5400 C.3   344  LYS344      0.1093
    141  NZ       -40.4440    6.7200   37.4720 N.3   344  LYS344     -0.1314
@<TRIPOS>BOND
     1    13    14    1
     2    15    16    2
     3    15    14    1
     4    14    17    1
     5    46    45    2
     6    45    44    1
     7    17    18    1
     8    48    47    1
     9    44    47    1
    10    44    43    1
    11    18    19   ar
    12    18    20   ar
    13    27    28    1
    14    40    39    2
    15    19    21   ar
    16     4     3    2
    17    34    33    2
    18    36    35    1
    19    20    23   ar
    20    20    22   ar
    21    23    25   ar
    22    43    39   am
    23    39    38    1
    24     3     2    1
    25    28    29    1
    26    31    29   am
    27    31    32    1
    28    21    22   ar
    29    33    32    1
    30    33    37   am
    31    35    32    1
    32    25    26   ar
    33    22    24   ar
    34    29    30    2
    35    38    37    1
    36    38    41    1
    37     5     2    1
    38     5     6    1
    39     2     1    1
    40    26    24   ar
    41    59    56    1
    42    41    42    1
    43     8     6   ar
    44     8    10   ar
    45     6     7   ar
    46    54    53    1
    47    56    55    1
    48    56    57    1
    49    55    51   am
    50    10    11   ar
    51     7     9   ar
    52    72    71    1
    53    49    50    1
    54    71    68    1
    55    58    57    2
    56    88    86   am
    57    53    50    1
    58    57    60   am
    59    51    50    1
    60    51    52    2
    61    85    86    1
    62    85    82    1
    63    86    87    2
    64    11     9   ar
    65    11    12    1
    66    70    69    2
    67    68    67    1
    68    68    69    1
    69    60    61    1
    70    67    62   am
    71    81    82    1
    72    82    83    1
    73   136   135    2
    74    62    61    1
    75    62    63    2
    76   137   138    1
    77   137   134    1
    78    61    64    1
    79   135   134    1
    80   138   139    1
    81    83    89   am
    82    83    84    2
    83   134   133    1
    84   139   140    1
    85    89    90    1
    86    65    64    1
    87    64    66    1
    88   140   141    1
    89   108   107   ar
    90    90    93    1
    91    90    91    1
    92    93    94    1
    93   109   107   ar
    94    80    78   ar
    95   107   106    1
    96    91    92    2
    97    94    95   ar
    98    94    96   ar
    99    95    97   ar
   100    73    74    1
   101    78    77    1
   102    78    79   ar
   103    77    74    1
   104   106   105    1
   105    96    98   ar
   106    74    75    1
   107    97    99   ar
   108   105   102    1
   109    75    76    2
   110    98    99   ar
   111    99   100    1
   112   132   130    1
   113   117   115   ar
   114   116   115   ar
   115   102   101    1
   116   102   103    1
   117   131   130    1
   118   130   129    2
   119   115   114    1
   120   129   128    1
   121   119   118    1
   122   119   120    1
   123   103   104    2
   124   113   112    2
   125   118   112   am
   126   128   127    1
   127   121   120    2
   128   112   111    1
   129   114   111    1
   130   127   126    1
   131   111   110    1
   132   126   123    1
   133   123   122    1
   134   123   124    1
   135   124   125    2
