@<TRIPOS>MOLECULE
tmp/3ksgA00.pdb
 112 105 0 0 0
SMALL
GASTEIGER

@<TRIPOS>ATOM
      1  N         12.7050   -2.6810   13.6440 N.3    45  TRP45      -0.1241
      2  CA        11.5380   -3.4890   13.2890 C.3    45  TRP45       0.1605
      3  C         10.7430   -2.7850   12.1920 C.2    45  TRP45       0.2264
      4  O         10.5720   -1.5740   12.2100 O.2    45  TRP45      -0.2867
      5  CB        10.6260   -3.7000   14.5040 C.3    45  TRP45       0.0550
      6  CG         9.7740   -4.9480   14.4370 C.ar   45  TRP45       0.0003
      7  CD1       10.1220   -6.2070   14.8590 C.ar   45  TRP45       0.0946
      8  CD2        8.4220   -5.0520   13.9550 C.ar   45  TRP45       0.0152
      9  NE1        9.0680   -7.0800   14.6770 N.ar   45  TRP45      -0.2442
     10  CE2        8.0160   -6.3970   14.1260 C.ar   45  TRP45       0.0810
     11  CE3        7.5150   -4.1400   13.3960 C.ar   45  TRP45       0.0012
     12  CZ2        6.7480   -6.8470   13.7640 C.ar   45  TRP45       0.0191
     13  CZ3        6.2470   -4.5950   13.0340 C.ar   45  TRP45       0.0001
     14  CH2        5.8790   -5.9340   13.2220 C.ar   45  TRP45       0.0015
     15  N          0.5090   -4.9950   10.4290 N.3    49  TYR49      -0.1241
     16  CA        -0.4780   -5.6350   11.2840 C.3    49  TYR49       0.1605
     17  C         -1.7530   -5.5560   10.4590 C.2    49  TYR49       0.2264
     18  O         -1.9830   -4.5610    9.7680 O.2    49  TYR49      -0.2867
     19  CB        -0.6710   -4.9020   12.6100 C.3    49  TYR49       0.0534
     20  CG         0.3280   -5.2940   13.6770 C.ar   49  TYR49      -0.0201
     21  CD1        1.5900   -4.6980   13.7370 C.ar   49  TYR49      -0.0009
     22  CD2        0.0130   -6.2650   14.6330 C.ar   49  TYR49      -0.0009
     23  CE1        2.5030   -5.0550   14.7140 C.ar   49  TYR49       0.0417
     24  CE2        0.9280   -6.6270   15.6190 C.ar   49  TYR49       0.0417
     25  CZ         2.1680   -6.0200   15.6490 C.ar   49  TYR49       0.1957
     26  OH         3.1010   -6.3950   16.5830 O.3    49  TYR49      -0.2866
     27  N          7.2980  -10.4110   17.4400 N.3    66  ALA66      -0.1231
     28  CA         6.5020   -9.3500   18.0220 C.3    66  ALA66       0.1694
     29  C          5.1540   -9.8520   18.5430 C.2    66  ALA66       0.2592
     30  O          4.7240  -10.9600   18.2220 O.2    66  ALA66      -0.2718
     31  CB         6.2890   -8.2470   16.9780 C.3    66  ALA66       0.0304
     32  N          4.5020   -9.0190   19.3540 N.am   67  SER67      -0.1952
     33  CA         3.1950   -9.3230   19.9370 C.3    67  SER67       0.1924
     34  C          2.2090   -9.5310   18.8020 C.2    67  SER67       0.2314
     35  O          2.2600   -8.8210   17.8010 O.2    67  SER67      -0.2863
     36  CB         2.7320   -8.1530   20.8080 C.3    67  SER67       0.2116
     37  OG         3.7440   -7.7950   21.7360 O.3    67  SER67      -0.2180
     38  N         -3.2440   -6.5010   18.9790 N.3    70  ILE70      -0.1245
     39  CA        -3.2160   -5.1330   19.4650 C.3    70  ILE70       0.1561
     40  C         -4.6290   -4.6060   19.2320 C.2    70  ILE70       0.2260
     41  O         -5.0510   -4.4090   18.0880 O.2    70  ILE70      -0.2867
     42  CB        -2.2040   -4.2660   18.6900 C.3    70  ILE70       0.0252
     43  CG1       -0.8160   -4.9170   18.7150 C.3    70  ILE70       0.0019
     44  CG2       -2.1170   -2.8910   19.3280 C.3    70  ILE70       0.0019
     45  CD1        0.2380   -4.1370   17.9220 C.3    70  ILE70       0.0001
     46  N         -5.5200    1.0770   21.1020 N.3    74  LYS74      -0.1231
     47  CA        -4.4640    0.7690   22.0620 C.3    74  LYS74       0.1693
     48  C         -3.0420    0.8210   21.4860 C.2    74  LYS74       0.2593
     49  O         -2.7670    0.2740   20.4190 O.2    74  LYS74      -0.2718
     50  CB        -4.7200   -0.6090   22.6820 C.3    74  LYS74       0.0285
     51  CG        -3.6560   -1.0380   23.6750 C.3    74  LYS74       0.0035
     52  CD        -3.9010   -2.4410   24.2030 C.3    74  LYS74       0.0206
     53  CE        -2.6480   -2.9960   24.8790 C.3    74  LYS74       0.1093
     54  NZ        -1.4870   -3.0970   23.9300 N.3    74  LYS74      -0.1314
     55  N         -2.1430    1.4780   22.2160 N.am   75  GLY75      -0.1942
     56  CA        -0.7570    1.5900   21.7870 C.3    75  GLY75       0.2014
     57  C         -0.5850    2.5760   20.6510 C.2    75  GLY75       0.2639
     58  O         -1.4690    3.3920   20.3920 O.2    75  GLY75      -0.2714
     59  N          0.5530    2.5170   19.9710 N.am   76  VAL76      -0.1963
     60  CA         0.7840    3.4200   18.8570 C.3    76  VAL76       0.1727
     61  C         -0.0060    2.9250   17.6480 C.2    76  VAL76       0.2616
     62  O         -0.6110    3.7140   16.9280 O.2    76  VAL76      -0.2715
     63  CB         2.2800    3.4960   18.4990 C.3    76  VAL76       0.0290
     64  CG1        2.5050    4.5220   17.3890 C.3    76  VAL76       0.0023
     65  CG2        3.0800    3.8670   19.7280 C.3    76  VAL76       0.0023
     66  N         -0.0170    1.6100   17.4440 N.am   77  CYS77      -0.1968
     67  CA        -0.7330    1.0140   16.3160 C.3    77  CYS77       0.1712
     68  C         -2.2590    1.1100   16.4370 C.2    77  CYS77       0.2296
     69  O         -2.9410    1.4970   15.4880 O.2    77  CYS77      -0.2864
     70  CB        -0.3050   -0.4510   16.1400 C.3    77  CYS77       0.0983
     71  SG         1.3310   -0.6670   15.3540 S.3    77  CYS77      -0.0798
     72  N          9.0690    7.0950   22.0380 N.3    92  VAL92      -0.1245
     73  CA         8.1450    6.0360   22.4280 C.3    92  VAL92       0.1561
     74  C          8.0100    5.8360   23.9330 C.2    92  VAL92       0.2260
     75  O          6.9650    5.4000   24.4150 O.2    92  VAL92      -0.2867
     76  CB         8.5650    4.6870   21.7900 C.3    92  VAL92       0.0252
     77  CG1        7.6390    3.5760   22.2410 C.3    92  VAL92       0.0019
     78  CG2        8.5410    4.8040   20.2780 C.3    92  VAL92       0.0019
     79  N          2.3760    6.1350   26.5240 N.3    96  LYS96      -0.1245
     80  CA         1.8400    5.0530   27.3590 C.3    96  LYS96       0.1561
     81  C          2.7770    4.7010   28.5150 C.2    96  LYS96       0.2260
     82  O          3.3580    5.5860   29.1480 O.2    96  LYS96      -0.2867
     83  CB         1.5800    3.7900   26.5350 C.3    96  LYS96       0.0271
     84  CG         0.5060    3.9280   25.4750 C.3    96  LYS96       0.0035
     85  CD        -0.0610    2.5640   25.1000 C.3    96  LYS96       0.0206
     86  CE         1.0390    1.5350   24.8780 C.3    96  LYS96       0.1093
     87  NZ         2.0590    2.0120   23.9070 N.3    96  LYS96      -0.1314
     88  N          9.0850    5.6730   16.7570 N.3   108  GLU108     -0.1245
     89  CA         8.2910    4.7810   15.9210 C.3   108  GLU108      0.1567
     90  C          7.3600    5.5510   14.9960 C.2   108  GLU108      0.2260
     91  O          7.0350    6.7110   15.2520 O.2   108  GLU108     -0.2867
     92  CB         7.4730    3.8560   16.8330 C.3   108  GLU108      0.0388
     93  CG         6.5940    2.8240   16.1420 C.3   108  GLU108      0.1160
     94  CD         5.8900    1.9030   17.1410 C.2   108  GLU108      0.3649
     95  OE1        5.1540    0.9870   16.7120 O.co2 108  GLU108     -0.2457
     96  OE2        6.0740    2.0950   18.3610 O.co2 108  GLU108     -0.2457
     97  N          4.1050   -0.3360   10.3660 N.3   124  ASP124     -0.1239
     98  CA         4.6850    0.0180   11.6540 C.3   124  ASP124      0.1674
     99  C          6.2130    0.0550   11.6590 C.2   124  ASP124      0.2266
    100  O          6.8530   -0.9400   11.3590 O.2   124  ASP124     -0.2867
    101  CB         4.3470   -0.7200   12.6900 C.3   124  ASP124      0.1410
    102  CG         4.7490   -0.7060   14.1680 C.2   124  ASP124      0.3668
    103  OD1        5.1530    0.4190   14.6850 O.co2 124  ASP124     -0.2456
    104  OD2        4.6490   -1.7930   14.7870 O.co2 124  ASP124     -0.2456
    105  N          9.8590    0.6200   13.9200 N.3   126  ASP126     -0.1239
    106  CA        10.5700    0.9390   15.1720 C.3   126  ASP126      0.1674
    107  C         11.9990    1.3810   14.8630 C.2   126  ASP126      0.2266
    108  O         12.5870    0.9290   13.8790 O.2   126  ASP126     -0.2867
    109  CB        10.6720   -0.3100   16.0460 C.3   126  ASP126      0.1410
    110  CG         9.6380   -0.3510   17.1400 C.2   126  ASP126      0.3668
    111  OD1        8.5820    0.3070   16.9950 O.co2 126  ASP126     -0.2456
    112  OD2        9.8880   -1.0600   18.1420 O.co2 126  ASP126     -0.2456
@<TRIPOS>BOND
     1    18    17    2
     2    97    98    1
     3    15    16    1
     4    17    16    1
     5    16    19    1
     6   100    99    2
     7    98    99    1
     8    98   101    1
     9     3     4    2
    10     3     2    1
    11    19    20    1
    12   101   102    1
    13    13    14   ar
    14    13    11   ar
    15    14    12   ar
    16     2     1    1
    17     2     5    1
    18    11     8   ar
    19    20    21   ar
    20    20    22   ar
    21    21    23   ar
    22    12    10   ar
    23   108   107    2
    24   105   106    1
    25     8    10   ar
    26     8     6   ar
    27    10     9   ar
    28   102   103   ar
    29   102   104   ar
    30     6     5    1
    31     6     7   ar
    32    22    24   ar
    33     9     7   ar
    34    23    25   ar
    35   107   106    1
    36    90    91    2
    37    90    89    1
    38   106   109    1
    39    71    70    1
    40    69    68    2
    41    24    25   ar
    42    25    26    1
    43    89    88    1
    44    89    92    1
    45   109   110    1
    46    70    67    1
    47    93    92    1
    48    93    94    1
    49    67    68    1
    50    67    66    1
    51    95    94   ar
    52    62    61    2
    53    31    28    1
    54   111   110   ar
    55   110   112   ar
    56    94    96   ar
    57    64    63    1
    58    27    28    1
    59    66    61   am
    60    61    60    1
    61    35    34    2
    62    45    43    1
    63    28    29    1
    64    41    40    2
    65    30    29    2
    66    63    60    1
    67    63    65    1
    68    29    32   am
    69    42    43    1
    70    42    44    1
    71    42    39    1
    72    34    33    1
    73    60    59    1
    74    38    39    1
    75    40    39    1
    76    32    33    1
    77    33    36    1
    78    59    57   am
    79    78    76    1
    80    58    57    2
    81    49    48    2
    82    57    56    1
    83    36    37    1
    84    46    47    1
    85    48    47    1
    86    48    55   am
    87    56    55    1
    88    76    77    1
    89    76    73    1
    90    72    73    1
    91    47    50    1
    92    73    74    1
    93    50    51    1
    94    51    52    1
    95    87    86    1
    96    54    53    1
    97    74    75    2
    98    52    53    1
    99    86    85    1
   100    85    84    1
   101    84    83    1
   102    79    80    1
   103    83    80    1
   104    80    81    1
   105    81    82    2
