@<TRIPOS>MOLECULE
tmp/3ksjA00.pdb
 112 105 0 0 0
SMALL
GASTEIGER

@<TRIPOS>ATOM
      1  N         12.3270    2.0670    9.6220 N.3    11  GLN11      -0.1245
      2  CA        12.1570    3.1960    8.7630 C.3    11  GLN11       0.1566
      3  C         11.6230    4.2860    9.6320 C.2    11  GLN11       0.2260
      4  O         10.6910    4.0540   10.3840 O.2    11  GLN11      -0.2867
      5  CB        11.1150    2.8610    7.6270 C.3    11  GLN11       0.0367
      6  CG        11.6270    1.9020    6.5670 C.3    11  GLN11       0.0905
      7  CD        10.4800    1.5120    5.6120 C.2    11  GLN11       0.2608
      8  OE1        9.8230    2.3800    5.0460 O.2    11  GLN11      -0.2717
      9  NE2       10.2070    0.2110    5.5020 N.am   11  GLN11      -0.0878
     10  N          9.7370    6.6040    8.9440 N.3    13  ALA13      -0.1231
     11  CA         8.3460    6.8300    8.5440 C.3    13  ALA13       0.1694
     12  C          7.3680    6.1030    9.4570 C.2    13  ALA13       0.2591
     13  O          6.2570    6.5970    9.7080 O.2    13  ALA13      -0.2718
     14  CB         8.1380    6.3570    7.0980 C.3    13  ALA13       0.0304
     15  N          7.7740    4.9210    9.9250 N.am   14  VAL14      -0.1980
     16  CA         6.9590    4.0820   10.8220 C.3    14  VAL14       0.1595
     17  C          7.1950    4.6290   12.2250 C.2    14  VAL14       0.2287
     18  O          8.1970    4.2570   12.9110 O.2    14  VAL14      -0.2864
     19  CB         7.3950    2.6430   10.7460 C.3    14  VAL14       0.0276
     20  CG1        6.4130    1.7390   11.4290 C.3    14  VAL14       0.0022
     21  CG2        7.5670    2.2220    9.2770 C.3    14  VAL14       0.0022
     22  N         13.7810    3.2340    2.8350 N.3    42  ALA42      -0.1231
     23  CA        12.5520    2.4770    2.6040 C.3    42  ALA42       0.1694
     24  C         12.7330    0.9300    2.8000 C.2    42  ALA42       0.2592
     25  O         13.7420    0.5000    3.2770 O.2    42  ALA42      -0.2718
     26  CB        11.9820    2.8500    1.1780 C.3    42  ALA42       0.0304
     27  N         11.7290    0.1300    2.4150 N.am   43  GLY43      -0.1957
     28  CA        11.7170   -1.3140    2.4790 C.3    43  GLY43       0.1869
     29  C         12.6910   -2.0720    1.6540 C.2    43  GLY43       0.2309
     30  O         13.3850   -2.9160    2.2150 O.2    43  GLY43      -0.2863
     31  N          9.0370   -3.8250    6.9680 N.3    60  ALA60      -0.1231
     32  CA         8.7600   -3.1970    5.6920 C.3    60  ALA60       0.1694
     33  C          7.3330   -3.3820    5.2860 C.2    60  ALA60       0.2592
     34  O          6.5520   -4.0930    5.9820 O.2    60  ALA60      -0.2718
     35  CB         9.6610   -3.7960    4.5990 C.3    60  ALA60       0.0304
     36  N          7.0120   -2.7960    4.1170 N.am   61  GLY61      -0.1957
     37  CA         5.7260   -2.9780    3.4120 C.3    61  GLY61       0.1869
     38  C          5.5140   -4.3890    2.8080 C.2    61  GLY61       0.2309
     39  O          6.2840   -5.2980    3.0420 O.2    61  GLY61      -0.2863
     40  N          8.2030   -5.1910   -0.5320 N.3    64  PRO64      -0.2116
     41  CA         9.6360   -5.4540   -0.4310 C.3    64  PRO64       0.1372
     42  C          9.9620   -6.9460   -0.2780 C.2    64  PRO64       0.2244
     43  O         10.7510   -7.4380   -1.1160 O.2    64  PRO64      -0.2868
     44  CB        10.0980   -4.5570    0.6800 C.3    64  PRO64       0.0268
     45  CG         9.1860   -3.3860    0.6110 C.3    64  PRO64       0.0207
     46  CD         7.8080   -4.0540    0.3120 C.3    64  PRO64       0.0892
     47  N         -2.5760    0.8830    6.6940 N.3    84  THR84      -0.1218
     48  CA        -3.0210    2.2460    6.9650 C.3    84  THR84       0.1862
     49  C         -3.2440    2.8810    5.5910 C.2    84  THR84       0.2287
     50  O         -2.4290    3.6340    5.1750 O.2    84  THR84      -0.2866
     51  CB        -1.9270    3.0540    7.7610 C.3    84  THR84       0.1770
     52  OG1       -0.6960    3.0120    7.0390 O.3    84  THR84      -0.2211
     53  CG2       -1.6740    2.4680    9.1290 C.3    84  THR84       0.0375
     54  N         -2.7310    6.5710    4.5890 N.3    87  ALA87      -0.1231
     55  CA        -1.3500    7.0900    4.6600 C.3    87  ALA87       0.1694
     56  C         -0.5350    6.6300    3.4470 C.2    87  ALA87       0.2591
     57  O          0.6970    6.8300    3.4280 O.2    87  ALA87      -0.2718
     58  CB        -0.6390    6.6910    5.9050 C.3    87  ALA87       0.0304
     59  N         -1.2080    6.0130    2.4750 N.am   88  GLU88      -0.1979
     60  CA        -0.5140    5.5750    1.2360 C.3    88  GLU88       0.1602
     61  C         -1.0690    6.4160    0.1020 C.2    88  GLU88       0.2287
     62  O         -2.2720    6.3330   -0.1470 O.2    88  GLU88      -0.2864
     63  CB        -0.8550    4.1230    0.9150 C.3    88  GLU88       0.0415
     64  CG        -0.3060    3.0840    1.8760 C.3    88  GLU88       0.1163
     65  CD         1.1980    2.9610    1.8290 C.2    88  GLU88       0.3649
     66  OE1        1.8790    2.7910    0.6970 O.co2  88  GLU88      -0.2457
     67  OE2        1.6840    3.0300    2.9810 O.co2  88  GLU88      -0.2457
     68  N          8.3800   -1.2090   -3.5700 N.3   115  SER115     -0.1202
     69  CA         7.8470   -0.7380   -2.2700 C.3   115  SER115      0.2020
     70  C          6.3450   -0.8610   -2.3020 C.2   115  SER115      0.2619
     71  O          5.7730   -1.1350   -3.3780 O.2   115  SER115     -0.2717
     72  CB         8.2050    0.7090   -2.0060 C.3   115  SER115      0.2103
     73  OG         7.4040    1.6130   -2.7780 O.3   115  SER115     -0.2182
     74  N          5.6940   -0.6190   -1.1510 N.am  116  SER116     -0.1951
     75  CA         4.2360   -0.6400   -1.0780 C.3   116  SER116      0.1924
     76  C          3.5640    0.3700   -1.9480 C.2   116  SER116      0.2314
     77  O          2.4020    0.1730   -2.3500 O.2   116  SER116     -0.2863
     78  CB         3.7160   -0.3610    0.3690 C.3   116  SER116      0.2116
     79  OG         4.1760    0.9050    0.8200 O.3   116  SER116     -0.2180
     80  N          4.2900    7.4720    0.9690 N.3   160  TRP160     -0.1227
     81  CA         3.5420    7.3260    2.2660 C.3   160  TRP160      0.1737
     82  C          3.7330    8.5170    3.2000 C.2   160  TRP160      0.2595
     83  O          4.4640    9.3920    2.8750 O.2   160  TRP160     -0.2718
     84  CB         3.8990    5.9900    2.9080 C.3   160  TRP160      0.0564
     85  CG         5.3080    5.7490    2.8670 C.ar  160  TRP160      0.0003
     86  CD1        6.2380    6.2020    3.7270 C.ar  160  TRP160      0.0946
     87  CD2        6.0140    5.1090    1.8020 C.ar  160  TRP160      0.0152
     88  NE1        7.4820    5.8260    3.3280 N.ar  160  TRP160     -0.2442
     89  CE2        7.3880    5.1480    2.1440 C.ar  160  TRP160      0.0810
     90  CE3        5.6170    4.4340    0.6470 C.ar  160  TRP160      0.0012
     91  CZ2        8.3900    4.5800    1.3470 C.ar  160  TRP160      0.0191
     92  CZ3        6.6350    3.8490   -0.1580 C.ar  160  TRP160      0.0001
     93  CH2        7.9990    3.9310    0.2090 C.ar  160  TRP160      0.0015
     94  N          2.9990    8.5890    4.3110 N.am  161  ASP161     -0.1974
     95  CA         3.2710    9.5310    5.4010 C.3   161  ASP161      0.1709
     96  C          4.6730    9.2180    5.9950 C.2   161  ASP161      0.2293
     97  O          5.0720    8.0490    6.0350 O.2   161  ASP161     -0.2864
     98  CB         2.1910    9.4100    6.4970 C.3   161  ASP161      0.1436
     99  CG         1.1100   10.4880    6.3920 C.2   161  ASP161      0.3671
    100  OD1        1.4140   11.5200    5.7330 O.co2 161  ASP161     -0.2456
    101  OD2       -0.0440   10.2960    6.9560 O.co2 161  ASP161     -0.2456
    102  N         -3.8630    7.1230   10.5130 N.3   246  ARG246     -0.1245
    103  CA        -3.4050    5.8140   10.9690 C.3   246  ARG246      0.1563
    104  C         -4.2860    5.2840   12.0460 C.2   246  ARG246      0.2260
    105  O         -4.1680    5.7460   13.1770 O.2   246  ARG246     -0.2867
    106  CB        -1.9920    5.9250   11.5650 C.3   246  ARG246      0.0307
    107  CG        -0.9350    6.0260   10.4680 C.3   246  ARG246      0.0489
    108  CD         0.4330    5.7130   11.0090 C.3   246  ARG246      0.2205
    109  NE         0.4280    4.6070   11.9520 N.pl3 246  ARG246     -0.0865
    110  CZ         1.0630    3.4550   11.7660 C.cat 246  ARG246      0.5346
    111  NH1        1.8030    3.2570   10.6690 N.pl3 246  ARG246      0.1354
    112  NH2        0.9840    2.5060   12.6930 N.pl3 246  ARG246      0.1354
@<TRIPOS>BOND
     1    68    69    1
     2    71    70    2
     3    73    72    1
     4    77    76    2
     5    70    69    1
     6    70    74   am
     7    69    72    1
     8    76    75    1
     9    74    75    1
    10    43    42    2
    11    75    78    1
    12    40    41    1
    13    40    46    1
    14    41    42    1
    15    41    44    1
    16    92    93   ar
    17    92    90   ar
    18    62    61    2
    19    61    60    1
    20    93    91   ar
    21    46    45    1
    22    78    79    1
    23    45    44    1
    24    90    87   ar
    25    66    65   ar
    26    63    60    1
    27    63    64    1
    28    80    81    1
    29    26    23    1
    30    60    59    1
    31    91    89   ar
    32    29    30    2
    33    29    28    1
    34    87    89   ar
    35    87    85   ar
    36    65    64    1
    37    65    67   ar
    38    89    88   ar
    39    81    84    1
    40    81    82    1
    41    27    28    1
    42    27    24   am
    43    59    56   am
    44    23    24    1
    45    23    22    1
    46    24    25    2
    47    38    39    2
    48    38    37    1
    49    85    84    1
    50    85    86   ar
    51    83    82    2
    52    82    94   am
    53    88    86   ar
    54    37    36    1
    55    57    56    2
    56    56    55    1
    57    36    33   am
    58    94    95    1
    59    54    55    1
    60    35    32    1
    61    55    58    1
    62     8     7    2
    63    50    49    2
    64    33    32    1
    65    33    34    2
    66    95    96    1
    67    95    98    1
    68     9     7   am
    69    49    48    1
    70     7     6    1
    71    32    31    1
    72   100    99   ar
    73    96    97    2
    74    99    98    1
    75    99   101   ar
    76     6     5    1
    77    47    48    1
    78    48    51    1
    79    52    51    1
    80    14    11    1
    81     5     2    1
    82    51    53    1
    83    11    10    1
    84    11    12    1
    85     2     1    1
    86     2     3    1
    87    21    19    1
    88    12    13    2
    89    12    15   am
    90     3     4    2
    91    15    16    1
    92   107   108    1
    93   107   106    1
    94   102   103    1
    95   111   110    1
    96    19    16    1
    97    19    20    1
    98    16    17    1
    99   103   106    1
   100   103   104    1
   101   108   109    1
   102   110   109    2
   103   110   112    1
   104   104   105    2
   105    17    18    2
