@<TRIPOS>MOLECULE
tmp/3kslB00.pdb
 210 206 0 0 0
SMALL
GASTEIGER

@<TRIPOS>ATOM
      1  N        176.0710  128.7400   31.6920 N.3    82  TRP82      -0.1241
      2  CA       177.0610  128.2890   32.7000 C.3    82  TRP82       0.1605
      3  C        176.8570  129.0860   33.9820 C.2    82  TRP82       0.2264
      4  O        176.8490  128.5030   35.0590 O.2    82  TRP82      -0.2867
      5  CB       178.5140  128.4690   32.2260 C.3    82  TRP82       0.0550
      6  CG       179.0630  127.3190   31.4270 C.ar   82  TRP82       0.0003
      7  CD1      179.5250  127.3670   30.1480 C.ar   82  TRP82       0.0946
      8  CD2      179.2380  125.9550   31.8690 C.ar   82  TRP82       0.0152
      9  NE1      179.9600  126.1210   29.7530 N.ar   82  TRP82      -0.2442
     10  CE2      179.7950  125.2350   30.7900 C.ar   82  TRP82       0.0810
     11  CE3      178.9670  125.2700   33.0710 C.ar   82  TRP82       0.0012
     12  CZ2      180.1110  123.8640   30.8810 C.ar   82  TRP82       0.0191
     13  CZ3      179.2630  123.9120   33.1520 C.ar   82  TRP82       0.0001
     14  CH2      179.8670  123.2350   32.0830 C.ar   82  TRP82       0.0015
     15  N        176.1530  127.3330   37.4150 N.3    86  TRP86      -0.1241
     16  CA       177.0940  127.4990   38.5320 C.3    86  TRP86       0.1605
     17  C        176.3910  128.0700   39.7770 C.2    86  TRP86       0.2264
     18  O        176.5960  127.5550   40.8650 O.2    86  TRP86      -0.2867
     19  CB       178.2820  128.4210   38.1580 C.3    86  TRP86       0.0550
     20  CG       179.1880  127.8680   37.0920 C.ar   86  TRP86       0.0003
     21  CD1      179.4900  126.5550   36.8650 C.ar   86  TRP86       0.0946
     22  CD2      179.9460  128.6250   36.1420 C.ar   86  TRP86       0.0152
     23  NE1      180.4010  126.4520   35.8450 N.ar   86  TRP86      -0.2442
     24  CE2      180.6580  127.7020   35.3450 C.ar   86  TRP86       0.0810
     25  CE3      180.0690  130.0030   35.8600 C.ar   86  TRP86       0.0012
     26  CZ2      181.4900  128.1050   34.2930 C.ar   86  TRP86       0.0191
     27  CZ3      180.8880  130.3980   34.8110 C.ar   86  TRP86       0.0001
     28  CH2      181.6000  129.4540   34.0530 C.ar   86  TRP86       0.0015
     29  N        178.7580  122.8450   25.5030 N.3   131  ALA131     -0.1245
     30  CA       179.0180  123.2670   26.8960 C.3   131  ALA131      0.1562
     31  C        177.8170  124.0640   27.4620 C.2   131  ALA131      0.2260
     32  O        177.2680  123.5910   28.4490 O.2   131  ALA131     -0.2867
     33  CB       180.3280  124.0290   27.0190 C.3   131  ALA131      0.0290
     34  N        174.9280  121.5770   27.9220 N.3   134  TYR134     -0.1241
     35  CA       175.0710  120.7950   29.1650 C.3   134  TYR134      0.1605
     36  C        174.6440  121.6130   30.3900 C.2   134  TYR134      0.2264
     37  O        173.9240  121.1070   31.2500 O.2   134  TYR134     -0.2867
     38  CB       176.5160  120.3000   29.3350 C.3   134  TYR134      0.0534
     39  CG       176.8790  119.8810   30.7470 C.ar  134  TYR134     -0.0201
     40  CD1      176.6590  118.5790   31.1880 C.ar  134  TYR134     -0.0009
     41  CD2      177.4620  120.7860   31.6410 C.ar  134  TYR134     -0.0009
     42  CE1      176.9750  118.1940   32.4860 C.ar  134  TYR134      0.0417
     43  CE2      177.8120  120.4000   32.9360 C.ar  134  TYR134      0.0417
     44  CZ       177.5830  119.0970   33.3460 C.ar  134  TYR134      0.1957
     45  OH       177.9390  118.7010   34.6080 O.3   134  TYR134     -0.2866
     46  N        182.2970  120.0180   19.5810 N.3   173  MET173     -0.1245
     47  CA       181.7090  120.8650   20.6450 C.3   173  MET173      0.1570
     48  C        180.5370  121.6670   20.0410 C.2   173  MET173      0.2261
     49  O        179.5560  121.9390   20.7180 O.2   173  MET173     -0.2867
     50  CB       182.7370  121.8330   21.2570 C.3   173  MET173      0.0387
     51  CG       183.6260  121.2180   22.3560 C.3   173  MET173      0.0595
     52  SD       182.7860  120.3560   23.7490 S.3   173  MET173     -0.1393
     53  CE       182.1200  121.6640   24.6480 C.3   173  MET173      0.0692
     54  N        185.3940  116.5210   26.6780 N.3   182  ARG182     -0.1245
     55  CA       184.2740  117.2560   27.2810 C.3   182  ARG182      0.1563
     56  C        182.9910  117.0470   26.4650 C.2   182  ARG182      0.2260
     57  O        181.9190  116.8760   27.0440 O.2   182  ARG182     -0.2867
     58  CB       184.5420  118.7720   27.3240 C.3   182  ARG182      0.0307
     59  CG       185.6350  119.2830   28.2420 C.3   182  ARG182      0.0489
     60  CD       185.7490  120.8090   28.0800 C.3   182  ARG182      0.2205
     61  NE       186.1550  121.2090   26.7220 N.pl3 182  ARG182     -0.0865
     62  CZ       185.7660  122.3250   26.1070 C.cat 182  ARG182      0.5346
     63  NH1      186.1880  122.5930   24.8810 N.pl3 182  ARG182      0.1354
     64  NH2      184.9430  123.1800   26.7140 N.pl3 182  ARG182      0.1354
     65  N        181.1240  113.8270   27.2100 N.3   185  TYR185     -0.1227
     66  CA       180.4310  113.9950   28.4860 C.3   185  TYR185      0.1736
     67  C        179.1970  114.8990   28.3640 C.2   185  TYR185      0.2595
     68  O        178.1590  114.5370   28.8920 O.2   185  TYR185     -0.2718
     69  CB       181.3790  114.5240   29.5880 C.3   185  TYR185      0.0548
     70  CG       180.6700  114.9060   30.8720 C.ar  185  TYR185     -0.0200
     71  CD1      180.0270  113.9460   31.6500 C.ar  185  TYR185     -0.0009
     72  CD2      180.6240  116.2320   31.2980 C.ar  185  TYR185     -0.0009
     73  CE1      179.3370  114.2970   32.8110 C.ar  185  TYR185      0.0417
     74  CE2      179.9630  116.5910   32.4780 C.ar  185  TYR185      0.0417
     75  CZ       179.3360  115.6160   33.2400 C.ar  185  TYR185      0.1957
     76  OH       178.6770  115.9470   34.4040 O.3   185  TYR185     -0.2866
     77  N        179.3150  116.0780   27.7130 N.am  186  CYS186     -0.1970
     78  CA       178.1840  116.9940   27.5420 C.3   186  CYS186      0.1712
     79  C        177.0400  116.2750   26.8190 C.2   186  CYS186      0.2296
     80  O        175.8970  116.4210   27.2350 O.2   186  CYS186     -0.2864
     81  CB       178.6000  118.2760   26.8100 C.3   186  CYS186      0.0983
     82  SG       179.6930  119.3670   27.7750 S.3   186  CYS186     -0.0798
     83  N        194.6480  115.1310   32.3610 N.3   228  HIS228     -0.1241
     84  CA       194.1670  116.3530   33.0400 C.3   228  HIS228      0.1621
     85  C        192.8930  116.0560   33.7700 C.2   228  HIS228      0.2264
     86  O        192.0380  115.3670   33.2350 O.2   228  HIS228     -0.2867
     87  CB       193.9380  117.5030   32.0270 C.3   228  HIS228      0.0745
     88  CG       193.7660  118.8380   32.6910 C.ar  228  HIS228      0.0817
     89  ND1      192.5340  119.2570   33.1670 N.ar  228  HIS228     -0.2268
     90  CD2      194.6920  119.7810   32.9900 C.ar  228  HIS228      0.1154
     91  CE1      192.7480  120.4410   33.7240 C.ar  228  HIS228      0.1986
     92  NE2      194.0320  120.7910   33.6610 N.ar  228  HIS228     -0.2212
     93  N        190.1020  117.7220   34.5290 N.3   230  GLY230     -0.1210
     94  CA       188.8160  118.0950   33.9240 C.3   230  GLY230      0.1956
     95  C        188.3620  117.0970   32.8700 C.2   230  GLY230      0.2611
     96  O        187.2180  116.6420   32.8990 O.2   230  GLY230     -0.2717
     97  N        189.2810  116.7110   31.9730 N.am  231  TYR231     -0.1976
     98  CA       189.0260  115.7160   30.9230 C.3   231  TYR231      0.1639
     99  C        188.8780  114.3290   31.4990 C.2   231  TYR231      0.2290
    100  O        188.1370  113.5300   30.9370 O.2   231  TYR231     -0.2864
    101  CB       190.1520  115.7100   29.8840 C.3   231  TYR231      0.0560
    102  CG       190.2370  116.9880   29.0950 C.ar  231  TYR231     -0.0198
    103  CD1      191.4010  117.7450   29.0880 C.ar  231  TYR231     -0.0009
    104  CD2      189.1340  117.4710   28.3880 C.ar  231  TYR231     -0.0009
    105  CE1      191.4860  118.9340   28.3620 C.ar  231  TYR231      0.0417
    106  CE2      189.2090  118.6540   27.6540 C.ar  231  TYR231      0.0417
    107  CZ       190.3850  119.3860   27.6520 C.ar  231  TYR231      0.1957
    108  OH       190.4710  120.5580   26.9450 O.3   231  TYR231     -0.2866
    109  N        185.3870  114.0800   32.8240 N.3   234  CYS234     -0.1235
    110  CA       184.4860  114.0120   31.6620 C.3   234  CYS234      0.1677
    111  C        184.4990  112.6110   31.0290 C.2   234  CYS234      0.2270
    112  O        183.4420  112.0750   30.7210 O.2   234  CYS234     -0.2867
    113  CB       184.8550  115.0830   30.6310 C.3   234  CYS234      0.0956
    114  SG       184.4040  116.7680   31.1300 S.3   234  CYS234     -0.0801
    115  N        195.5830  119.7810   38.8590 N.3   270  GLY270     -0.1210
    116  CA       194.9300  119.3430   37.6240 C.3   270  GLY270      0.1956
    117  C        195.7310  118.3200   36.8570 C.2   270  GLY270      0.2611
    118  O        195.1780  117.5010   36.1370 O.2   270  GLY270     -0.2717
    119  N        197.0450  118.3890   36.9800 N.am  271  ARG271     -0.1979
    120  CA       197.9460  117.4780   36.2900 C.3   271  ARG271      0.1597
    121  C        199.2170  117.3880   37.0820 C.2   271  ARG271      0.2287
    122  O        199.4580  118.2240   37.9520 O.2   271  ARG271     -0.2864
    123  CB       198.1960  117.9020   34.8160 C.3   271  ARG271      0.0334
    124  CG       198.1890  119.3940   34.5340 C.3   271  ARG271      0.0492
    125  CD       198.2670  119.7020   33.0310 C.3   271  ARG271      0.2205
    126  NE       198.0000  121.1180   32.7900 N.pl3 271  ARG271     -0.0865
    127  CZ       198.5850  121.8700   31.8610 C.cat 271  ARG271      0.5346
    128  NH1      199.4860  121.3430   31.0350 N.pl3 271  ARG271      0.1354
    129  NH2      198.2890  123.1530   31.7620 N.pl3 271  ARG271      0.1354
    130  N        201.8550  120.4280   38.4260 N.3   274  LYS274     -0.1231
    131  CA       201.2130  121.7360   38.3310 C.3   274  LYS274      0.1693
    132  C        200.6710  122.1060   39.7120 C.2   274  LYS274      0.2591
    133  O        200.9440  121.3890   40.6740 O.2   274  LYS274     -0.2718
    134  CB       200.2420  121.8910   37.1580 C.3   274  LYS274      0.0285
    135  CG       201.0010  121.8690   35.8060 C.3   274  LYS274      0.0035
    136  CD       200.3520  122.7770   34.7330 C.3   274  LYS274      0.0206
    137  CE       200.6820  124.2530   34.9060 C.3   274  LYS274      0.1093
    138  NZ       199.7270  125.1310   34.1780 N.3   274  LYS274     -0.1314
    139  N        199.9780  123.2200   39.8320 N.am  275  LEU275     -0.1980
    140  CA       199.5660  123.7210   41.1390 C.3   275  LEU275      0.1596
    141  C        198.2070  123.2820   41.6360 C.2   275  LEU275      0.2287
    142  O        197.2900  123.0530   40.8420 O.2   275  LEU275     -0.2864
    143  CB       199.6910  125.2770   41.1620 C.3   275  LEU275      0.0297
    144  CG       201.0520  125.8880   40.7110 C.3   275  LEU275      0.0022
    145  CD1      200.9400  127.3840   40.5160 C.3   275  LEU275      0.0001
    146  CD2      202.1640  125.6040   41.7190 C.3   275  LEU275      0.0001
    147  N        194.4660  123.6810   43.0730 N.3   277  ASP277     -0.1239
    148  CA       193.3840  124.5760   42.6690 C.3   277  ASP277      0.1674
    149  C        192.0800  124.0490   43.2150 C.2   277  ASP277      0.2266
    150  O        191.7140  122.9100   42.9310 O.2   277  ASP277     -0.2867
    151  CB       193.3170  124.7000   41.1400 C.3   277  ASP277      0.1410
    152  CG       192.2470  125.6170   40.5540 C.2   277  ASP277      0.3668
    153  OD1      191.2090  125.8590   41.2340 O.co2 277  ASP277     -0.2456
    154  OD2      192.4140  126.0460   39.4090 O.co2 277  ASP277     -0.2456
    155  N        189.0180  124.3310   42.2310 N.3   279  CYS279     -0.1221
    156  CA       188.0280  123.6800   41.3320 C.3   279  CYS279      0.1808
    157  C        188.2740  122.1730   41.1510 C.2   279  CYS279      0.2601
    158  O        187.3230  121.4340   40.9190 O.2   279  CYS279     -0.2717
    159  CB       187.8910  124.3920   39.9900 C.3   279  CYS279      0.0970
    160  SG       189.3150  124.1780   38.8810 S.3   279  CYS279     -0.0800
    161  N        189.5380  121.7090   41.3010 N.am  280  TYR280     -0.1976
    162  CA       189.8700  120.2780   41.2030 C.3   280  TYR280      0.1639
    163  C        189.3490  119.4940   42.3610 C.2   280  TYR280      0.2290
    164  O        189.3710  118.2540   42.3110 O.2   280  TYR280     -0.2864
    165  CB       191.3480  120.0150   40.9670 C.3   280  TYR280      0.0560
    166  CG       191.7970  120.6370   39.6680 C.ar  280  TYR280     -0.0198
    167  CD1      192.8340  121.5560   39.6420 C.ar  280  TYR280     -0.0009
    168  CD2      191.1560  120.3340   38.4630 C.ar  280  TYR280     -0.0009
    169  CE1      193.2040  122.1930   38.4650 C.ar  280  TYR280      0.0417
    170  CE2      191.5120  120.9790   37.2760 C.ar  280  TYR280      0.0417
    171  CZ       192.5290  121.9210   37.2910 C.ar  280  TYR280      0.1957
    172  OH       192.9570  122.5500   36.1490 O.3   280  TYR280     -0.2866
    173  N        186.4430  118.1500   40.0920 N.3   283  TRP283     -0.1241
    174  CA       186.9650  117.3950   38.9390 C.3   283  TRP283      0.1605
    175  C        187.8000  116.1860   39.3100 C.2   283  TRP283      0.2264
    176  O        187.5690  115.1000   38.7830 O.2   283  TRP283     -0.2867
    177  CB       187.7440  118.2890   37.9660 C.3   283  TRP283      0.0550
    178  CG       186.9930  119.4880   37.4750 C.ar  283  TRP283      0.0003
    179  CD1      187.3860  120.7900   37.5820 C.ar  283  TRP283      0.0946
    180  CD2      185.7230  119.5020   36.7960 C.ar  283  TRP283      0.0152
    181  NE1      186.4570  121.6150   36.9880 N.ar  283  TRP283     -0.2442
    182  CE2      185.4220  120.8530   36.5030 C.ar  283  TRP283      0.0810
    183  CE3      184.8170  118.5020   36.3920 C.ar  283  TRP283      0.0012
    184  CZ2      184.2740  121.2320   35.7990 C.ar  283  TRP283      0.0191
    185  CZ3      183.6400  118.8790   35.7520 C.ar  283  TRP283      0.0001
    186  CH2      183.3820  120.2310   35.4490 C.ar  283  TRP283      0.0015
    187  N        182.4490  130.1100   38.9230 N.3   341  TYR341     -0.1241
    188  CA       182.9500  128.7890   38.5340 C.3   341  TYR341      0.1605
    189  C        183.6180  128.1150   39.7610 C.2   341  TYR341      0.2264
    190  O        183.2690  126.9890   40.1240 O.2   341  TYR341     -0.2867
    191  CB       183.9240  128.9280   37.3240 C.3   341  TYR341      0.0534
    192  CG       184.7910  127.7100   37.0960 C.ar  341  TYR341     -0.0201
    193  CD1      184.3180  126.6190   36.3630 C.ar  341  TYR341     -0.0009
    194  CD2      186.0650  127.6230   37.6510 C.ar  341  TYR341     -0.0009
    195  CE1      185.1230  125.5030   36.1280 C.ar  341  TYR341      0.0417
    196  CE2      186.8430  126.4850   37.4880 C.ar  341  TYR341      0.0417
    197  CZ       186.3730  125.4290   36.7150 C.ar  341  TYR341      0.1957
    198  OH       187.1540  124.3160   36.5400 O.3   341  TYR341     -0.2866
    199  N        182.4230  124.7290   41.9560 N.3   345  TYR345     -0.1241
    200  CA       183.2920  123.5490   42.0990 C.3   345  TYR345      0.1605
    201  C        183.9290  123.3300   43.4360 C.2   345  TYR345      0.2264
    202  O        184.0870  122.1710   43.8360 O.2   345  TYR345     -0.2867
    203  CB       184.2360  123.3560   40.8780 C.3   345  TYR345      0.0534
    204  CG       183.4180  123.1070   39.6210 C.ar  345  TYR345     -0.0201
    205  CD1      183.2070  124.1230   38.6930 C.ar  345  TYR345     -0.0009
    206  CD2      182.7170  121.9150   39.4480 C.ar  345  TYR345     -0.0009
    207  CE1      182.3580  123.9400   37.5980 C.ar  345  TYR345      0.0417
    208  CE2      181.9020  121.7060   38.3390 C.ar  345  TYR345      0.0417
    209  CZ       181.7060  122.7300   37.4260 C.ar  345  TYR345      0.1957
    210  OH       180.9080  122.5260   36.3250 O.3   345  TYR345     -0.2866
@<TRIPOS>BOND
     1    46    47    1
     2    48    47    1
     3    48    49    2
     4    47    50    1
     5    50    51    1
     6    51    52    1
     7    52    53    1
     8    63    62    1
     9    29    30    1
    10    62    64    1
    11    62    61    2
    12    56    57    2
    13    56    55    1
    14    54    55    1
    15    61    60    1
    16    81    78    1
    17    81    82    1
    18    79    80    2
    19    79    78    1
    20    30    33    1
    21    30    31    1
    22   108   107    1
    23    65    66    1
    24    55    58    1
    25    58    59    1
    26    31    32    2
    27    78    77    1
    28   107   106   ar
    29   107   105   ar
    30   106   104   ar
    31    77    67   am
    32    34    35    1
    33    60    59    1
    34   105   103   ar
    35    67    66    1
    36    67    68    2
    37   104   102   ar
    38    66    69    1
    39   103   102   ar
    40   102   101    1
    41    35    38    1
    42    35    36    1
    43    38    39    1
    44    69    70    1
    45     9     7   ar
    46     9    10   ar
    47   101    98    1
    48     7     6   ar
    49    36    37    2
    50   113   114    1
    51   113   110    1
    52   112   111    2
    53    39    40   ar
    54    39    41   ar
    55    10    12   ar
    56    10     8   ar
    57    70    72   ar
    58    70    71   ar
    59    12    14   ar
    60    98    99    1
    61    98    97    1
    62   100    99    2
    63   111   110    1
    64   128   127    1
    65    40    42   ar
    66    72    74   ar
    67     6     8   ar
    68     6     5    1
    69    41    43   ar
    70    71    73   ar
    71   110   109    1
    72     1     2    1
    73   129   127    1
    74   127   126    2
    75     8    11   ar
    76    97    95   am
    77    87    88    1
    78    87    84    1
    79    14    13   ar
    80     5     2    1
    81    83    84    1
    82    74    75   ar
    83    42    44   ar
    84    88    90   ar
    85    88    89   ar
    86     2     3    1
    87   126   125    1
    88    73    75   ar
    89    95    96    2
    90    95    94    1
    91    43    44   ar
    92    90    92   ar
    93   125   124    1
    94    84    85    1
    95    11    13   ar
    96    89    91   ar
    97    86    85    2
    98    75    76    1
    99    44    45    1
   100    92    91   ar
   101    94    93    1
   102     3     4    2
   103    28    26   ar
   104    28    27   ar
   105   138   137    1
   106    26    24   ar
   107   124   123    1
   108   136   137    1
   109   136   135    1
   110    27    25   ar
   111   123   120    1
   112    24    23   ar
   113    24    22   ar
   114   186   185   ar
   115   186   184   ar
   116   185   183   ar
   117   184   182   ar
   118   135   134    1
   119    23    21   ar
   120    25    22   ar
   121   195   193   ar
   122   195   197   ar
   123   118   117    2
   124    22    20   ar
   125   172   171    1
   126   120   119    1
   127   120   121    1
   128   210   209    1
   129   193   192   ar
   130   183   180   ar
   131   182   180   ar
   132   182   181   ar
   133   198   197    1
   134   197   196   ar
   135   180   178   ar
   136   117   119   am
   137   117   116    1
   138    21    20   ar
   139   181   179   ar
   140   121   122    2
   141    20    19    1
   142   192   191    1
   143   192   194   ar
   144   134   131    1
   145   170   171   ar
   146   170   168   ar
   147   171   169   ar
   148   191   188    1
   149    15    16    1
   150   209   207   ar
   151   209   208   ar
   152   178   179   ar
   153   178   177    1
   154   196   194   ar
   155   207   205   ar
   156   116   115    1
   157   177   174    1
   158    19    16    1
   159   131   130    1
   160   131   132    1
   161   208   206   ar
   162   168   166   ar
   163   169   167   ar
   164    16    17    1
   165   188   187    1
   166   188   189    1
   167   205   204   ar
   168   176   175    2
   169   160   159    1
   170   174   175    1
   171   174   173    1
   172   154   152   ar
   173   206   204   ar
   174   204   203    1
   175   167   166   ar
   176   166   165    1
   177   132   139   am
   178   132   133    2
   179   189   190    2
   180    17    18    2
   181   139   140    1
   182   159   156    1
   183   145   144    1
   184   152   151    1
   185   152   153   ar
   186   144   143    1
   187   144   146    1
   188   142   141    2
   189   203   200    1
   190   158   157    2
   191   165   162    1
   192   140   143    1
   193   140   141    1
   194   151   148    1
   195   157   161   am
   196   157   156    1
   197   162   161    1
   198   162   163    1
   199   156   155    1
   200   199   200    1
   201   200   201    1
   202   164   163    2
   203   148   147    1
   204   148   149    1
   205   150   149    2
   206   201   202    2
