@<TRIPOS>MOLECULE
tmp/3ksmA00.pdb
 124 115 0 0 0
SMALL
GASTEIGER

@<TRIPOS>ATOM
      1  N         26.4570   11.9830   34.7650 N.3     8  LYS8       -0.1245
      2  CA        27.6460   11.9260   33.9120 C.3     8  LYS8        0.1561
      3  C         28.9160   12.3960   34.6140 C.2     8  LYS8        0.2260
      4  O         29.9860   11.9730   34.2530 O.2     8  LYS8       -0.2867
      5  CB        27.4260   12.7080   32.5910 C.3     8  LYS8        0.0271
      6  CG        26.3290   12.0710   31.7010 C.3     8  LYS8        0.0035
      7  CD        26.3940   12.6250   30.2510 C.3     8  LYS8        0.0206
      8  CE        25.2060   12.1690   29.4280 C.3     8  LYS8        0.1093
      9  NZ        25.3340   12.7360   28.0350 N.3     8  LYS8       -0.1314
     10  N         29.3380   20.1420   34.6550 N.3    12  ASN12      -0.1240
     11  CA        28.2570   21.0580   34.2700 C.3    12  ASN12       0.1653
     12  C         27.3610   21.3370   35.4610 C.2    12  ASN12       0.2266
     13  O         27.0370   20.4020   36.2170 O.2    12  ASN12      -0.2867
     14  CB        27.4350   20.4620   33.1130 C.3    12  ASN12       0.1155
     15  CG        28.2130   20.4210   31.8060 C.2    12  ASN12       0.2627
     16  OD1       28.4280   21.4490   31.1710 O.2    12  ASN12      -0.2716
     17  ND2       28.6090   19.2400   31.3890 N.am   12  ASN12      -0.0877
     18  N         24.3300   22.0780   35.3240 N.3    14  TYR14      -0.1227
     19  CA        23.1490   21.3090   34.9210 C.3    14  TYR14       0.1736
     20  C         22.8320   20.1280   35.8230 C.2    14  TYR14       0.2595
     21  O         21.6650   19.9090   36.1880 O.2    14  TYR14      -0.2718
     22  CB        23.3720   20.7850   33.4960 C.3    14  TYR14       0.0548
     23  CG        22.2790   19.9340   32.9380 C.ar   14  TYR14      -0.0200
     24  CD1       21.1590   20.5170   32.3620 C.ar   14  TYR14      -0.0009
     25  CD2       22.3810   18.5220   32.9370 C.ar   14  TYR14      -0.0009
     26  CE1       20.1530   19.7500   31.8130 C.ar   14  TYR14       0.0417
     27  CE2       21.3640   17.7440   32.3750 C.ar   14  TYR14       0.0417
     28  CZ        20.2580   18.3680   31.8230 C.ar   14  TYR14       0.1957
     29  OH        19.2370   17.6250   31.2750 O.3    14  TYR14      -0.2866
     30  N         23.8550   19.3380   36.1490 N.am   15  TRP15      -0.1976
     31  CA        23.6530   18.1120   36.9260 C.3    15  TRP15       0.1640
     32  C         23.1450   18.3550   38.3290 C.2    15  TRP15       0.2290
     33  O         22.4370   17.5130   38.8750 O.2    15  TRP15      -0.2864
     34  CB        24.9280   17.2470   37.0040 C.3    15  TRP15       0.0576
     35  CG        25.4090   16.7890   35.6520 C.ar   15  TRP15       0.0006
     36  CD1       26.5830   17.1230   35.0560 C.ar   15  TRP15       0.0946
     37  CD2       24.6840   15.9950   34.7030 C.ar   15  TRP15       0.0152
     38  NE1       26.6600   16.5590   33.7930 N.ar   15  TRP15      -0.2442
     39  CE2       25.5030   15.8780   33.5420 C.ar   15  TRP15       0.0810
     40  CE3       23.4340   15.3540   34.7210 C.ar   15  TRP15       0.0012
     41  CZ2       25.1190   15.1250   32.4250 C.ar   15  TRP15       0.0191
     42  CZ3       23.0370   14.6190   33.5960 C.ar   15  TRP15       0.0001
     43  CH2       23.8870   14.4930   32.4730 C.ar   15  TRP15       0.0015
     44  N         32.6190   14.8980   33.6630 N.3    41  ASP41      -0.1239
     45  CA        31.7700   14.3910   32.6080 C.3    41  ASP41       0.1674
     46  C         32.6260   13.6940   31.5850 C.2    41  ASP41       0.2266
     47  O         33.7240   14.1740   31.2410 O.2    41  ASP41      -0.2867
     48  CB        31.0540   15.5440   31.9050 C.3    41  ASP41       0.1410
     49  CG        29.8440   16.0390   32.6590 C.2    41  ASP41       0.3668
     50  OD1       29.9520   16.2020   33.8970 O.co2  41  ASP41      -0.2456
     51  OD2       28.7870   16.3130   32.0020 O.co2  41  ASP41      -0.2456
     52  N         18.3480   11.5820   30.8250 N.3    91  ASP91      -0.1239
     53  CA        19.1010   12.6340   30.1100 C.3    91  ASP91       0.1674
     54  C         19.6830   12.2460   28.7390 C.2    91  ASP91       0.2266
     55  O         19.6530   13.0300   27.7920 O.2    91  ASP91      -0.2867
     56  CB        20.2010   13.2100   31.0010 C.3    91  ASP91       0.1410
     57  CG        21.0130   14.2870   30.3010 C.2    91  ASP91       0.3668
     58  OD1       20.5290   15.4380   30.2070 O.co2  91  ASP91      -0.2456
     59  OD2       22.1270   13.9640   29.8350 O.co2  91  ASP91      -0.2456
     60  N         30.3890   17.8610   20.8880 N.3   135  LEU135     -0.1245
     61  CA        30.9340   17.4720   22.2070 C.3   135  LEU135      0.1561
     62  C         31.8640   16.2430   22.1130 C.2   135  LEU135      0.2260
     63  O         33.1030   16.3910   22.1860 O.2   135  LEU135     -0.2867
     64  CB        29.8130   17.2730   23.2530 C.3   135  LEU135      0.0270
     65  CG        30.2510   17.3570   24.7190 C.3   135  LEU135      0.0019
     66  CD1       29.0390   17.4320   25.5960 C.3   135  LEU135      0.0001
     67  CD2       31.0480   16.1500   25.1180 C.3   135  LEU135      0.0001
     68  N         28.2820   10.2080   23.0220 N.3   139  ASN139     -0.1240
     69  CA        27.4920   10.9050   24.0390 C.3   139  ASN139      0.1653
     70  C         26.1310   11.1410   23.3610 C.2   139  ASN139      0.2266
     71  O         25.9990   12.0280   22.5090 O.2   139  ASN139     -0.2867
     72  CB        28.2020   12.2140   24.3950 C.3   139  ASN139      0.1155
     73  CG        27.6550   12.8780   25.6500 C.2   139  ASN139      0.2627
     74  OD1       27.6650   12.2910   26.7370 O.2   139  ASN139     -0.2716
     75  ND2       27.2260   14.1410   25.5160 N.am  139  ASN139     -0.0877
     76  N         22.9960   12.2610   23.9130 N.3   141  SER141     -0.1202
     77  CA        22.2520   13.5170   23.9330 C.3   141  SER141      0.2020
     78  C         22.8140   14.5560   22.9520 C.2   141  SER141      0.2619
     79  O         22.0500   15.1290   22.1460 O.2   141  SER141     -0.2717
     80  CB        22.2210   14.1040   25.3330 C.3   141  SER141      0.2103
     81  OG        23.5340   14.2270   25.7820 O.3   141  SER141     -0.2182
     82  N         24.1190   14.8190   23.0160 N.am  142  THR142     -0.1952
     83  CA        24.7180   15.8220   22.1210 C.3   142  THR142      0.1897
     84  C         24.8800   15.3060   20.6900 C.2   142  THR142      0.2313
     85  O         24.7960   16.0790   19.7330 O.2   142  THR142     -0.2863
     86  CB        26.0660   16.3750   22.6650 C.3   142  THR142      0.1794
     87  OG1       26.9320   15.2770   22.9920 O.3   142  THR142     -0.2208
     88  CG2       25.8220   17.2350   23.9010 C.3   142  THR142      0.0378
     89  N         21.4780   16.1200   19.3140 N.3   145  ARG145     -0.1245
     90  CA        21.3520   17.5760   19.0710 C.3   145  ARG145      0.1563
     91  C         22.1210   18.0020   17.7980 C.2   145  ARG145      0.2260
     92  O         21.5810   18.7190   16.9470 O.2   145  ARG145     -0.2867
     93  CB        21.8020   18.3820   20.2880 C.3   145  ARG145      0.0307
     94  CG        20.9420   18.0830   21.5380 C.3   145  ARG145      0.0489
     95  CD        21.6350   18.5990   22.8000 C.3   145  ARG145      0.2205
     96  NE        21.0000   17.9820   23.9580 N.pl3 145  ARG145     -0.0865
     97  CZ        21.4590   18.0390   25.1910 C.cat 145  ARG145      0.5346
     98  NH1       22.5720   18.7170   25.4620 N.pl3 145  ARG145      0.1354
     99  NH2       20.7810   17.4180   26.1420 N.pl3 145  ARG145      0.1354
    100  N         25.7350   22.0740   24.3380 N.3   194  ASN194     -0.1240
    101  CA        25.5040   21.9420   25.7770 C.3   194  ASN194      0.1653
    102  C         26.0860   23.0600   26.5990 C.2   194  ASN194      0.2266
    103  O         26.7390   23.9580   26.0620 O.2   194  ASN194     -0.2867
    104  CB        25.9970   20.5700   26.3090 C.3   194  ASN194      0.1155
    105  CG        27.4930   20.5470   26.6330 C.2   194  ASN194      0.2627
    106  OD1       28.2930   21.2040   25.9760 O.2   194  ASN194     -0.2716
    107  ND2       27.8670   19.7650   27.6500 N.am  194  ASN194     -0.0877
    108  N         21.3240   24.9080   27.2080 N.3   219  ASP219     -0.1239
    109  CA        21.3460   24.9710   28.6680 C.3   219  ASP219      0.1674
    110  C         21.4680   26.4170   29.1820 C.2   219  ASP219      0.2266
    111  O         21.7200   27.3480   28.4090 O.2   219  ASP219     -0.2867
    112  CB        22.4470   24.0590   29.2680 C.3   219  ASP219      0.1410
    113  CG        22.2750   22.5730   28.8940 C.2   219  ASP219      0.3668
    114  OD1       21.1210   22.0770   28.8340 O.co2 219  ASP219     -0.2456
    115  OD2       23.3160   21.8940   28.6870 O.co2 219  ASP219     -0.2456
    116  N         16.4410   22.8090   28.5840 N.3   238  GLN238     -0.1245
    117  CA        15.7440   21.5990   28.9920 C.3   238  GLN238      0.1566
    118  C         15.1060   21.8880   30.3340 C.2   238  GLN238      0.2260
    119  O         15.2050   23.0220   30.8430 O.2   238  GLN238     -0.2867
    120  CB        16.7610   20.4570   29.1530 C.3   238  GLN238      0.0367
    121  CG        17.7630   20.3300   27.9630 C.3   238  GLN238      0.0905
    122  CD        18.7390   19.1730   28.1650 C.2   238  GLN238      0.2608
    123  OE1       18.3510   18.0110   28.1070 O.2   238  GLN238     -0.2717
    124  NE2       19.9850   19.4960   28.4490 N.am  238  GLN238     -0.0878
@<TRIPOS>BOND
     1    92    91    2
     2    91    90    1
     3    90    89    1
     4    90    93    1
     5    85    84    2
     6    93    94    1
     7    84    83    1
     8    60    61    1
     9    94    95    1
    10    62    63    2
    11    62    61    1
    12    83    86    1
    13    83    82    1
    14    79    78    2
    15    61    64    1
    16    71    70    2
    17    86    87    1
    18    86    88    1
    19    95    96    1
    20    78    82   am
    21    78    77    1
    22    68    69    1
    23    64    65    1
    24    70    69    1
    25    76    77    1
    26    77    80    1
    27    96    97    2
    28    69    72    1
    29   100   101    1
    30    72    73    1
    31    65    67    1
    32    65    66    1
    33    97    98    1
    34    97    99    1
    35    80    81    1
    36    75    73   am
    37    73    74    2
    38   101   104    1
    39   101   102    1
    40   106   105    2
    41   103   102    2
    42   104   105    1
    43   105   107   am
    44   108   109    1
    45    55    54    2
    46   121   122    1
    47   121   120    1
    48     9     8    1
    49   123   122    2
    50   122   124   am
    51   111   110    2
    52   116   117    1
    53   109   110    1
    54   109   112    1
    55   115   113   ar
    56    54    53    1
    57   114   113   ar
    58   113   112    1
    59   117   120    1
    60   117   118    1
    61     8     7    1
    62    59    57   ar
    63    53    52    1
    64    53    56    1
    65    58    57   ar
    66     7     6    1
    67    57    56    1
    68   118   119    2
    69    16    15    2
    70    47    46    2
    71    29    28    1
    72    17    15   am
    73    46    45    1
    74     6     5    1
    75    15    14    1
    76    26    28   ar
    77    26    24   ar
    78    28    27   ar
    79    48    45    1
    80    48    49    1
    81    51    49   ar
    82    24    23   ar
    83    27    25   ar
    84    41    43   ar
    85    41    39   ar
    86    43    42   ar
    87     5     2    1
    88    45    44    1
    89    49    50   ar
    90    25    23   ar
    91    23    22    1
    92    14    11    1
    93    22    19    1
    94    39    38   ar
    95    39    37   ar
    96    42    40   ar
    97    38    36   ar
    98     2     3    1
    99     2     1    1
   100     4     3    2
   101    11    10    1
   102    11    12    1
   103    37    40   ar
   104    37    35   ar
   105    19    18    1
   106    19    20    1
   107    36    35   ar
   108    12    13    2
   109    35    34    1
   110    20    30   am
   111    20    21    2
   112    30    31    1
   113    31    34    1
   114    31    32    1
   115    32    33    2
