@<TRIPOS>MOLECULE
tmp/3kspA00.pdb
 122 119 0 0 0
SMALL
GASTEIGER

@<TRIPOS>ATOM
      1  N          6.1200   39.4760   56.7480 N.3    39  ASP39      -0.1225
      2  CA         7.0910   39.8350   57.7710 C.3    39  ASP39       0.1805
      3  C          7.1150   41.3530   57.9610 C.2    39  ASP39       0.2598
      4  O          6.4670   42.0710   57.2290 O.2    39  ASP39      -0.2718
      5  CB         8.4960   39.2360   57.4770 C.3    39  ASP39       0.1424
      6  CG         9.3030   40.0160   56.4150 C.2    39  ASP39       0.3668
      7  OD1        8.8300   41.0310   55.8570 O.co2  39  ASP39      -0.2456
      8  OD2       10.4460   39.5810   56.1440 O.co2  39  ASP39      -0.2456
      9  N          7.8810   41.8230   58.9430 N.am   40  GLY40      -0.1942
     10  CA         7.9400   43.2260   59.2970 C.3    40  GLY40       0.2014
     11  C          8.5350   44.1680   58.2850 C.2    40  GLY40       0.2638
     12  O          8.4830   45.3630   58.5250 O.2    40  GLY40      -0.2714
     13  N          9.1270   43.6620   57.1900 N.am   41  GLN41      -0.1977
     14  CA         9.5350   44.4830   56.0140 C.3    41  GLN41       0.1601
     15  C          8.4660   44.4670   54.9310 C.2    41  GLN41       0.2287
     16  O          8.6410   45.1020   53.8830 O.2    41  GLN41      -0.2864
     17  CB        10.7930   43.9360   55.3080 C.3    41  GLN41       0.0394
     18  CG        12.0680   43.7560   56.1060 C.3    41  GLN41       0.0908
     19  CD        12.4380   44.9960   56.8770 C.2    41  GLN41       0.2608
     20  OE1       12.0370   45.1700   58.0530 O.2    41  GLN41      -0.2717
     21  NE2       13.2290   45.8680   56.2400 N.am   41  GLN41      -0.0878
     22  N          7.5590   41.6330   53.2590 N.3    43  ARG43      -0.1245
     23  CA         7.7740   40.5020   52.3800 C.3    43  ARG43       0.1563
     24  C          6.7490   39.3690   52.6490 C.2    43  ARG43       0.2260
     25  O          6.5240   38.9640   53.7900 O.2    43  ARG43      -0.2867
     26  CB         9.1920   39.9820   52.5680 C.3    43  ARG43       0.0307
     27  CG         9.5980   38.8850   51.6070 C.3    43  ARG43       0.0489
     28  CD        11.0300   38.4630   51.8970 C.3    43  ARG43       0.2205
     29  NE        11.3850   37.1970   51.2590 N.pl3  43  ARG43      -0.0865
     30  CZ        12.4340   36.4510   51.6030 C.cat  43  ARG43       0.5346
     31  NH1       13.2460   36.8220   52.5950 N.pl3  43  ARG43       0.1354
     32  NH2       12.6720   35.3150   50.9600 N.pl3  43  ARG43       0.1354
     33  N          5.3470   35.5130   52.2470 N.3    45  PHE45      -0.1241
     34  CA         5.7000   34.1020   52.1760 C.3    45  PHE45       0.1605
     35  C          4.4340   33.2500   51.9830 C.2    45  PHE45       0.2264
     36  O          3.3960   33.5450   52.5720 O.2    45  PHE45      -0.2867
     37  CB         6.4090   33.6840   53.4820 C.3    45  PHE45       0.0534
     38  CG         7.6860   34.4630   53.7790 C.ar   45  PHE45      -0.0203
     39  CD1        7.6350   35.7440   54.2980 C.ar   45  PHE45      -0.0042
     40  CD2        8.9380   33.9000   53.5450 C.ar   45  PHE45      -0.0042
     41  CE1        8.7950   36.4520   54.5760 C.ar   45  PHE45      -0.0003
     42  CE2       10.1140   34.6020   53.8320 C.ar   45  PHE45      -0.0003
     43  CZ        10.0390   35.8740   54.3460 C.ar   45  PHE45      -0.0000
     44  N         12.0800   29.4410   55.8220 N.3    53  HIS53      -0.1226
     45  CA        12.7650   30.5780   56.4510 C.3    53  HIS53       0.1752
     46  C         12.6190   30.6060   57.9760 C.2    53  HIS53       0.2596
     47  O         13.5470   30.9940   58.6970 O.2    53  HIS53      -0.2718
     48  CB        12.2910   31.8860   55.8050 C.3    53  HIS53       0.0759
     49  CG        12.8920   32.1310   54.4480 C.ar   53  HIS53       0.0818
     50  ND1       12.2130   31.8810   53.2740 N.ar   53  HIS53      -0.2268
     51  CD2       14.1240   32.5630   54.0810 C.ar   53  HIS53       0.1154
     52  CE1       12.9900   32.1650   52.2430 C.ar   53  HIS53       0.1986
     53  NE2       14.1590   32.5730   52.7060 N.ar   53  HIS53      -0.2212
     54  N         11.4730   30.1400   58.4660 N.am   54  TYR54      -0.1976
     55  CA        11.1640   30.2100   59.8810 C.3    54  TYR54       0.1639
     56  C         11.1120   28.8260   60.5760 C.2    54  TYR54       0.2290
     57  O         11.2190   28.7380   61.7980 O.2    54  TYR54      -0.2864
     58  CB         9.8380   30.9540   60.0510 C.3    54  TYR54       0.0560
     59  CG         9.8680   32.4780   59.8650 C.ar   54  TYR54      -0.0198
     60  CD1       10.2010   33.3240   60.9260 C.ar   54  TYR54      -0.0009
     61  CD2        9.4920   33.0810   58.6480 C.ar   54  TYR54      -0.0009
     62  CE1       10.1910   34.7270   60.7820 C.ar   54  TYR54       0.0417
     63  CE2        9.4750   34.4870   58.5010 C.ar   54  TYR54       0.0417
     64  CZ         9.8240   35.3070   59.5670 C.ar   54  TYR54       0.1957
     65  OH         9.8120   36.7010   59.4550 O.3    54  TYR54      -0.2866
     66  N         17.4730   28.1250   60.6910 N.3    60  ILE60      -0.1245
     67  CA        17.0220   28.9110   61.8450 C.3    60  ILE60       0.1561
     68  C         16.8830   28.0030   63.0790 C.2    60  ILE60       0.2260
     69  O         16.3610   26.8990   62.9830 O.2    60  ILE60      -0.2867
     70  CB        15.6620   29.6320   61.5400 C.3    60  ILE60       0.0252
     71  CG1       15.4320   30.8130   62.4930 C.3    60  ILE60       0.0019
     72  CG2       14.4850   28.6580   61.6290 C.3    60  ILE60       0.0019
     73  CD1       14.3550   31.7680   62.0420 C.3    60  ILE60       0.0001
     74  N         16.0400   34.2680   67.9550 N.3    88  PHE88      -0.1241
     75  CA        16.5830   33.1130   67.2220 C.3    88  PHE88       0.1605
     76  C         17.9690   33.3050   66.6160 C.2    88  PHE88       0.2264
     77  O         18.4120   34.4360   66.4150 O.2    88  PHE88      -0.2867
     78  CB        15.6090   32.6230   66.1380 C.3    88  PHE88       0.0534
     79  CG        15.2860   33.6400   65.0740 C.ar   88  PHE88      -0.0203
     80  CD1       16.1800   33.9090   64.0480 C.ar   88  PHE88      -0.0042
     81  CD2       14.0580   34.3020   65.0790 C.ar   88  PHE88      -0.0042
     82  CE1       15.8630   34.8500   63.0520 C.ar   88  PHE88      -0.0003
     83  CE2       13.7370   35.2080   64.1160 C.ar   88  PHE88      -0.0003
     84  CZ        14.6370   35.4940   63.0890 C.ar   88  PHE88      -0.0000
     85  N         20.5410   32.5410   63.3270 N.3    90  TYR90      -0.1241
     86  CA        20.4950   32.4430   61.8760 C.3    90  TYR90       0.1605
     87  C         21.9180   32.6340   61.3990 C.2    90  TYR90       0.2264
     88  O         22.4240   33.7450   61.3660 O.2    90  TYR90      -0.2867
     89  CB        19.5830   33.5440   61.3100 C.3    90  TYR90       0.0534
     90  CG        19.1350   33.3610   59.8670 C.ar   90  TYR90      -0.0201
     91  CD1       20.0140   33.5940   58.8020 C.ar   90  TYR90      -0.0009
     92  CD2       17.8080   32.9830   59.5690 C.ar   90  TYR90      -0.0009
     93  CE1       19.6060   33.4310   57.4760 C.ar   90  TYR90       0.0417
     94  CE2       17.3710   32.8220   58.2410 C.ar   90  TYR90       0.0417
     95  CZ        18.2810   33.0480   57.1980 C.ar   90  TYR90       0.1957
     96  OH        17.8580   32.8990   55.8820 O.3    90  TYR90      -0.2866
     97  N          7.5880   42.6400   67.8080 N.3    98  PHE98      -0.1241
     98  CA         6.5950   42.9080   66.7690 C.3    98  PHE98       0.1605
     99  C          5.2080   42.9960   67.3480 C.2    98  PHE98       0.2264
    100  O          4.9060   42.3700   68.3730 O.2    98  PHE98      -0.2867
    101  CB         6.5700   41.8040   65.6900 C.3    98  PHE98       0.0534
    102  CG         7.8920   41.5590   65.0230 C.ar   98  PHE98      -0.0203
    103  CD1        8.3040   42.3370   63.9750 C.ar   98  PHE98      -0.0042
    104  CD2        8.7080   40.5180   65.4320 C.ar   98  PHE98      -0.0042
    105  CE1        9.5350   42.0950   63.3480 C.ar   98  PHE98      -0.0003
    106  CE2        9.9330   40.2750   64.8150 C.ar   98  PHE98      -0.0003
    107  CZ        10.3320   41.0560   63.7700 C.ar   98  PHE98      -0.0000
    108  N          3.3540   40.9540   60.4460 N.3   118  LEU118     -0.1245
    109  CA         4.2110   41.5960   61.4580 C.3   118  LEU118      0.1561
    110  C          4.3730   43.1160   61.2240 C.2   118  LEU118      0.2260
    111  O          4.5380   43.5660   60.0720 O.2   118  LEU118     -0.2867
    112  CB         5.6310   40.9820   61.4330 C.3   118  LEU118      0.0270
    113  CG         5.8050   39.5340   61.8650 C.3   118  LEU118      0.0019
    114  CD1        7.3460   39.2690   62.0260 C.3   118  LEU118      0.0001
    115  CD2        4.9440   39.1850   63.1430 C.3   118  LEU118      0.0001
    116  N          7.0240   45.9210   62.9140 N.3   120  PRO120     -0.2116
    117  CA         8.1550   46.0260   63.8650 C.3   120  PRO120      0.1372
    118  C          7.9040   47.0080   64.9890 C.2   120  PRO120      0.2244
    119  O          7.2740   48.0300   64.7600 O.2   120  PRO120     -0.2868
    120  CB         9.3090   46.5240   62.9930 C.3   120  PRO120      0.0268
    121  CG         8.9400   46.1540   61.6220 C.3   120  PRO120      0.0207
    122  CD         7.4480   46.1930   61.5300 C.3   120  PRO120      0.0892
@<TRIPOS>BOND
     1    32    30    1
     2    29    30    2
     3    29    28    1
     4    30    31    1
     5    27    28    1
     6    27    26    1
     7    35    34    1
     8    35    36    2
     9    34    33    1
    10    34    37    1
    11    52    53   ar
    12    52    50   ar
    13    23    26    1
    14    23    24    1
    15    23    22    1
    16    24    25    2
    17    53    51   ar
    18    50    49   ar
    19    37    38    1
    20    40    38   ar
    21    40    42   ar
    22    38    39   ar
    23    42    43   ar
    24    16    15    2
    25    51    49   ar
    26    39    41   ar
    27    43    41   ar
    28    49    48    1
    29    15    14    1
    30    17    14    1
    31    17    18    1
    32    48    45    1
    33    44    45    1
    34     7     6   ar
    35    96    95    1
    36    14    13    1
    37    18    19    1
    38     8     6   ar
    39    21    19   am
    40     6     5    1
    41    45    46    1
    42     1     2    1
    43    19    20    2
    44    13    11   am
    45    95    93   ar
    46    95    94   ar
    47     4     3    2
    48    93    91   ar
    49     5     2    1
    50     2     3    1
    51     3     9   am
    52    46    54   am
    53    46    47    2
    54    94    92   ar
    55    11    12    2
    56    11    10    1
    57    54    55    1
    58    63    61   ar
    59    63    64   ar
    60    61    59   ar
    61    91    90   ar
    62     9    10    1
    63    65    64    1
    64    64    62   ar
    65    92    90   ar
    66    59    58    1
    67    59    60   ar
    68    90    89    1
    69    55    58    1
    70    55    56    1
    71   111   110    2
    72   108   109    1
    73    56    57    2
    74    66    67    1
    75    62    60   ar
    76   110   109    1
    77    89    86    1
    78    88    87    2
    79    87    86    1
    80   112   109    1
    81   112   113    1
    82   122   121    1
    83   122   116    1
    84    70    72    1
    85    70    67    1
    86    70    71    1
    87   121   120    1
    88    67    68    1
    89   113   114    1
    90   113   115    1
    91    86    85    1
    92    73    71    1
    93   116   117    1
    94    69    68    2
    95   120   117    1
    96    82    84   ar
    97    82    80   ar
    98    84    83   ar
    99   105   107   ar
   100   105   103   ar
   101   107   106   ar
   102   117   118    1
   103   103   102   ar
   104    80    79   ar
   105    83    81   ar
   106   119   118    2
   107   106   104   ar
   108   102   104   ar
   109   102   101    1
   110    79    81   ar
   111    79    78    1
   112   101    98    1
   113    78    75    1
   114    77    76    2
   115    76    75    1
   116    98    99    1
   117    98    97    1
   118    75    74    1
   119    99   100    2
