@<TRIPOS>MOLECULE
tmp/3ksqB01.pdb
 181 182 0 0 0
SMALL
GASTEIGER

@<TRIPOS>ATOM
      1  N        183.0840  142.6120   34.8160 N.3    72  ALA72      -0.1231
      2  CA       184.2010  141.6750   34.9570 C.3    72  ALA72       0.1694
      3  C        183.7820  140.3470   34.2810 C.2    72  ALA72       0.2592
      4  O        184.6310  139.5770   33.8240 O.2    72  ALA72      -0.2718
      5  CB       184.4870  141.4340   36.4340 C.3    72  ALA72       0.0304
      6  N        182.4480  140.1370   34.1740 N.am   73  TYR73      -0.1976
      7  CA       181.7970  138.9750   33.5800 C.3    73  TYR73       0.1639
      8  C        181.5540  139.0750   32.0960 C.2    73  TYR73       0.2290
      9  O        180.9550  138.1690   31.5160 O.2    73  TYR73      -0.2864
     10  CB       180.5340  138.5950   34.3830 C.3    73  TYR73       0.0560
     11  CG       180.9310  137.8410   35.6330 C.ar   73  TYR73      -0.0198
     12  CD1      181.3280  138.5170   36.7840 C.ar   73  TYR73      -0.0009
     13  CD2      181.0180  136.4540   35.6320 C.ar   73  TYR73      -0.0009
     14  CE1      181.8040  137.8290   37.8990 C.ar   73  TYR73       0.0417
     15  CE2      181.4910  135.7550   36.7410 C.ar   73  TYR73       0.0417
     16  CZ       181.8860  136.4450   37.8690 C.ar   73  TYR73       0.1957
     17  OH       182.3380  135.7340   38.9500 O.3    73  TYR73      -0.2866
     18  N        183.6560  138.5450   29.8040 N.3    75  CYS75      -0.1221
     19  CA       184.3790  137.4050   29.2420 C.3    75  CYS75       0.1808
     20  C        183.5130  136.1150   29.3130 C.2    75  CYS75       0.2601
     21  O        183.8670  135.1110   28.7020 O.2    75  CYS75      -0.2717
     22  CB       185.7300  137.2320   29.9370 C.3    75  CYS75       0.0970
     23  SG       185.6150  136.6410   31.6450 S.3    75  CYS75      -0.0800
     24  N        182.3760  136.1770   30.0390 N.am   76  LEU76      -0.1979
     25  CA       181.4070  135.0830   30.1640 C.3    76  LEU76       0.1596
     26  C        180.0590  135.4140   29.4890 C.2    76  LEU76       0.2287
     27  O        179.0490  134.7470   29.7450 O.2    76  LEU76      -0.2864
     28  CB       181.2540  134.5880   31.6330 C.3    76  LEU76       0.0297
     29  CG       182.5080  133.9240   32.2240 C.3    76  LEU76       0.0022
     30  CD1      182.3800  133.7540   33.7000 C.3    76  LEU76       0.0001
     31  CD2      182.8180  132.5600   31.5380 C.3    76  LEU76       0.0001
     32  N        178.5950  132.4940   27.8600 N.3    79  SER79      -0.1217
     33  CA       178.5220  131.4030   28.8440 C.3    79  SER79       0.1889
     34  C        177.4210  131.6120   29.8570 C.2    79  SER79       0.2288
     35  O        177.5620  131.1870   30.9900 O.2    79  SER79      -0.2866
     36  CB       179.8590  131.2600   29.5760 C.3    79  SER79       0.2089
     37  OG       180.8060  130.6310   28.7330 O.3    79  SER79      -0.2183
     38  N        176.0470  128.6960   31.7530 N.3    82  TRP82      -0.1241
     39  CA       177.0130  128.2140   32.7650 C.3    82  TRP82       0.1605
     40  C        176.8020  128.9860   34.0600 C.2    82  TRP82       0.2264
     41  O        176.8160  128.3900   35.1210 O.2    82  TRP82      -0.2867
     42  CB       178.4710  128.4250   32.3360 C.3    82  TRP82       0.0550
     43  CG       179.0640  127.3110   31.5480 C.ar   82  TRP82       0.0003
     44  CD1      179.6280  127.4060   30.3110 C.ar   82  TRP82       0.0946
     45  CD2      179.1950  125.9280   31.9470 C.ar   82  TRP82       0.0152
     46  NE1      180.1100  126.1830   29.9160 N.ar   82  TRP82      -0.2442
     47  CE2      179.8990  125.2660   30.9150 C.ar   82  TRP82       0.0810
     48  CE3      178.8870  125.2120   33.1180 C.ar   82  TRP82       0.0012
     49  CZ2      180.2610  123.9090   31.0000 C.ar   82  TRP82       0.0191
     50  CZ3      179.2200  123.8700   33.1920 C.ar   82  TRP82       0.0001
     51  CH2      179.9190  123.2350   32.1540 C.ar   82  TRP82       0.0015
     52  N        176.1070  127.2800   37.5530 N.3    86  TRP86      -0.1241
     53  CA       177.0210  127.4480   38.6800 C.3    86  TRP86       0.1605
     54  C        176.3160  128.0020   39.9170 C.2    86  TRP86       0.2264
     55  O        176.4930  127.4530   40.9970 O.2    86  TRP86      -0.2867
     56  CB       178.2190  128.3490   38.3260 C.3    86  TRP86       0.0550
     57  CG       179.1100  127.7980   37.2470 C.ar   86  TRP86       0.0003
     58  CD1      179.4130  126.4870   37.0160 C.ar   86  TRP86       0.0946
     59  CD2      179.8940  128.5620   36.3250 C.ar   86  TRP86       0.0152
     60  NE1      180.3120  126.3830   35.9880 N.ar   86  TRP86      -0.2442
     61  CE2      180.6050  127.6380   35.5210 C.ar   86  TRP86       0.0810
     62  CE3      179.9780  129.9400   36.0190 C.ar   86  TRP86       0.0012
     63  CZ2      181.4280  128.0440   34.4590 C.ar   86  TRP86       0.0191
     64  CZ3      180.7880  130.3380   34.9620 C.ar   86  TRP86       0.0001
     65  CH2      181.5250  129.3960   34.2160 C.ar   86  TRP86       0.0015
     66  N        194.5300  115.0530   32.3580 N.3   228  HIS228     -0.1241
     67  CA       194.0720  116.2700   33.0500 C.3   228  HIS228      0.1621
     68  C        192.8160  115.9580   33.8030 C.2   228  HIS228      0.2264
     69  O        191.9530  115.2610   33.2820 O.2   228  HIS228     -0.2867
     70  CB       193.8100  117.3870   32.0090 C.3   228  HIS228      0.0745
     71  CG       193.5760  118.7340   32.6110 C.ar  228  HIS228      0.0817
     72  ND1      192.3850  119.0460   33.2470 N.ar  228  HIS228     -0.2268
     73  CD2      194.3520  119.8460   32.5710 C.ar  228  HIS228      0.1154
     74  CE1      192.5090  120.3010   33.6430 C.ar  228  HIS228      0.1986
     75  NE2      193.6820  120.8190   33.2750 N.ar  228  HIS228     -0.2212
     76  N        194.4040  123.7020   42.9930 N.3   277  ASP277     -0.1239
     77  CA       193.3190  124.5740   42.6120 C.3   277  ASP277      0.1674
     78  C        192.0410  124.0210   43.2050 C.2   277  ASP277      0.2266
     79  O        191.7160  122.8630   42.9820 O.2   277  ASP277     -0.2867
     80  CB       193.2240  124.6980   41.0920 C.3   277  ASP277      0.1410
     81  CG       192.1060  125.5940   40.5750 C.2   277  ASP277      0.3668
     82  OD1      191.1310  125.8420   41.3230 O.co2 277  ASP277     -0.2456
     83  OD2      192.1840  126.0110   39.4350 O.co2 277  ASP277     -0.2456
     84  N        188.9380  124.2120   42.3140 N.3   279  CYS279     -0.1221
     85  CA       187.9130  123.5630   41.4500 C.3   279  CYS279      0.1808
     86  C        188.1870  122.0710   41.1990 C.2   279  CYS279      0.2601
     87  O        187.2460  121.3200   40.9250 O.2   279  CYS279     -0.2717
     88  CB       187.7130  124.3130   40.1440 C.3   279  CYS279      0.0970
     89  SG       189.1350  124.2120   39.0340 S.3   279  CYS279     -0.0800
     90  N        189.4650  121.6510   41.2930 N.am  280  TYR280     -0.1976
     91  CA       189.8430  120.2370   41.1770 C.3   280  TYR280      0.1639
     92  C        189.3630  119.4190   42.3640 C.2   280  TYR280      0.2290
     93  O        189.4130  118.1750   42.3200 O.2   280  TYR280     -0.2864
     94  CB       191.3320  120.0560   40.8500 C.3   280  TYR280      0.0560
     95  CG       191.6410  120.6510   39.4840 C.ar  280  TYR280     -0.0198
     96  CD1      192.5180  121.7210   39.3520 C.ar  280  TYR280     -0.0009
     97  CD2      190.9920  120.1920   38.3350 C.ar  280  TYR280     -0.0009
     98  CE1      192.7360  122.3290   38.1180 C.ar  280  TYR280      0.0417
     99  CE2      191.1730  120.8190   37.1040 C.ar  280  TYR280      0.0417
    100  CZ       192.0460  121.8900   37.0020 C.ar  280  TYR280      0.1957
    101  OH       192.2680  122.4910   35.7930 O.3   280  TYR280     -0.2866
    102  N        186.4120  118.1390   40.0820 N.3   283  TRP283     -0.1241
    103  CA       186.8960  117.3600   38.9260 C.3   283  TRP283      0.1605
    104  C        187.7170  116.1380   39.2820 C.2   283  TRP283      0.2264
    105  O        187.5360  115.0900   38.6720 O.2   283  TRP283     -0.2867
    106  CB       187.6240  118.2290   37.8830 C.3   283  TRP283      0.0550
    107  CG       186.8500  119.4440   37.4340 C.ar  283  TRP283      0.0003
    108  CD1      187.2120  120.7490   37.6160 C.ar  283  TRP283      0.0946
    109  CD2      185.5850  119.4680   36.7430 C.ar  283  TRP283      0.0152
    110  NE1      186.2380  121.5850   37.1130 N.ar  283  TRP283     -0.2442
    111  CE2      185.2450  120.8260   36.5410 C.ar  283  TRP283      0.0810
    112  CE3      184.7290  118.4710   36.2300 C.ar  283  TRP283      0.0012
    113  CZ2      184.0980  121.2160   35.8340 C.ar  283  TRP283      0.0191
    114  CZ3      183.5690  118.8540   35.5660 C.ar  283  TRP283      0.0001
    115  CH2      183.2480  120.2130   35.3910 C.ar  283  TRP283      0.0015
    116  N        190.0950  129.6220   43.7460 N.3   332  ASP332     -0.1239
    117  CA       191.0960  128.6450   43.3120 C.3   332  ASP332      0.1674
    118  C        192.0840  128.3820   44.4710 C.2   332  ASP332      0.2266
    119  O        192.2240  127.2470   44.9360 O.2   332  ASP332     -0.2867
    120  CB       191.7850  129.2120   42.0180 C.3   332  ASP332      0.1410
    121  CG       193.1930  128.7530   41.6550 C.2   332  ASP332      0.3668
    122  OD1      193.7520  127.9080   42.3730 O.co2 332  ASP332     -0.2456
    123  OD2      193.7410  129.2630   40.6620 O.co2 332  ASP332     -0.2456
    124  N        191.0250  135.8230   43.0740 N.3   337  SER337     -0.1202
    125  CA       189.7330  136.4920   43.1880 C.3   337  SER337      0.2020
    126  C        188.6420  135.4290   43.0820 C.2   337  SER337      0.2619
    127  O        188.7600  134.4820   42.2720 O.2   337  SER337     -0.2717
    128  CB       189.5440  137.4750   42.0310 C.3   337  SER337      0.2103
    129  OG       190.6410  138.3610   41.8740 O.3   337  SER337     -0.2182
    130  N        187.5490  135.6300   43.8370 N.am  338  ARG338     -0.1965
    131  CA       186.3790  134.7470   43.8400 C.3   338  ARG338      0.1729
    132  C        185.7170  134.7680   42.4660 C.2   338  ARG338      0.2616
    133  O        185.9040  135.7130   41.7120 O.2   338  ARG338     -0.2715
    134  CB       185.3590  135.2050   44.9160 C.3   338  ARG338      0.0348
    135  CG       184.6940  136.5550   44.5850 C.3   338  ARG338      0.0492
    136  CD       184.1270  137.2720   45.7840 C.3   338  ARG338      0.2205
    137  NE       183.3940  138.4700   45.3720 N.pl3 338  ARG338     -0.0865
    138  CZ       182.4000  139.0060   46.0630 C.cat 338  ARG338      0.5346
    139  NH1      182.0070  138.4600   47.2030 N.pl3 338  ARG338      0.1354
    140  NH2      181.7800  140.0870   45.6140 N.pl3 338  ARG338      0.1354
    141  N        184.9450  133.7350   42.1440 N.am  339  ASP339     -0.1957
    142  CA       184.1560  133.6670   40.9270 C.3   339  ASP339      0.1840
    143  C        183.1120  132.5800   41.0940 C.2   339  ASP339      0.2622
    144  O        183.2450  131.7310   41.9760 O.2   339  ASP339     -0.2715
    145  CB       185.0170  133.5510   39.6480 C.3   339  ASP339      0.1450
    146  CG       185.8270  132.2770   39.5670 C.2   339  ASP339      0.3671
    147  OD1      185.2280  131.2100   39.5280 O.co2 339  ASP339     -0.2456
    148  OD2      187.0650  132.3600   39.5610 O.co2 339  ASP339     -0.2456
    149  N        182.0420  132.6400   40.3160 N.am  340  PHE340     -0.1960
    150  CA       180.9460  131.6800   40.4130 C.3   340  PHE340      0.1771
    151  C        181.3450  130.2340   40.0410 C.2   340  PHE340      0.2620
    152  O        180.8080  129.2880   40.6260 O.2   340  PHE340     -0.2715
    153  CB       179.7340  132.1830   39.6220 C.3   340  PHE340      0.0574
    154  CG       179.1970  133.4790   40.1940 C.ar  340  PHE340     -0.0200
    155  CD1      179.4450  134.6860   39.5670 C.ar  340  PHE340     -0.0042
    156  CD2      178.4940  133.4910   41.3980 C.ar  340  PHE340     -0.0042
    157  CE1      179.0060  135.8860   40.1360 C.ar  340  PHE340     -0.0003
    158  CE2      178.0330  134.6890   41.9480 C.ar  340  PHE340     -0.0003
    159  CZ       178.2910  135.8750   41.3120 C.ar  340  PHE340     -0.0000
    160  N        182.3340  130.0730   39.1340 N.am  341  TYR341     -0.1960
    161  CA       182.8530  128.7460   38.7350 C.3   341  TYR341      0.1771
    162  C        183.5340  128.0750   39.9420 C.2   341  TYR341      0.2619
    163  O        183.2100  126.9370   40.2680 O.2   341  TYR341     -0.2715
    164  CB       183.8370  128.8890   37.5390 C.3   341  TYR341      0.0574
    165  CG       184.6920  127.6690   37.2890 C.ar  341  TYR341     -0.0198
    166  CD1      184.1800  126.5570   36.6180 C.ar  341  TYR341     -0.0009
    167  CD2      185.9980  127.6040   37.7600 C.ar  341  TYR341     -0.0009
    168  CE1      184.9590  125.4210   36.4000 C.ar  341  TYR341      0.0417
    169  CE2      186.7710  126.4650   37.5800 C.ar  341  TYR341      0.0417
    170  CZ       186.2530  125.3760   36.8870 C.ar  341  TYR341      0.1957
    171  OH       187.0160  124.2470   36.6860 O.3   341  TYR341     -0.2866
    172  N        184.4620  128.7850   40.6120 N.am  342  HIS342     -0.1973
    173  CA       185.1130  128.2130   41.7930 C.3   342  HIS342      0.1656
    174  C        184.1580  128.0290   42.9420 C.2   342  HIS342      0.2291
    175  O        184.2830  127.0490   43.6630 O.2   342  HIS342     -0.2864
    176  CB       186.3680  128.9650   42.1980 C.3   342  HIS342      0.0771
    177  CG       187.4690  128.7730   41.2120 C.ar  342  HIS342      0.0820
    178  ND1      187.6290  129.6300   40.1300 N.ar  342  HIS342     -0.2267
    179  CD2      188.3750  127.7740   41.1120 C.ar  342  HIS342      0.1154
    180  CE1      188.6790  129.1740   39.4660 C.ar  342  HIS342      0.1986
    181  NE2      189.1650  128.0720   40.0290 N.ar  342  HIS342     -0.2212
@<TRIPOS>BOND
     1    32    33    1
     2    21    20    2
     3    37    36    1
     4    33    36    1
     5    33    34    1
     6    19    20    1
     7    19    18    1
     8    19    22    1
     9    20    24   am
    10    26    27    2
    11    26    25    1
    12    34    35    2
    13    46    44   ar
    14    46    47   ar
    15    22    23    1
    16    24    25    1
    17    25    28    1
    18    44    43   ar
    19    47    49   ar
    20    47    45   ar
    21    49    51   ar
    22     9     8    2
    23    31    29    1
    24    43    45   ar
    25    43    42    1
    26    28    29    1
    27    38    39    1
    28    45    48   ar
    29    70    71    1
    30    70    67    1
    31     8     7    1
    32    51    50   ar
    33    29    30    1
    34    42    39    1
    35    66    67    1
    36    73    71   ar
    37    73    75   ar
    38    71    72   ar
    39    39    40    1
    40    67    68    1
    41    48    50   ar
    42    72    74   ar
    43    75    74   ar
    44    69    68    2
    45     7     6    1
    46     7    10    1
    47     4     3    2
    48    40    41    2
    49     6     3   am
    50    65    63   ar
    51    65    64   ar
    52     3     2    1
    53    10    11    1
    54    63    61   ar
    55     1     2    1
    56     2     5    1
    57    64    62   ar
    58   115   114   ar
    59   115   113   ar
    60    61    60   ar
    61    61    59   ar
    62   114   112   ar
    63    13    11   ar
    64    13    15   ar
    65    11    12   ar
    66   101   100    1
    67   113   111   ar
    68    60    58   ar
    69    62    59   ar
    70   112   109   ar
    71    59    57   ar
    72   168   166   ar
    73   168   170   ar
    74   111   109   ar
    75   111   110   ar
    76   166   165   ar
    77   171   170    1
    78    15    16   ar
    79   109   107   ar
    80    12    14   ar
    81   170   169   ar
    82   100    99   ar
    83   100    98   ar
    84    58    57   ar
    85    99    97   ar
    86   110   108   ar
    87    57    56    1
    88   165   164    1
    89   165   167   ar
    90   107   108   ar
    91   107   106    1
    92   164   161    1
    93    52    53    1
    94   169   167   ar
    95    16    14   ar
    96    16    17    1
    97   106   103    1
    98    98    96   ar
    99    56    53    1
   100    97    95   ar
   101   105   104    2
   102    53    54    1
   103   161   160    1
   104   161   162    1
   105   103   104    1
   106   103   102    1
   107    89    88    1
   108   160   151   am
   109    96    95   ar
   110    83    81   ar
   111   180   181   ar
   112   180   178   ar
   113    95    94    1
   114   147   146   ar
   115   148   146   ar
   116   155   157   ar
   117   155   154   ar
   118   146   145    1
   119   153   154    1
   120   153   150    1
   121   145   142    1
   122    54    55    2
   123   162   163    2
   124   162   172   am
   125   181   179   ar
   126   151   150    1
   127   151   152    2
   128   178   177   ar
   129   157   159   ar
   130    88    85    1
   131   154   156   ar
   132   149   150    1
   133   149   143   am
   134    81    80    1
   135    81    82   ar
   136   172   173    1
   137   123   121   ar
   138    94    91    1
   139    87    86    2
   140   142   143    1
   141   142   141    1
   142    80    77    1
   143   143   144    2
   144   179   177   ar
   145    91    90    1
   146    91    92    1
   147    86    90   am
   148    86    85    1
   149   177   176    1
   150   159   158   ar
   151   156   158   ar
   152    85    84    1
   153   121   120    1
   154   121   122   ar
   155   133   132    2
   156   173   176    1
   157   173   174    1
   158   129   128    1
   159   120   117    1
   160   128   125    1
   161   141   132   am
   162   127   126    2
   163    93    92    2
   164   132   131    1
   165    77    76    1
   166    77    78    1
   167   174   175    2
   168    79    78    2
   169   124   125    1
   170   126   125    1
   171   126   130   am
   172   117   116    1
   173   117   118    1
   174   130   131    1
   175   131   134    1
   176   118   119    2
   177   135   134    1
   178   135   136    1
   179   137   136    1
   180   137   138    2
   181   140   138    1
   182   138   139    1
