@<TRIPOS>MOLECULE
tmp/3kswA01.pdb
 169 158 0 0 0
SMALL
GASTEIGER

@<TRIPOS>ATOM
      1  N         -5.3480   20.0460   21.0380 N.3    74  TYR74      -0.1241
      2  CA        -4.8770   21.0250   21.9840 C.3    74  TYR74       0.1605
      3  C         -6.1130   21.7530   22.4630 C.2    74  TYR74       0.2264
      4  O         -6.6160   22.6300   21.7770 O.2    74  TYR74      -0.2867
      5  CB        -3.9830   22.0370   21.2830 C.3    74  TYR74       0.0534
      6  CG        -2.8440   21.4710   20.4600 C.ar   74  TYR74      -0.0201
      7  CD1       -1.8460   20.7300   21.0490 C.ar   74  TYR74      -0.0009
      8  CD2       -2.7510   21.7190   19.1030 C.ar   74  TYR74      -0.0009
      9  CE1       -0.8090   20.2310   20.3120 C.ar   74  TYR74       0.0417
     10  CE2       -1.7170   21.2230   18.3640 C.ar   74  TYR74       0.0417
     11  CZ        -0.7490   20.4810   18.9750 C.ar   74  TYR74       0.1957
     12  OH         0.3000   19.9740   18.2580 O.3    74  TYR74      -0.2866
     13  N         -6.1500   22.9030   26.3010 N.3    76  ILE76      -0.1231
     14  CA        -5.7420   23.4270   27.6010 C.3    76  ILE76       0.1692
     15  C         -5.2460   24.8460   27.4770 C.2    76  ILE76       0.2591
     16  O         -5.5130   25.6910   28.3310 O.2    76  ILE76      -0.2718
     17  CB        -4.6410   22.5580   28.2400 C.3    76  ILE76       0.0266
     18  CG1       -3.3820   22.5650   27.3700 C.3    76  ILE76       0.0019
     19  CG2       -5.1390   21.1370   28.4520 C.3    76  ILE76       0.0020
     20  CD1       -2.7400   23.9280   27.2330 C.3    76  ILE76       0.0001
     21  N         -4.5300   25.1060   26.3970 N.am   77  MET77      -0.1979
     22  CA        -4.0810   26.4450   26.1160 C.3    77  MET77       0.1605
     23  C         -5.3510   27.2640   25.9700 C.2    77  MET77       0.2287
     24  O         -5.3960   28.4320   26.3540 O.2    77  MET77      -0.2864
     25  CB        -3.2670   26.4850   24.8240 C.3    77  MET77       0.0413
     26  CG        -2.0240   25.6110   24.8450 C.3    77  MET77       0.0598
     27  SD        -1.0960   25.6830   23.3010 S.3    77  MET77      -0.1393
     28  CE        -2.3240   25.0890   22.1400 C.3    77  MET77       0.0692
     29  N         -5.0750   31.2500   26.7550 N.3    81  PHE81      -0.1241
     30  CA        -4.9400   32.5110   25.9810 C.3    81  PHE81       0.1605
     31  C         -5.9810   33.6000   26.1210 C.2    81  PHE81       0.2264
     32  O         -5.7020   34.7770   26.2600 O.2    81  PHE81      -0.2867
     33  CB        -4.7920   32.2010   24.5000 C.3    81  PHE81       0.0534
     34  CG        -3.5700   31.4230   24.1780 C.ar   81  PHE81      -0.0203
     35  CD1       -3.6600   30.2000   23.5530 C.ar   81  PHE81      -0.0042
     36  CD2       -2.3300   31.9050   24.5220 C.ar   81  PHE81      -0.0042
     37  CE1       -2.5350   29.4850   23.2700 C.ar   81  PHE81      -0.0003
     38  CE2       -1.2060   31.1950   24.2390 C.ar   81  PHE81      -0.0003
     39  CZ        -1.3050   29.9850   23.6100 C.ar   81  PHE81      -0.0000
     40  N        -10.6370   31.8750   21.3510 N.3    85  VAL85      -0.1231
     41  CA        -9.4660   32.1850   20.5440 C.3    85  VAL85       0.1692
     42  C         -9.2200   31.1270   19.4970 C.2    85  VAL85       0.2592
     43  O        -10.1290   30.4040   19.1220 O.2    85  VAL85      -0.2718
     44  CB        -8.2180   32.2690   21.3470 C.3    85  VAL85       0.0266
     45  CG1       -7.5010   30.9430   21.2480 C.3    85  VAL85       0.0020
     46  CG2       -7.3520   33.3640   20.7750 C.3    85  VAL85       0.0020
     47  N         -7.9800   31.0510   19.0320 N.am   86  ALA86      -0.1966
     48  CA        -7.6510   30.0840   18.0140 C.3    86  ALA86       0.1728
     49  C         -7.9360   28.7270   18.6150 C.2    86  ALA86       0.2616
     50  O         -7.5550   28.4350   19.7480 O.2    86  ALA86      -0.2715
     51  CB        -6.1910   30.2000   17.6200 C.3    86  ALA86       0.0334
     52  N         -8.6140   27.9000   17.8370 N.am   87  TYR87      -0.1974
     53  CA        -8.9700   26.5660   18.2570 C.3    87  TYR87       0.1639
     54  C        -10.1270   26.8430   19.1630 C.2    87  TYR87       0.2290
     55  O        -10.8110   25.9560   19.6500 O.2    87  TYR87      -0.2864
     56  CB        -7.8880   26.0010   19.1430 C.3    87  TYR87       0.0560
     57  CG        -6.5200   25.9790   18.5420 C.ar   87  TYR87      -0.0198
     58  CD1       -6.2460   26.6320   17.3690 C.ar   87  TYR87      -0.0009
     59  CD2       -5.4900   25.3210   19.1800 C.ar   87  TYR87      -0.0009
     60  CE1       -4.9850   26.6060   16.8370 C.ar   87  TYR87       0.0417
     61  CE2       -4.2390   25.2960   18.6660 C.ar   87  TYR87       0.0417
     62  CZ        -3.9860   25.9370   17.4980 C.ar   87  TYR87       0.1957
     63  OH        -2.7180   25.9020   16.9940 O.3    87  TYR87      -0.2866
     64  N        -10.5630   31.9600   12.5910 N.3    94  MET94      -0.1245
     65  CA        -9.2170   31.7610   13.0710 C.3    94  MET94       0.1570
     66  C         -8.2080   32.0000   11.9850 C.2    94  MET94       0.2261
     67  O         -7.2060   32.6620   12.1880 O.2    94  MET94      -0.2867
     68  CB        -9.0300   30.3440   13.5670 C.3    94  MET94       0.0387
     69  CG        -7.6080   30.0660   13.9340 C.3    94  MET94       0.0595
     70  SD        -7.2130   28.3390   13.7760 S.3    94  MET94      -0.1393
     71  CE        -7.1440   28.2130   12.0060 C.3    94  MET94       0.0692
     72  N         -7.0680   35.5210   11.6110 N.3    97  GLN97      -0.1231
     73  CA        -6.1990   36.1250   12.6250 C.3    97  GLN97       0.1698
     74  C         -4.7270   35.7630   12.4620 C.2    97  GLN97       0.2592
     75  O         -3.8510   36.5980   12.6890 O.2    97  GLN97      -0.2718
     76  CB        -6.6770   35.7770   14.0370 C.3    97  GLN97       0.0381
     77  CG        -7.8970   36.5680   14.4830 C.3    97  GLN97       0.0905
     78  CD        -8.3170   36.2450   15.9020 C.2    97  GLN97       0.2608
     79  OE1       -9.2920   36.7960   16.4130 O.2    97  GLN97      -0.2717
     80  NE2       -7.5810   35.3490   16.5490 N.am   97  GLN97      -0.0878
     81  N         -4.4570   34.5210   12.0740 N.am   98  LEU98      -0.1980
     82  CA        -3.0840   34.0790   11.8640 C.3    98  LEU98       0.1596
     83  C         -2.3340   35.0370   10.9510 C.2    98  LEU98       0.2287
     84  O         -1.1510   35.3060   11.1540 O.2    98  LEU98      -0.2864
     85  CB        -3.0520   32.6730   11.2640 C.3    98  LEU98       0.0297
     86  CG        -3.3080   31.5080   12.2200 C.3    98  LEU98       0.0022
     87  CD1       -2.9790   30.1860   11.5450 C.3    98  LEU98       0.0001
     88  CD2       -2.4950   31.6800   13.4920 C.3    98  LEU98       0.0001
     89  N         -0.9780   38.5020   12.4060 N.3   101  LEU101     -0.1245
     90  CA         0.1940   38.2470   13.2260 C.3   101  LEU101      0.1561
     91  C          1.4180   37.9710   12.3590 C.2   101  LEU101      0.2260
     92  O          2.5110   38.4570   12.6420 O.2   101  LEU101     -0.2867
     93  CB        -0.0680   37.0630   14.1600 C.3   101  LEU101      0.0270
     94  CG         0.9790   36.7730   15.2370 C.3   101  LEU101      0.0019
     95  CD1        1.1970   37.9990   16.1110 C.3   101  LEU101      0.0001
     96  CD2        0.5590   35.5780   16.0800 C.3   101  LEU101      0.0001
     97  N         -0.0280   24.4380   33.5840 N.3   179  LEU179     -0.1245
     98  CA         0.0930   23.2300   32.7920 C.3   179  LEU179      0.1561
     99  C         -0.0260   21.9810   33.6260 C.2   179  LEU179      0.2260
    100  O          0.5720   21.8620   34.6890 O.2   179  LEU179     -0.2867
    101  CB         1.4080   23.2040   32.0390 C.3   179  LEU179      0.0270
    102  CG         1.2850   23.9740   30.7380 C.3   179  LEU179      0.0019
    103  CD1        1.7620   23.0830   29.6050 C.3   179  LEU179      0.0001
    104  CD2       -0.1710   24.3330   30.5430 C.3   179  LEU179      0.0001
    105  N         -3.5040   37.7790   21.4610 N.3   251  MET251     -0.1245
    106  CA        -2.4770   37.6390   20.4310 C.3   251  MET251      0.1570
    107  C         -1.0820   37.9610   20.9660 C.2   251  MET251      0.2261
    108  O         -0.1240   37.2250   20.7200 O.2   251  MET251     -0.2867
    109  CB        -2.7970   38.5320   19.2280 C.3   251  MET251      0.0387
    110  CG        -4.0890   38.1770   18.5010 C.3   251  MET251      0.0595
    111  SD        -3.9810   36.6670   17.5150 S.3   251  MET251     -0.1393
    112  CE        -2.7490   37.1390   16.3030 C.3   251  MET251      0.0692
    113  N          0.3230   35.2840   23.1450 N.3   254  ALA254     -0.1245
    114  CA         0.6940   34.1670   22.2830 C.3   254  ALA254      0.1562
    115  C          2.1140   34.3400   21.7620 C.2   254  ALA254      0.2260
    116  O          2.9580   33.4620   21.9290 O.2   254  ALA254     -0.2867
    117  CB        -0.2850   34.0350   21.1260 C.3   254  ALA254      0.0290
    118  N          4.5950   33.9650   24.6330 N.3   257  PHE257     -0.1227
    119  CA         4.5790   32.6460   25.2530 C.3   257  PHE257      0.1736
    120  C          5.3530   31.6130   24.4360 C.2   257  PHE257      0.2595
    121  O          6.0440   30.7600   24.9940 O.2   257  PHE257     -0.2718
    122  CB         3.1400   32.1670   25.4560 C.3   257  PHE257      0.0547
    123  CG         3.0270   30.9400   26.3160 C.ar  257  PHE257     -0.0202
    124  CD1        2.3300   30.9780   27.5150 C.ar  257  PHE257     -0.0042
    125  CD2        3.6270   29.7510   25.9340 C.ar  257  PHE257     -0.0042
    126  CE1        2.2280   29.8510   28.3140 C.ar  257  PHE257     -0.0003
    127  CE2        3.5310   28.6200   26.7290 C.ar  257  PHE257     -0.0003
    128  CZ         2.8310   28.6710   27.9200 C.ar  257  PHE257     -0.0000
    129  N          5.2340   31.6880   23.1140 N.am  258  ALA258     -0.1980
    130  CA         5.8300   30.6820   22.2400 C.3   258  ALA258      0.1597
    131  C          7.3530   30.7860   22.1440 C.2   258  ALA258      0.2287
    132  O          8.0520   29.7730   22.1230 O.2   258  ALA258     -0.2864
    133  CB         5.2030   30.7470   20.8540 C.3   258  ALA258      0.0319
    134  N         11.6100   27.7590   23.6860 N.3   262  THR262     -0.1218
    135  CA        12.1970   27.0870   22.5340 C.3   262  THR262      0.1862
    136  C         13.5130   27.7070   22.0670 C.2   262  THR262      0.2287
    137  O         14.4640   26.9890   21.7500 O.2   262  THR262     -0.2866
    138  CB        11.2090   27.0370   21.3650 C.3   262  THR262      0.1770
    139  OG1       10.6860   28.3510   21.1340 O.3   262  THR262     -0.2211
    140  CG2       10.0620   26.0810   21.6850 C.3   262  THR262      0.0375
    141  N         10.5790   19.8770   20.7110 N.3   323  LEU323     -0.1245
    142  CA         9.2050   19.4370   20.7940 C.3   323  LEU323      0.1561
    143  C          9.0730   17.9630   20.5000 C.2   323  LEU323      0.2260
    144  O          9.4200   17.5140   19.4300 O.2   323  LEU323     -0.2867
    145  CB         8.3930   20.2270   19.7930 C.3   323  LEU323      0.0270
    146  CG         7.2040   20.9410   20.3980 C.3   323  LEU323      0.0019
    147  CD1        6.9870   22.2630   19.7160 C.3   323  LEU323      0.0001
    148  CD2        5.9790   20.0740   20.3290 C.3   323  LEU323      0.0001
    149  N          5.5170   26.6880   11.0620 N.3   389  CYS389     -0.1235
    150  CA         5.8620   27.6930   12.0720 C.3   389  CYS389      0.1677
    151  C          6.1840   29.0540   11.4560 C.2   389  CYS389      0.2270
    152  O          6.7260   29.1350   10.3570 O.2   389  CYS389     -0.2867
    153  CB         7.0310   27.2090   12.9320 C.3   389  CYS389      0.0956
    154  SG         7.5790   28.3810   14.1940 S.3   389  CYS389     -0.0801
    155  N          7.4950   18.9610   29.2920 N.3   427  MET427     -0.1230
    156  CA         6.8050   18.7640   28.0170 C.3   427  MET427      0.1702
    157  C          7.6080   19.3250   26.8410 C.2   427  MET427      0.2592
    158  O          7.5790   18.7740   25.7360 O.2   427  MET427     -0.2718
    159  CB         5.4060   19.3860   28.0660 C.3   427  MET427      0.0401
    160  CG         5.3580   20.7780   28.6820 C.3   427  MET427      0.0596
    161  SD         3.6700   21.3810   28.8890 S.3   427  MET427     -0.1393
    162  CE         3.0630   21.2770   27.2050 C.3   427  MET427      0.0692
    163  N          8.3130   20.4250   27.0910 N.am  428  VAL428     -0.1980
    164  CA         9.2480   20.9970   26.1280 C.3   428  VAL428      0.1595
    165  C         10.6700   20.6420   26.5650 C.2   428  VAL428      0.2287
    166  O         11.1860   21.2000   27.5320 O.2   428  VAL428     -0.2864
    167  CB         9.0830   22.5250   26.0390 C.3   428  VAL428      0.0276
    168  CG1       10.1210   23.1270   25.1040 C.3   428  VAL428      0.0022
    169  CG2        7.6760   22.8760   25.5800 C.3   428  VAL428      0.0022
@<TRIPOS>BOND
     1   152   151    2
     2    83    84    2
     3    83    82    1
     4   149   150    1
     5    85    82    1
     6    85    86    1
     7   151   150    1
     8    87    86    1
     9    72    73    1
    10    82    81    1
    11    66    67    2
    12    66    65    1
    13    71    70    1
    14   150   153    1
    15    81    74   am
    16    86    88    1
    17    91    92    2
    18    91    90    1
    19    89    90    1
    20    74    73    1
    21    74    75    2
    22    64    65    1
    23    73    76    1
    24   153   154    1
    25    65    68    1
    26    90    93    1
    27    68    69    1
    28    70    69    1
    29    76    77    1
    30    93    94    1
    31    77    78    1
    32    94    96    1
    33    94    95    1
    34    78    79    2
    35    78    80   am
    36   112   111    1
    37    60    58   ar
    38    60    62   ar
    39    63    62    1
    40    58    57   ar
    41    62    61   ar
    42   111   110    1
    43    51    48    1
    44    52    53    1
    45    52    49   am
    46    48    49    1
    47    48    47    1
    48    53    56    1
    49    53    54    1
    50    12    11    1
    51    10    11   ar
    52    10     8   ar
    53   110   109    1
    54    57    56    1
    55    57    59   ar
    56    49    50    2
    57    61    59   ar
    58    11     9   ar
    59    47    42   am
    60     8     6   ar
    61    43    42    2
    62    54    55    2
    63   109   106    1
    64   144   143    2
    65    42    41    1
    66   147   146    1
    67   145   146    1
    68   145   142    1
    69     9     7   ar
    70   148   146    1
    71   106   107    1
    72   106   105    1
    73     6     7   ar
    74     6     5    1
    75   143   142    1
    76    41    44    1
    77    41    40    1
    78   141   142    1
    79   108   107    2
    80    46    44    1
    81   133   130    1
    82     1     2    1
    83   117   114    1
    84   139   138    1
    85    45    44    1
    86     5     2    1
    87   138   140    1
    88   138   135    1
    89   137   136    2
    90   115   116    2
    91   115   114    1
    92     4     3    2
    93     2     3    1
    94   136   135    1
    95   132   131    2
    96    28    27    1
    97   131   130    1
    98   130   129    1
    99   114   113    1
   100   135   134    1
   101   129   120   am
   102    37    35   ar
   103    37    39   ar
   104    27    26    1
   105    35    34   ar
   106    39    38   ar
   107    34    33    1
   108    34    36   ar
   109    38    36   ar
   110   120   121    2
   111   120   119    1
   112    33    30    1
   113   118   119    1
   114    25    26    1
   115    25    22    1
   116   168   167    1
   117   119   122    1
   118   122   123    1
   119   169   167    1
   120   158   157    2
   121   125   123   ar
   122   125   127   ar
   123    23    22    1
   124    23    24    2
   125    30    31    1
   126    30    29    1
   127   167   164    1
   128    22    21    1
   129    31    32    2
   130   164   165    1
   131   164   163    1
   132    13    14    1
   133   123   124   ar
   134    21    15   am
   135   165   166    2
   136   127   128   ar
   137   157   163   am
   138   157   156    1
   139   162   161    1
   140    20    18    1
   141    18    17    1
   142    15    14    1
   143    15    16    2
   144   124   126   ar
   145    14    17    1
   146   128   126   ar
   147   156   159    1
   148   156   155    1
   149   159   160    1
   150    17    19    1
   151   160   161    1
   152   103   102    1
   153   104   102    1
   154   102   101    1
   155   101    98    1
   156    98    97    1
   157    98    99    1
   158    99   100    2
