@<TRIPOS>MOLECULE
tmp/3ksxA00.pdb
 126 119 0 0 0
SMALL
GASTEIGER

@<TRIPOS>ATOM
      1  N         12.4820    2.0290    9.4990 N.3    12  GLN12      -0.1245
      2  CA        12.2550    3.1370    8.6120 C.3    12  GLN12       0.1566
      3  C         11.7420    4.2470    9.5120 C.2    12  GLN12       0.2260
      4  O         10.8440    4.0130   10.2970 O.2    12  GLN12      -0.2867
      5  CB        11.1480    2.7950    7.5770 C.3    12  GLN12       0.0367
      6  CG        11.5880    1.6730    6.6560 C.3    12  GLN12       0.0905
      7  CD        10.5720    1.3600    5.5900 C.2    12  GLN12       0.2608
      8  OE1       10.0870    2.2390    4.8960 O.2    12  GLN12      -0.2717
      9  NE2       10.2460    0.1120    5.4770 N.am   12  GLN12      -0.0878
     10  N          9.8300    6.6230    8.8320 N.3    14  ALA14      -0.1231
     11  CA         8.3920    6.7720    8.6330 C.3    14  ALA14       0.1694
     12  C          7.4880    6.0820    9.6560 C.2    14  ALA14       0.2591
     13  O          6.3400    6.5370    9.9100 O.2    14  ALA14      -0.2718
     14  CB         7.9840    6.3270    7.1600 C.3    14  ALA14       0.0304
     15  N          7.9640    4.9630   10.2080 N.am   15  VAL15      -0.1980
     16  CA         7.1320    4.1160   11.0510 C.3    15  VAL15       0.1595
     17  C          7.3150    4.6840   12.4360 C.2    15  VAL15       0.2287
     18  O          8.2850    4.3130   13.1460 O.2    15  VAL15      -0.2864
     19  CB         7.5220    2.6220   11.0540 C.3    15  VAL15       0.0276
     20  CG1        6.4420    1.7900   11.8430 C.3    15  VAL15       0.0022
     21  CG2        7.7210    2.0640    9.6380 C.3    15  VAL15       0.0022
     22  N         13.7860    3.0610    2.9310 N.3    43  ALA43      -0.1231
     23  CA        12.5420    2.3810    2.5850 C.3    43  ALA43       0.1694
     24  C         12.7880    0.8730    2.7110 C.2    43  ALA43       0.2593
     25  O         13.8360    0.4400    3.1410 O.2    43  ALA43      -0.2718
     26  CB        12.1300    2.7220    1.1030 C.3    43  ALA43       0.0304
     27  N         11.7650    0.0770    2.3900 N.am   44  GLY44      -0.1943
     28  CA        11.7570   -1.3890    2.6210 C.3    44  GLY44       0.1998
     29  C         12.6850   -2.2060    1.7660 C.2    44  GLY44       0.2480
     30  O         13.3190   -3.1370    2.2760 O.2    44  GLY44      -0.2729
     31  N         12.7830   -1.8960    0.4440 N.am   45  PRO45      -0.2726
     32  CA        13.6690   -2.6960   -0.3960 C.3    45  PRO45       0.1402
     33  C         15.1470   -2.6110    0.0720 C.2    45  PRO45       0.2269
     34  O         15.8010   -3.5960    0.0800 O.2    45  PRO45      -0.2865
     35  CB        13.5150   -2.0430   -1.7920 C.3    45  PRO45       0.0296
     36  CG        11.9900   -1.5270   -1.6950 C.3    45  PRO45       0.0237
     37  CD        12.0210   -0.9060   -0.3410 C.3    45  PRO45       0.0939
     38  N          8.8820   -3.8440    7.1080 N.3    61  ALA61      -0.1231
     39  CA         8.7290   -3.2930    5.7520 C.3    61  ALA61       0.1694
     40  C          7.2990   -3.4670    5.3120 C.2    61  ALA61       0.2592
     41  O          6.5230   -4.1970    5.9730 O.2    61  ALA61      -0.2718
     42  CB         9.6150   -4.0460    4.8250 C.3    61  ALA61       0.0304
     43  N          6.9890   -2.8690    4.1580 N.am   62  GLY62      -0.1957
     44  CA         5.7030   -3.0350    3.4070 C.3    62  GLY62       0.1869
     45  C          5.4420   -4.4730    2.9370 C.2    62  GLY62       0.2309
     46  O          6.2420   -5.3560    3.1150 O.2    62  GLY62      -0.2863
     47  N          8.1770   -5.3280   -0.4650 N.3    65  PRO65      -0.2116
     48  CA         9.6340   -5.5950   -0.4160 C.3    65  PRO65       0.1372
     49  C         10.0170   -7.0950   -0.2620 C.2    65  PRO65       0.2244
     50  O         10.8720   -7.5970   -1.0400 O.2    65  PRO65      -0.2868
     51  CB        10.1280   -4.7490    0.7290 C.3    65  PRO65       0.0268
     52  CG         9.1770   -3.4580    0.6470 C.3    65  PRO65       0.0207
     53  CD         7.8170   -4.1470    0.3470 C.3    65  PRO65       0.0892
     54  N          1.6120   -6.3800   10.2060 N.3    82  VAL82      -0.1245
     55  CA         1.3380   -5.0200   10.6050 C.3    82  VAL82       0.1561
     56  C          0.0920   -4.6560    9.7770 C.2    82  VAL82       0.2260
     57  O          0.1430   -4.6620    8.5440 O.2    82  VAL82      -0.2867
     58  CB         2.4910   -4.0530   10.1320 C.3    82  VAL82       0.0252
     59  CG1        2.1270   -2.6320   10.5110 C.3    82  VAL82       0.0019
     60  CG2        3.8680   -4.4350   10.7700 C.3    82  VAL82       0.0019
     61  N         -2.4580    0.7320    6.5480 N.3    85  THR85      -0.1218
     62  CA        -2.8020    2.1430    6.8320 C.3    85  THR85       0.1862
     63  C         -3.1040    2.8440    5.5210 C.2    85  THR85       0.2287
     64  O         -2.2560    3.5830    4.9620 O.2    85  THR85      -0.2866
     65  CB        -1.6430    2.8500    7.6310 C.3    85  THR85       0.1770
     66  OG1       -0.4430    2.6950    6.9340 O.3    85  THR85      -0.2211
     67  CG2       -1.4240    2.1920    8.9310 C.3    85  THR85       0.0375
     68  N         -2.6330    6.4850    4.5520 N.3    88  ALA88      -0.1231
     69  CA        -1.2800    6.9330    4.6010 C.3    88  ALA88       0.1694
     70  C         -0.5050    6.4970    3.3400 C.2    88  ALA88       0.2591
     71  O          0.6940    6.7230    3.2860 O.2    88  ALA88      -0.2718
     72  CB        -0.6120    6.4640    5.8550 C.3    88  ALA88       0.0304
     73  N         -1.1380    5.7680    2.3920 N.am   89  GLU89      -0.1979
     74  CA        -0.4660    5.3970    1.1260 C.3    89  GLU89       0.1602
     75  C         -1.1040    6.2140    0.0220 C.2    89  GLU89       0.2287
     76  O         -2.2980    6.0700   -0.2010 O.2    89  GLU89      -0.2864
     77  CB        -0.6400    3.9140    0.7240 C.3    89  GLU89       0.0415
     78  CG        -0.1450    2.9780    1.7750 C.3    89  GLU89       0.1163
     79  CD         1.3350    2.5480    1.5330 C.2    89  GLU89       0.3649
     80  OE1        2.0500    3.0360    0.5920 O.co2  89  GLU89      -0.2457
     81  OE2        1.7290    1.6270    2.2900 O.co2  89  GLU89      -0.2457
     82  N          8.3820   -1.2560   -3.4860 N.3   116  SER116     -0.1202
     83  CA         7.7940   -0.7480   -2.1800 C.3   116  SER116      0.2020
     84  C          6.2720   -0.8740   -2.1560 C.2   116  SER116      0.2619
     85  O          5.6240   -1.1830   -3.1520 O.2   116  SER116     -0.2717
     86  CB         8.1520    0.7400   -1.9440 C.3   116  SER116      0.2103
     87  OG         7.3480    1.5850   -2.7920 O.3   116  SER116     -0.2182
     88  N          5.6500   -0.7400   -0.9770 N.am  117  SER117     -0.1951
     89  CA         4.1800   -0.6440   -0.9640 C.3   117  SER117      0.1924
     90  C          3.5310    0.3370   -1.9560 C.2   117  SER117      0.2314
     91  O          2.4270    0.0810   -2.4230 O.2   117  SER117     -0.2863
     92  CB         3.6670   -0.2740    0.4580 C.3   117  SER117      0.2116
     93  OG         4.1170    1.0620    0.8430 O.3   117  SER117     -0.2180
     94  N          4.3200    7.4650    0.9260 N.3   161  TRP161     -0.1227
     95  CA         3.5230    7.2670    2.1300 C.3   161  TRP161      0.1737
     96  C          3.7890    8.4600    3.0660 C.2   161  TRP161      0.2595
     97  O          4.5560    9.3580    2.7330 O.2   161  TRP161     -0.2718
     98  CB         3.9550    5.9210    2.7340 C.3   161  TRP161      0.0564
     99  CG         5.4300    5.6570    2.7010 C.ar  161  TRP161      0.0003
    100  CD1        6.3470    5.9970    3.6250 C.ar  161  TRP161      0.0946
    101  CD2        6.1550    4.9850    1.6410 C.ar  161  TRP161      0.0152
    102  NE1        7.5920    5.5880    3.2230 N.ar  161  TRP161     -0.2442
    103  CE2        7.5130    4.9970    1.9940 C.ar  161  TRP161      0.0810
    104  CE3        5.7790    4.4110    0.4300 C.ar  161  TRP161      0.0012
    105  CZ2        8.4920    4.3580    1.2380 C.ar  161  TRP161      0.0191
    106  CZ3        6.7800    3.8530   -0.3700 C.ar  161  TRP161      0.0001
    107  CH2        8.1220    3.8530    0.0320 C.ar  161  TRP161      0.0015
    108  N          3.1230    8.4750    4.2230 N.am  162  ASP162     -0.1974
    109  CA         3.4450    9.3650    5.3360 C.3   162  ASP162      0.1709
    110  C          4.8600    9.1080    5.8920 C.2   162  ASP162      0.2293
    111  O          5.3150    7.9470    5.9810 O.2   162  ASP162     -0.2864
    112  CB         2.4390    9.2340    6.4770 C.3   162  ASP162      0.1436
    113  CG         1.3660   10.2730    6.4330 C.2   162  ASP162      0.3671
    114  OD1        1.5930   11.3820    5.9060 O.co2 162  ASP162     -0.2456
    115  OD2        0.2620    9.9610    6.9000 O.co2 162  ASP162     -0.2456
    116  N         -3.8300    7.0170   10.5670 N.3   247  ARG247     -0.1245
    117  CA        -3.5430    5.6480   10.9310 C.3   247  ARG247      0.1563
    118  C         -4.5390    5.1210   11.9250 C.2   247  ARG247      0.2260
    119  O         -4.5770    5.6540   13.0380 O.2   247  ARG247     -0.2867
    120  CB        -2.1970    5.5640   11.6400 C.3   247  ARG247      0.0307
    121  CG        -1.0060    5.8410   10.7920 C.3   247  ARG247      0.0489
    122  CD         0.1910    5.7920   11.6920 C.3   247  ARG247      0.2205
    123  NE         0.2820    4.5020   12.3580 N.pl3 247  ARG247     -0.0865
    124  CZ         0.8770    3.4520   11.8080 C.cat 247  ARG247      0.5346
    125  NH1        1.4340    3.5470   10.5810 N.pl3 247  ARG247      0.1354
    126  NH2        0.9120    2.3080   12.4740 N.pl3 247  ARG247      0.1354
@<TRIPOS>BOND
     1    82    83    1
     2    85    84    2
     3    87    86    1
     4    91    90    2
     5    83    84    1
     6    83    86    1
     7    84    88   am
     8    90    89    1
     9    35    36    1
    10    35    32    1
    11    36    37    1
    12    50    49    2
    13    88    89    1
    14    89    92    1
    15    47    48    1
    16    47    53    1
    17    48    49    1
    18    48    51    1
    19    32    33    1
    20    32    31    1
    21   106   107   ar
    22   106   104   ar
    23    37    31    1
    24    76    75    2
    25    75    74    1
    26   107   105   ar
    27    33    34    2
    28    53    52    1
    29   104   101   ar
    30    31    29   am
    31    92    93    1
    32    80    79   ar
    33    52    51    1
    34    77    74    1
    35    77    78    1
    36    94    95    1
    37    26    23    1
    38    74    73    1
    39   105   103   ar
    40    79    78    1
    41    79    81   ar
    42   101   103   ar
    43   101    99   ar
    44    29    30    2
    45    29    28    1
    46   103   102   ar
    47    95    98    1
    48    95    96    1
    49    27    28    1
    50    27    24   am
    51    73    70   am
    52    23    24    1
    53    23    22    1
    54    99    98    1
    55    99   100   ar
    56    24    25    2
    57    97    96    2
    58    45    46    2
    59    45    44    1
    60    96   108   am
    61   102   100   ar
    62    71    70    2
    63    70    69    1
    64    44    43    1
    65    43    40   am
    66   108   109    1
    67    68    69    1
    68    69    72    1
    69    42    39    1
    70     8     7    2
    71    64    63    2
    72    40    39    1
    73    40    41    2
    74   109   110    1
    75   109   112    1
    76     9     7   am
    77    63    62    1
    78     7     6    1
    79    39    38    1
    80   110   111    2
    81   114   113   ar
    82   113   112    1
    83   113   115   ar
    84    61    62    1
    85     6     5    1
    86    62    65    1
    87    66    65    1
    88    14    11    1
    89     5     2    1
    90    65    67    1
    91    57    56    2
    92     2     1    1
    93     2     3    1
    94    11    10    1
    95    11    12    1
    96     3     4    2
    97    21    19    1
    98    12    13    2
    99    12    15   am
   100    56    55    1
   101    58    59    1
   102    58    55    1
   103    58    60    1
   104    54    55    1
   105    15    16    1
   106   116   117    1
   107   125   124    1
   108   121   120    1
   109   121   122    1
   110   117   120    1
   111   117   118    1
   112    16    19    1
   113    16    17    1
   114    19    20    1
   115   122   123    1
   116   124   123    2
   117   124   126    1
   118   118   119    2
   119    17    18    2
