@<TRIPOS>MOLECULE
tmp/3kt7A00.pdb
 132 125 0 0 0
SMALL
GASTEIGER

@<TRIPOS>ATOM
      1  N        -44.6980  -20.7750  -40.5890 N.3   125  ASN125     -0.1240
      2  CA       -43.6680  -21.7910  -40.3770 C.3   125  ASN125      0.1653
      3  C        -44.0940  -23.1500  -40.8870 C.2   125  ASN125      0.2266
      4  O        -45.2830  -23.4490  -40.9470 O.2   125  ASN125     -0.2867
      5  CB       -43.3590  -21.8930  -38.8880 C.3   125  ASN125      0.1155
      6  CG       -42.8240  -20.5840  -38.3210 C.2   125  ASN125      0.2627
      7  OD1      -43.5450  -19.8390  -37.6630 O.2   125  ASN125     -0.2716
      8  ND2      -41.5740  -20.2890  -38.6080 N.am  125  ASN125     -0.0877
      9  N        -43.2000  -27.3540  -40.1650 N.3   127  TYR127     -0.1241
     10  CA       -42.5040  -28.3770  -39.4100 C.3   127  TYR127      0.1605
     11  C        -42.5130  -29.5970  -40.3220 C.2   127  TYR127      0.2264
     12  O        -43.5770  -30.0930  -40.6910 O.2   127  TYR127     -0.2867
     13  CB       -43.2400  -28.6860  -38.0960 C.3   127  TYR127      0.0534
     14  CG       -43.1400  -27.6310  -37.0040 C.ar  127  TYR127     -0.0201
     15  CD1      -43.7620  -26.3840  -37.1360 C.ar  127  TYR127     -0.0009
     16  CD2      -42.4530  -27.8950  -35.8190 C.ar  127  TYR127     -0.0009
     17  CE1      -43.6720  -25.4160  -36.1210 C.ar  127  TYR127      0.0417
     18  CE2      -42.3670  -26.9480  -34.8040 C.ar  127  TYR127      0.0417
     19  CZ       -42.9800  -25.7110  -34.9570 C.ar  127  TYR127      0.1957
     20  OH       -42.8840  -24.7820  -33.9400 O.3   127  TYR127     -0.2866
     21  N        -40.5630  -28.0050  -31.2870 N.3   133  LEU133     -0.1245
     22  CA       -40.3930  -26.8140  -30.4700 C.3   133  LEU133      0.1561
     23  C        -40.6030  -27.2120  -29.0160 C.2   133  LEU133      0.2260
     24  O        -41.6710  -27.7000  -28.6480 O.2   133  LEU133     -0.2867
     25  CB       -41.3720  -25.7150  -30.9060 C.3   133  LEU133      0.0270
     26  CG       -41.4550  -24.4510  -30.0440 C.3   133  LEU133      0.0019
     27  CD1      -40.0980  -23.7600  -29.8610 C.3   133  LEU133      0.0001
     28  CD2      -42.4540  -23.4940  -30.6650 C.3   133  LEU133      0.0001
     29  N        -42.1580  -24.0390  -23.5250 N.3   136  HIS136     -0.1241
     30  CA       -42.0400  -22.5940  -23.2930 C.3   136  HIS136      0.1621
     31  C        -43.4330  -22.0350  -22.9750 C.2   136  HIS136      0.2264
     32  O        -44.4290  -22.7430  -23.1390 O.2   136  HIS136     -0.2867
     33  CB       -41.4660  -21.9240  -24.5370 C.3   136  HIS136      0.0745
     34  CG       -42.3560  -22.0460  -25.7300 C.ar  136  HIS136      0.0817
     35  ND1      -42.5180  -23.2300  -26.4170 N.ar  136  HIS136     -0.2268
     36  CD2      -43.1770  -21.1480  -26.3240 C.ar  136  HIS136      0.1154
     37  CE1      -43.3900  -23.0520  -27.3940 C.ar  136  HIS136      0.1986
     38  NE2      -43.7960  -21.7950  -27.3660 N.ar  136  HIS136     -0.2212
     39  N        -44.6450  -18.6070  -23.9150 N.3   138  ASP138     -0.1239
     40  CA       -45.0790  -17.5190  -24.8070 C.3   138  ASP138      0.1674
     41  C        -45.0700  -16.1340  -24.1550 C.2   138  ASP138      0.2266
     42  O        -45.4800  -15.1650  -24.7880 O.2   138  ASP138     -0.2867
     43  CB       -46.4890  -17.7850  -25.3740 C.3   138  ASP138      0.1410
     44  CG       -46.4770  -18.5960  -26.6550 C.2   138  ASP138      0.3668
     45  OD1      -47.5060  -18.5670  -27.3560 O.co2 138  ASP138     -0.2456
     46  OD2      -45.4680  -19.2590  -26.9680 O.co2 138  ASP138     -0.2456
     47  N        -52.7660  -20.2970  -33.1220 N.3   148  ILE148     -0.1245
     48  CA       -52.1250  -20.9800  -34.2320 C.3   148  ILE148      0.1561
     49  C        -53.2140  -21.4970  -35.1540 C.2   148  ILE148      0.2260
     50  O        -54.0780  -22.2670  -34.7290 O.2   148  ILE148     -0.2867
     51  CB       -51.2450  -22.1770  -33.7870 C.3   148  ILE148      0.0252
     52  CG1      -50.3260  -21.8100  -32.6170 C.3   148  ILE148      0.0019
     53  CG2      -50.4180  -22.6620  -34.9710 C.3   148  ILE148      0.0019
     54  CD1      -50.8760  -22.1290  -31.2290 C.3   148  ILE148      0.0001
     55  N        -53.8450  -23.7430  -38.4440 N.3   150  TYR150     -0.1241
     56  CA       -53.1390  -24.8280  -39.1230 C.3   150  TYR150      0.1605
     57  C        -53.5770  -24.9740  -40.5660 C.2   150  TYR150      0.2264
     58  O        -54.7700  -24.9050  -40.8650 O.2   150  TYR150     -0.2867
     59  CB       -53.3330  -26.1360  -38.3520 C.3   150  TYR150      0.0534
     60  CG       -52.7850  -26.0480  -36.9500 C.ar  150  TYR150     -0.0201
     61  CD1      -53.6300  -25.8380  -35.8650 C.ar  150  TYR150     -0.0009
     62  CD2      -51.4150  -26.1420  -36.7100 C.ar  150  TYR150     -0.0009
     63  CE1      -53.1300  -25.7380  -34.5660 C.ar  150  TYR150      0.0417
     64  CE2      -50.9060  -26.0430  -35.4110 C.ar  150  TYR150      0.0417
     65  CZ       -51.7710  -25.8410  -34.3490 C.ar  150  TYR150      0.1957
     66  OH       -51.2730  -25.7420  -33.0650 O.3   150  TYR150     -0.2866
     67  N        -49.8850  -30.0120  -30.7850 N.3   166  LEU166     -0.1245
     68  CA       -49.6890  -28.9710  -29.7780 C.3   166  LEU166      0.1561
     69  C        -49.9430  -29.5980  -28.4120 C.2   166  LEU166      0.2260
     70  O        -51.0310  -30.1220  -28.1580 O.2   166  LEU166     -0.2867
     71  CB       -50.6430  -27.7890  -30.0140 C.3   166  LEU166      0.0270
     72  CG       -50.6760  -26.6920  -28.9430 C.3   166  LEU166      0.0019
     73  CD1      -49.3710  -25.8860  -28.9230 C.3   166  LEU166      0.0001
     74  CD2      -51.8860  -25.7750  -29.1500 C.3   166  LEU166      0.0001
     75  N        -46.3710  -24.9660  -23.0340 N.3   204  HIS204     -0.1226
     76  CA       -46.7670  -25.7780  -24.1680 C.3   204  HIS204      0.1752
     77  C        -45.5470  -26.0920  -25.0160 C.2   204  HIS204      0.2596
     78  O        -44.4790  -25.4800  -24.8650 O.2   204  HIS204     -0.2718
     79  CB       -47.8370  -25.0580  -25.0060 C.3   204  HIS204      0.0759
     80  CG       -47.3870  -23.7340  -25.5400 C.ar  204  HIS204      0.0818
     81  ND1      -47.2380  -22.6230  -24.7350 N.ar  204  HIS204     -0.2268
     82  CD2      -47.0370  -23.3460  -26.7880 C.ar  204  HIS204      0.1154
     83  CE1      -46.8110  -21.6090  -25.4660 C.ar  204  HIS204      0.1986
     84  NE2      -46.6850  -22.0190  -26.7160 N.ar  204  HIS204     -0.2212
     85  N        -45.7080  -27.0690  -25.8960 N.am  205  ASP205     -0.1974
     86  CA       -44.6810  -27.3770  -26.8610 C.3   205  ASP205      0.1709
     87  C        -45.3280  -27.9570  -28.1130 C.2   205  ASP205      0.2293
     88  O        -46.5560  -28.0860  -28.2100 O.2   205  ASP205     -0.2864
     89  CB       -43.5780  -28.2840  -26.2540 C.3   205  ASP205      0.1436
     90  CG       -43.8630  -29.7780  -26.3710 C.2   205  ASP205      0.3671
     91  OD1      -42.9120  -30.5640  -26.1260 O.co2 205  ASP205     -0.2456
     92  OD2      -44.9970  -30.1890  -26.6890 O.co2 205  ASP205     -0.2456
     93  N        -46.2050  -29.8130  -41.9940 N.3   214  ARG214     -0.1245
     94  CA       -47.1450  -29.1570  -41.0820 C.3   214  ARG214      0.1563
     95  C        -46.9490  -27.6550  -41.2590 C.2   214  ARG214      0.2260
     96  O        -46.0150  -27.0860  -40.7110 O.2   214  ARG214     -0.2867
     97  CB       -46.8560  -29.5860  -39.6330 C.3   214  ARG214      0.0307
     98  CG       -47.7680  -28.9950  -38.5150 C.3   214  ARG214      0.0489
     99  CD       -46.9660  -29.0010  -37.2180 C.3   214  ARG214      0.2205
    100  NE       -47.7150  -28.8690  -35.9670 N.pl3 214  ARG214     -0.0865
    101  CZ       -47.8100  -27.7550  -35.2450 C.cat 214  ARG214      0.5346
    102  NH1      -47.2480  -26.6200  -35.6640 N.pl3 214  ARG214      0.1354
    103  NH2      -48.4810  -27.7720  -34.0940 N.pl3 214  ARG214      0.1354
    104  N        -48.2060  -23.8310  -40.6610 N.3   216  SER216     -0.1217
    105  CA       -49.0420  -23.1050  -39.7100 C.3   216  SER216      0.1889
    106  C        -48.7860  -21.6130  -39.7620 C.2   216  SER216      0.2288
    107  O        -47.7120  -21.1690  -40.1730 O.2   216  SER216     -0.2866
    108  CB       -48.8130  -23.6090  -38.2840 C.3   216  SER216      0.2089
    109  OG       -47.4580  -23.4330  -37.8950 O.3   216  SER216     -0.2183
    110  N        -48.7450  -18.8500  -36.9110 N.3   218  GLN218     -0.1245
    111  CA       -48.7530  -18.5830  -35.4710 C.3   218  GLN218      0.1566
    112  C        -48.8680  -17.0780  -35.3130 C.2   218  GLN218      0.2260
    113  O        -48.2410  -16.3210  -36.0600 O.2   218  GLN218     -0.2867
    114  CB       -47.4630  -19.0980  -34.8030 C.3   218  GLN218      0.0367
    115  CG       -47.0610  -18.4320  -33.4510 C.3   218  GLN218      0.0905
    116  CD       -47.8270  -18.9630  -32.2340 C.2   218  GLN218      0.2608
    117  OE1      -48.6310  -18.2540  -31.6200 O.2   218  GLN218     -0.2717
    118  NE2      -47.5660  -20.2070  -31.8760 N.am  218  GLN218     -0.0878
    119  N        -50.0390  -13.6050  -32.3520 N.3   220  TRP220     -0.1241
    120  CA       -50.4480  -13.1130  -31.0450 C.3   220  TRP220      0.1605
    121  C        -51.3330  -11.8930  -31.1830 C.2   220  TRP220      0.2264
    122  O        -51.1290  -11.0590  -32.0710 O.2   220  TRP220     -0.2867
    123  CB       -49.2310  -12.7680  -30.1710 C.3   220  TRP220      0.0550
    124  CG       -48.4870  -13.9930  -29.7720 C.ar  220  TRP220      0.0003
    125  CD1      -48.7570  -14.8000  -28.7090 C.ar  220  TRP220      0.0946
    126  CD2      -47.3780  -14.5810  -30.4560 C.ar  220  TRP220      0.0152
    127  NE1      -47.8760  -15.8570  -28.6810 N.ar  220  TRP220     -0.2442
    128  CE2      -47.0180  -15.7470  -29.7420 C.ar  220  TRP220      0.0810
    129  CE3      -46.6550  -14.2400  -31.6060 C.ar  220  TRP220      0.0012
    130  CZ2      -45.9540  -16.5680  -30.1300 C.ar  220  TRP220      0.0191
    131  CZ3      -45.5950  -15.0620  -31.9960 C.ar  220  TRP220      0.0001
    132  CH2      -45.2590  -16.2100  -31.2570 C.ar  220  TRP220      0.0015
@<TRIPOS>BOND
     1    93    94    1
     2    95    94    1
     3    95    96    2
     4    94    97    1
     5     4     3    2
     6     3     2    1
     7    58    57    2
     8    12    11    2
     9   104   105    1
    10     1     2    1
    11    57    56    1
    12     2     5    1
    13    11    10    1
    14   107   106    2
    15     9    10    1
    16   106   105    1
    17   105   108    1
    18    97    98    1
    19    10    13    1
    20    56    55    1
    21    56    59    1
    22     5     6    1
    23     8     6   am
    24    98    99    1
    25    59    60    1
    26     6     7    2
    27   108   109    1
    28    13    14    1
    29    99   100    1
    30    15    14   ar
    31    15    17   ar
    32    14    16   ar
    33    60    62   ar
    34    60    61   ar
    35   110   111    1
    36    62    64   ar
    37    17    19   ar
    38   113   112    2
    39   100   101    2
    40    61    63   ar
    41    16    18   ar
    42   102   101    1
    43   111   112    1
    44   111   114    1
    45    64    65   ar
    46   101   103    1
    47    49    50    2
    48    49    48    1
    49    53    51    1
    50    19    18   ar
    51    19    20    1
    52   114   115    1
    53    63    65   ar
    54    65    66    1
    55    48    51    1
    56    48    47    1
    57    51    52    1
    58   115   116    1
    59    52    54    1
    60   119   120    1
    61   116   118   am
    62   116   117    2
    63   122   121    2
    64   131   129   ar
    65   131   132   ar
    66   129   126   ar
    67    21    22    1
    68   132   130   ar
    69   121   120    1
    70   120   123    1
    71    25    22    1
    72    25    26    1
    73    67    68    1
    74    28    26    1
    75    22    23    1
    76   126   124   ar
    77   126   128   ar
    78   123   124    1
    79   130   128   ar
    80    26    27    1
    81    71    68    1
    82    71    72    1
    83    68    69    1
    84   124   125   ar
    85   128   127   ar
    86    74    72    1
    87    23    24    2
    88    72    73    1
    89   125   127   ar
    90    69    70    2
    91    88    87    2
    92    87    86    1
    93    37    38   ar
    94    37    35   ar
    95    38    36   ar
    96    45    44   ar
    97    46    44   ar
    98    86    89    1
    99    86    85    1
   100    82    84   ar
   101    82    80   ar
   102    84    83   ar
   103    92    90   ar
   104    44    43    1
   105    35    34   ar
   106    90    89    1
   107    90    91   ar
   108    36    34   ar
   109    85    77   am
   110    34    33    1
   111    80    79    1
   112    80    81   ar
   113    83    81   ar
   114    43    40    1
   115    77    78    2
   116    77    76    1
   117    79    76    1
   118    40    41    1
   119    40    39    1
   120    42    41    2
   121    33    30    1
   122    76    75    1
   123    29    30    1
   124    30    31    1
   125    32    31    2
