@<TRIPOS>MOLECULE
tmp/3ktaC00.pdb
 123 118 0 0 0
SMALL
GASTEIGER

@<TRIPOS>ATOM
      1  N         27.2510   21.6370   55.5660 N.3    12  LYS12      -0.1231
      2  CA        27.4480   22.6040   56.6510 C.3    12  LYS12       0.1693
      3  C         26.4840   23.7890   56.5440 C.2    12  LYS12       0.2592
      4  O         25.2830   23.5940   56.5720 O.2    12  LYS12      -0.2718
      5  CB        28.9180   23.0230   56.7340 C.3    12  LYS12       0.0285
      6  CG        29.8420   21.8970   57.1930 C.3    12  LYS12       0.0035
      7  CD        31.2030   22.4600   57.5970 C.3    12  LYS12       0.0206
      8  CE        31.9070   21.5520   58.5710 C.3    12  LYS12       0.1093
      9  NZ        33.0700   22.2310   59.2070 N.3    12  LYS12      -0.1314
     10  N         26.9940   25.0160   56.4380 N.am   13  SER13      -0.1952
     11  CA        26.1220   26.1900   56.4690 C.3    13  SER13       0.1924
     12  C         25.4260   26.5370   55.1440 C.2    13  SER13       0.2314
     13  O         24.7140   27.5410   55.0550 O.2    13  SER13      -0.2863
     14  CB        26.9190   27.4050   56.9570 C.3    13  SER13       0.2116
     15  OG        27.9400   27.7400   56.0300 O.3    13  SER13      -0.2180
     16  N         32.2170   38.2350   56.2170 N.3    33  ALA33      -0.1231
     17  CA        32.2690   38.4420   57.6590 C.3    33  ALA33       0.1694
     18  C         32.6760   37.1750   58.4030 C.2    33  ALA33       0.2592
     19  O         32.4900   36.0620   57.9110 O.2    33  ALA33      -0.2718
     20  CB        30.9140   38.9300   58.1650 C.3    33  ALA33       0.0304
     21  N         33.2230   37.3470   59.6000 N.am   34  ASN34      -0.1960
     22  CA        33.4720   36.2120   60.4650 C.3    34  ASN34       0.1819
     23  C         32.1800   35.4170   60.6460 C.2    34  ASN34       0.2622
     24  O         31.1080   35.9920   60.8650 O.2    34  ASN34      -0.2715
     25  CB        34.0110   36.6790   61.8210 C.3    34  ASN34       0.1195
     26  CG        35.4220   37.2310   61.7330 C.2    34  ASN34       0.2630
     27  OD1       36.2070   36.8330   60.8750 O.2    34  ASN34      -0.2716
     28  ND2       35.7540   38.1500   62.6320 N.am   34  ASN34      -0.0877
     29  N         32.2840   34.0960   60.5340 N.am   35  GLY35      -0.1940
     30  CA        31.1510   33.2090   60.7110 C.3    35  GLY35       0.2014
     31  C         30.1980   33.1320   59.5340 C.2    35  GLY35       0.2640
     32  O         29.1040   32.5690   59.6510 O.2    35  GLY35      -0.2714
     33  N         30.5960   33.6710   58.3850 N.am   36  SER36      -0.1935
     34  CA        29.6800   33.7060   57.2420 C.3    36  SER36       0.2055
     35  C         29.6530   32.4300   56.3920 C.2    36  SER36       0.2644
     36  O         28.6780   32.2010   55.6520 O.2    36  SER36      -0.2714
     37  CB        29.9350   34.9320   56.3630 C.3    36  SER36       0.2130
     38  OG        31.2320   34.9010   55.7910 O.3    36  SER36      -0.2179
     39  N         30.7170   31.6250   56.4700 N.am   37  GLY37      -0.1939
     40  CA        30.7930   30.3790   55.7130 C.3    37  GLY37       0.2014
     41  C         32.0410   30.1900   54.8570 C.2    37  GLY37       0.2639
     42  O         32.0750   29.3150   53.9810 O.2    37  GLY37      -0.2714
     43  N         33.0660   30.9990   55.0960 N.am   38  LYS38      -0.1963
     44  CA        34.2560   30.9570   54.2390 C.3    38  LYS38       0.1728
     45  C         35.0590   29.6610   54.3900 C.2    38  LYS38       0.2617
     46  O         35.3040   28.9470   53.4020 O.2    38  LYS38      -0.2715
     47  CB        35.1620   32.1720   54.4650 C.3    38  LYS38       0.0311
     48  CG        34.4560   33.5050   54.2500 C.3    38  LYS38       0.0038
     49  CD        35.4420   34.6550   54.3980 C.3    38  LYS38       0.0206
     50  CE        36.0430   34.7240   55.7890 C.3    38  LYS38       0.1093
     51  NZ        35.0140   34.9010   56.8480 N.3    38  LYS38      -0.1314
     52  N         35.4580   29.3380   55.6190 N.am   39  SER39      -0.1936
     53  CA        36.2120   28.1050   55.8450 C.3    39  SER39       0.2055
     54  C         35.4090   26.8750   55.4600 C.2    39  SER39       0.2643
     55  O         35.9900   25.8600   55.0770 O.2    39  SER39      -0.2714
     56  CB        36.6470   28.0080   57.2990 C.3    39  SER39       0.2130
     57  OG        37.5460   29.0680   57.5740 O.3    39  SER39      -0.2179
     58  N         34.0850   26.9720   55.5630 N.am   40  ASN40      -0.1971
     59  CA        33.2470   25.8310   55.2020 C.3    40  ASN40       0.1688
     60  C         33.4470   25.4520   53.7260 C.2    40  ASN40       0.2292
     61  O         33.2750   24.2940   53.3410 O.2    40  ASN40      -0.2864
     62  CB        31.7820   26.1120   55.5060 C.3    40  ASN40       0.1181
     63  CG        31.4680   26.0780   56.9980 C.2    40  ASN40       0.2629
     64  OD1       32.2840   25.6450   57.8240 O.2    40  ASN40      -0.2716
     65  ND2       30.2660   26.5300   57.3460 N.am   40  ASN40      -0.0877
     66  N         36.7550   20.0420   61.3890 N.3    57  ARG57      -0.1245
     67  CA        36.0190   20.5560   62.5390 C.3    57  ARG57       0.1563
     68  C         34.7000   19.8280   62.7530 C.2    57  ARG57       0.2260
     69  O         33.6670   20.4520   62.9960 O.2    57  ARG57      -0.2867
     70  CB        35.7750   22.0640   62.4140 C.3    57  ARG57       0.0307
     71  CG        37.0610   22.8660   62.4190 C.3    57  ARG57       0.0489
     72  CD        36.7840   24.3230   62.1040 C.3    57  ARG57       0.2205
     73  NE        36.2290   24.4830   60.7660 N.pl3  57  ARG57      -0.0865
     74  CZ        35.4150   25.4690   60.4050 C.cat  57  ARG57       0.5346
     75  NH1       35.0180   26.3800   61.2950 N.pl3  57  ARG57       0.1354
     76  NH2       34.9760   25.5290   59.1580 N.pl3  57  ARG57       0.1354
     77  N         26.7100   14.6580   61.7380 N.3    62  SER62      -0.1202
     78  CA        25.7200   15.7300   61.7840 C.3    62  SER62       0.2020
     79  C         26.4000   17.0980   61.7050 C.2    62  SER62       0.2618
     80  O         25.7510   18.1110   61.4370 O.2    62  SER62      -0.2717
     81  CB        24.8410   15.6280   63.0390 C.3    62  SER62       0.2103
     82  OG        25.5660   15.9790   64.2040 O.3    62  SER62      -0.2182
     83  N         27.7090   17.1290   61.9410 N.am   63  ASP63      -0.1973
     84  CA        28.4470   18.3760   61.8080 C.3    63  ASP63       0.1709
     85  C         28.6280   18.7360   60.3440 C.2    63  ASP63       0.2293
     86  O         28.7170   19.9210   60.0010 O.2    63  ASP63      -0.2864
     87  CB        29.8060   18.2920   62.5030 C.3    63  ASP63       0.1436
     88  CG        29.6830   18.2560   64.0100 C.2    63  ASP63       0.3671
     89  OD1       28.7840   18.9360   64.5500 O.co2  63  ASP63      -0.2456
     90  OD2       30.4810   17.5480   64.6530 O.co2  63  ASP63      -0.2456
     91  N         26.4670   17.7540   57.9180 N.3    65  ILE65      -0.1231
     92  CA        25.1800   17.9340   57.2750 C.3    65  ILE65       0.1692
     93  C         24.4550   19.1490   57.8260 C.2    65  ILE65       0.2592
     94  O         24.3590   19.3200   59.0500 O.2    65  ILE65      -0.2718
     95  CB        24.2970   16.6660   57.4110 C.3    65  ILE65       0.0266
     96  CG1       25.0390   15.4500   56.8580 C.3    65  ILE65       0.0019
     97  CG2       22.9600   16.8840   56.7150 C.3    65  ILE65       0.0020
     98  CD1       24.2550   14.1380   56.9680 C.3    65  ILE65       0.0001
     99  N         23.9760   19.9990   56.9230 N.am   66  PHE66      -0.1962
    100  CA        23.2180   21.2070   57.2710 C.3    66  PHE66       0.1771
    101  C         22.1630   20.9130   58.3270 C.2    66  PHE66       0.2619
    102  O         21.3120   20.0410   58.1310 O.2    66  PHE66      -0.2715
    103  CB        22.5300   21.7810   56.0270 C.3    66  PHE66       0.0574
    104  CG        21.7030   23.0180   56.2900 C.ar   66  PHE66      -0.0200
    105  CD1       22.2990   24.1970   56.7080 C.ar   66  PHE66      -0.0042
    106  CD2       20.3280   23.0170   56.0560 C.ar   66  PHE66      -0.0042
    107  CE1       21.5370   25.3450   56.9350 C.ar   66  PHE66      -0.0003
    108  CE2       19.5630   24.1600   56.2750 C.ar   66  PHE66      -0.0003
    109  CZ        20.1660   25.3240   56.7170 C.ar   66  PHE66      -0.0000
    110  N         22.2100   21.6620   59.4290 N.am   67  ALA67      -0.1977
    111  CA        21.3030   21.4350   60.5540 C.3    67  ALA67       0.1597
    112  C         20.3890   22.6360   60.7920 C.2    67  ALA67       0.2287
    113  O         20.7360   23.7730   60.4630 O.2    67  ALA67      -0.2864
    114  CB        22.0970   21.1120   61.8100 C.3    67  ALA67       0.0319
    115  N         42.7490   27.1330   58.3160 N.3   137  GLN137     -0.1245
    116  CA        42.7900   28.2860   59.2150 C.3   137  GLN137      0.1566
    117  C         43.5590   27.9610   60.4890 C.2   137  GLN137      0.2260
    118  O         43.2950   26.9530   61.1510 O.2   137  GLN137     -0.2867
    119  CB        41.3720   28.7650   59.5540 C.3   137  GLN137      0.0367
    120  CG        41.3420   30.0650   60.3590 C.3   137  GLN137      0.0905
    121  CD        39.9620   30.6870   60.3650 C.2   137  GLN137      0.2608
    122  OE1       39.0830   30.2420   59.6570 O.2   137  GLN137     -0.2717
    123  NE2       39.7740   31.7330   61.1660 N.am  137  GLN137     -0.0878
@<TRIPOS>BOND
     1    61    60    2
     2    46    45    2
     3    60    59    1
     4    42    41    2
     5    44    45    1
     6    44    47    1
     7    44    43    1
     8    48    49    1
     9    48    47    1
    10    45    52   am
    11    49    50    1
    12    41    43   am
    13    41    40    1
    14    13    12    2
    15    55    54    2
    16    12    11    1
    17    59    62    1
    18    59    58    1
    19    54    58   am
    20    54    53    1
    21    62    63    1
    22     1     2    1
    23    52    53    1
    24    36    35    2
    25    40    39    1
    26    50    51    1
    27    38    37    1
    28    53    56    1
    29   103   104    1
    30   103   100    1
    31    15    14    1
    32   106   108   ar
    33   106   104   ar
    34    16    17    1
    35   108   109   ar
    36   104   105   ar
    37    37    34    1
    38    35    39   am
    39    35    34    1
    40    10    11    1
    41    10     3   am
    42    11    14    1
    43     3     4    2
    44     3     2    1
    45     2     5    1
    46   105   107   ar
    47    97    95    1
    48   109   107   ar
    49     5     6    1
    50    96    98    1
    51    96    95    1
    52    99   100    1
    53    99    93   am
    54    63    65   am
    55    63    64    2
    56     6     7    1
    57    34    33    1
    58   100   101    1
    59    92    95    1
    60    92    93    1
    61    92    91    1
    62    56    57    1
    63     7     8    1
    64    17    20    1
    65    17    18    1
    66    93    94    2
    67    19    18    2
    68   102   101    2
    69   115   116    1
    70   101   110   am
    71    33    31   am
    72    18    21   am
    73     8     9    1
    74    76    74    1
    75   116   119    1
    76   116   117    1
    77   110   111    1
    78    31    32    2
    79    31    30    1
    80   119   120    1
    81    21    22    1
    82   122   121    2
    83    86    85    2
    84    85    84    1
    85   120   121    1
    86   121   123   am
    87    74    73    2
    88    74    75    1
    89   113   112    2
    90    22    23    1
    91    22    25    1
    92   117   118    2
    93    29    23   am
    94    29    30    1
    95   111   112    1
    96   111   114    1
    97    23    24    2
    98    73    72    1
    99    27    26    2
   100    66    67    1
   101    80    79    2
   102    79    78    1
   103    79    83   am
   104    26    25    1
   105    26    28   am
   106    77    78    1
   107    78    81    1
   108    84    83    1
   109    84    87    1
   110    72    71    1
   111    70    71    1
   112    70    67    1
   113    87    88    1
   114    67    68    1
   115    68    69    2
   116    81    82    1
   117    88    89   ar
   118    88    90   ar
