@<TRIPOS>MOLECULE
tmp/3ktaB00.pdb
 73 68 0 0 0
SMALL
GASTEIGER

@<TRIPOS>ATOM
      1  N          8.9520   27.6390   17.0590 N.3    89  ASP89      -0.1225
      2  CA         9.9640   28.2170   16.1610 C.3    89  ASP89       0.1805
      3  C          9.3320   28.9280   14.9480 C.2    89  ASP89       0.2597
      4  O          8.8760   28.2790   14.0100 O.2    89  ASP89      -0.2718
      5  CB        10.8820   27.0970   15.6790 C.3    89  ASP89       0.1424
      6  CG        12.1510   27.6100   15.0150 C.2    89  ASP89       0.3668
      7  OD1       12.2220   28.8130   14.6630 O.co2  89  ASP89      -0.2456
      8  OD2       13.0860   26.7960   14.8700 O.co2  89  ASP89      -0.2456
      9  N          9.3010   30.2600   14.9930 N.am   90  GLU90      -0.1979
     10  CA         8.7400   31.0860   13.9230 C.3    90  GLU90       0.1602
     11  C          7.3190   30.6610   13.5140 C.2    90  GLU90       0.2287
     12  O          6.9980   30.5130   12.3350 O.2    90  GLU90      -0.2864
     13  CB         9.7160   31.2090   12.7440 C.3    90  GLU90       0.0415
     14  CG        11.0220   31.8440   13.1540 C.3    90  GLU90       0.1163
     15  CD        11.9110   32.2060   11.9890 C.2    90  GLU90       0.3649
     16  OE1       13.1230   31.9190   12.0670 O.co2  90  GLU90      -0.2457
     17  OE2       11.4110   32.8060   10.9950 O.co2  90  GLU90      -0.2457
     18  N         10.9980   31.3610   19.2130 N.3   119  ILE119     -0.1245
     19  CA        11.9150   31.9850   18.2720 C.3   119  ILE119      0.1561
     20  C         11.1130   32.8280   17.3000 C.2   119  ILE119      0.2260
     21  O         10.1260   32.3460   16.7450 O.2   119  ILE119     -0.2867
     22  CB        12.6680   30.9320   17.4710 C.3   119  ILE119      0.0252
     23  CG1       13.5460   30.0820   18.4010 C.3   119  ILE119      0.0019
     24  CG2       13.5090   31.6210   16.3860 C.3   119  ILE119      0.0019
     25  CD1       14.0210   28.7640   17.7860 C.3   119  ILE119      0.0001
     26  N         20.7060   35.8720   19.4890 N.3   133  VAL133     -0.1245
     27  CA        21.6350   34.9690   18.8180 C.3   133  VAL133      0.1561
     28  C         22.3500   35.6990   17.6700 C.2   133  VAL133      0.2260
     29  O         21.7310   36.4490   16.9070 O.2   133  VAL133     -0.2867
     30  CB        20.9080   33.7250   18.2540 C.3   133  VAL133      0.0252
     31  CG1       21.9000   32.7560   17.6390 C.3   133  VAL133      0.0019
     32  CG2       20.1050   33.0280   19.3450 C.3   133  VAL133      0.0019
     33  N         31.5660   31.9010   11.6990 N.3   137  GLY137     -0.1225
     34  CA        30.9620   30.5790   11.6350 C.3   137  GLY137      0.1811
     35  C         30.4110   30.0310   12.9440 C.2   137  GLY137      0.2280
     36  O         29.8960   28.9210   12.9720 O.2   137  GLY137     -0.2866
     37  N         27.9770   30.4580   16.4770 N.3   139  SER139     -0.1217
     38  CA        26.8400   31.1310   17.1100 C.3   139  SER139      0.1889
     39  C         27.1860   31.4890   18.5400 C.2   139  SER139      0.2288
     40  O         27.9340   30.7720   19.1970 O.2   139  SER139     -0.2866
     41  CB        25.6090   30.2250   17.1390 C.3   139  SER139      0.2089
     42  OG        25.1920   29.8500   15.8440 O.3   139  SER139     -0.2183
     43  N         11.3870   36.8890    6.0350 N.3   162  GLU162     -0.1231
     44  CA        10.3820   35.9720    6.5850 C.3   162  GLU162      0.1699
     45  C         10.6610   34.5110    6.2630 C.2   162  GLU162      0.2592
     46  O         11.2050   34.1840    5.2080 O.2   162  GLU162     -0.2718
     47  CB         8.9730   36.3580    6.1190 C.3   162  GLU162      0.0402
     48  CG         7.8590   35.5910    6.8250 C.3   162  GLU162      0.1161
     49  CD         6.4800   36.1570    6.5350 C.2   162  GLU162      0.3649
     50  OE1        6.2590   36.6410    5.4040 O.co2 162  GLU162     -0.2457
     51  OE2        5.6090   36.1100    7.4320 O.co2 162  GLU162     -0.2457
     52  N         10.2950   33.6380    7.1920 N.am  163  HIS163     -0.1962
     53  CA        10.3880   32.2010    6.9790 C.3   163  HIS163      0.1787
     54  C          9.6980   31.7900    5.6780 C.2   163  HIS163      0.2621
     55  O          8.6340   32.3120    5.3290 O.2   163  HIS163     -0.2715
     56  CB         9.7260   31.4540    8.1420 C.3   163  HIS163      0.0785
     57  CG         9.5450   29.9920    7.8800 C.ar  163  HIS163      0.0821
     58  ND1        8.3860   29.4630    7.3520 N.ar  163  HIS163     -0.2267
     59  CD2       10.3990   28.9530    8.0310 C.ar  163  HIS163      0.1154
     60  CE1        8.5320   28.1560    7.2000 C.ar  163  HIS163      0.1986
     61  NE2        9.7450   27.8230    7.6010 N.ar  163  HIS163     -0.2212
     62  N         10.3140   30.8590    4.9610 N.am  164  GLY164     -0.1940
     63  CA         9.7040   30.2950    3.7720 C.3   164  GLY164      0.2014
     64  C         10.1900   30.9040    2.4710 C.2   164  GLY164      0.2638
     65  O          9.7980   30.4530    1.3900 O.2   164  GLY164     -0.2714
     66  N         11.0340   31.9280    2.5650 N.am  165  ASN165     -0.1972
     67  CA        11.5350   32.6010    1.3680 C.3   165  ASN165      0.1688
     68  C         12.7550   31.9290    0.7770 C.2   165  ASN165      0.2292
     69  O         13.4200   31.1320    1.4470 O.2   165  ASN165     -0.2864
     70  CB        11.8530   34.0700    1.6500 C.3   165  ASN165      0.1181
     71  CG        10.6070   34.9320    1.7040 C.2   165  ASN165      0.2629
     72  OD1       10.3260   35.5820    2.7190 O.2   165  ASN165     -0.2716
     73  ND2        9.8430   34.9370    0.6120 N.am  165  ASN165     -0.0877
@<TRIPOS>BOND
     1    73    71   am
     2    68    67    1
     3    68    69    2
     4    67    70    1
     5    67    66    1
     6    65    64    2
     7    70    71    1
     8    71    72    2
     9    64    66   am
    10    64    63    1
    11    63    62    1
    12    62    54   am
    13    46    45    2
    14    55    54    2
    15    50    49   ar
    16    54    53    1
    17    43    44    1
    18    47    44    1
    19    47    48    1
    20    45    44    1
    21    45    52   am
    22    49    48    1
    23    49    51   ar
    24    53    52    1
    25    53    56    1
    26    60    58   ar
    27    60    61   ar
    28    58    57   ar
    29    61    59   ar
    30    57    59   ar
    31    57    56    1
    32    17    15   ar
    33    34    33    1
    34    34    35    1
    35    15    16   ar
    36    15    14    1
    37    12    11    2
    38    13    14    1
    39    13    10    1
    40    35    36    2
    41    11    10    1
    42    10     9    1
    43     4     3    2
    44     7     6   ar
    45     8     6   ar
    46     3     9   am
    47     3     2    1
    48     6     5    1
    49     5     2    1
    50    42    41    1
    51     2     1    1
    52    24    22    1
    53    37    38    1
    54    21    20    2
    55    29    28    2
    56    38    41    1
    57    38    39    1
    58    20    19    1
    59    22    19    1
    60    22    23    1
    61    31    30    1
    62    28    27    1
    63    25    23    1
    64    30    27    1
    65    30    32    1
    66    19    18    1
    67    39    40    2
    68    27    26    1
