@<TRIPOS>MOLECULE
tmp/3ktiE01.pdb
 157 144 0 0 0
SMALL
GASTEIGER

@<TRIPOS>ATOM
      1  N         58.9400   15.0640  -37.2860 N.3     2  ILE2       -0.1245
      2  CA        58.2860   16.3690  -37.3130 C.3     2  ILE2        0.1561
      3  C         59.2280   17.5100  -36.9270 C.2     2  ILE2        0.2260
      4  O         59.2260   18.5650  -37.5660 O.2     2  ILE2       -0.2867
      5  CB        57.0450   16.3970  -36.3800 C.3     2  ILE2        0.0252
      6  CG1       56.3470   17.7580  -36.4750 C.3     2  ILE2        0.0019
      7  CG2       57.4580   16.1020  -34.9480 C.3     2  ILE2        0.0019
      8  CD1       55.8020   18.0840  -37.8550 C.3     2  ILE2        0.0001
      9  N         61.7640   18.2790  -39.5240 N.3     5  ARG5       -0.1231
     10  CA        61.1610   19.0250  -40.6210 C.3     5  ARG5        0.1694
     11  C         61.0740   20.4990  -40.2300 C.2     5  ARG5        0.2591
     12  O         61.1510   21.3840  -41.0820 O.2     5  ARG5       -0.2718
     13  CB        59.7650   18.4720  -40.9210 C.3     5  ARG5        0.0321
     14  CG        59.1470   18.9670  -42.2210 C.3     5  ARG5        0.0489
     15  CD        59.9040   18.4770  -43.4520 C.3     5  ARG5        0.2205
     16  NE        59.8570   17.0230  -43.5960 N.pl3   5  ARG5       -0.0865
     17  CZ        60.3730   16.3560  -44.6260 C.cat   5  ARG5        0.5346
     18  NH1       60.9780   17.0130  -45.6080 N.pl3   5  ARG5        0.1354
     19  NH2       60.2850   15.0320  -44.6770 N.pl3   5  ARG5        0.1354
     20  N         60.9110   20.7520  -38.9330 N.am    6  LEU6       -0.1980
     21  CA        60.8340   22.1150  -38.4180 C.3     6  LEU6        0.1596
     22  C         62.2230   22.7380  -38.4280 C.2     6  LEU6        0.2287
     23  O         62.3750   23.9280  -38.6940 O.2     6  LEU6       -0.2864
     24  CB        60.2790   22.1170  -36.9890 C.3     6  LEU6        0.0297
     25  CG        58.8620   22.6600  -36.7770 C.3     6  LEU6        0.0022
     26  CD1       57.8920   21.9770  -37.7250 C.3     6  LEU6        0.0001
     27  CD2       58.4510   22.4370  -35.3280 C.3     6  LEU6        0.0001
     28  N         63.1870   24.2430  -41.5660 N.3     9  ASP9       -0.1239
     29  CA        62.6900   25.6090  -41.7030 C.3     9  ASP9        0.1674
     30  C         63.3650   26.5250  -40.6880 C.2     9  ASP9        0.2266
     31  O         62.8830   27.6240  -40.4050 O.2     9  ASP9       -0.2867
     32  CB        61.1730   25.6480  -41.4970 C.3     9  ASP9        0.1410
     33  CG        60.4030   25.1550  -42.7110 C.2     9  ASP9        0.3668
     34  OD1       59.1590   25.0690  -42.6310 O.co2   9  ASP9       -0.2456
     35  OD2       61.0400   24.8590  -43.7460 O.co2   9  ASP9       -0.2456
     36  N         63.7330   26.1950  -37.3940 N.3    11  ILE11      -0.1245
     37  CA        62.9520   26.3750  -36.1790 C.3    11  ILE11       0.1561
     38  C         63.5220   25.4000  -35.1570 C.2    11  ILE11       0.2260
     39  O         63.6420   24.2000  -35.4280 O.2    11  ILE11      -0.2867
     40  CB        61.4610   26.0330  -36.3790 C.3    11  ILE11       0.0252
     41  CG1       60.8000   27.0590  -37.3030 C.3    11  ILE11       0.0019
     42  CG2       60.7530   25.9950  -35.0200 C.3    11  ILE11       0.0019
     43  CD1       59.3340   26.7820  -37.5670 C.3    11  ILE11       0.0001
     44  N         70.4670   33.7250  -42.8770 N.3    40  LYS40      -0.1231
     45  CA        69.1160   33.2730  -42.5630 C.3    40  LYS40       0.1693
     46  C         68.7840   33.3530  -41.0740 C.2    40  LYS40       0.2591
     47  O         69.5570   32.9180  -40.2190 O.2    40  LYS40      -0.2718
     48  CB        68.9240   31.8400  -43.0650 C.3    40  LYS40       0.0285
     49  CG        68.0060   31.7120  -44.2750 C.3    40  LYS40       0.0035
     50  CD        66.5500   31.9450  -43.8910 C.3    40  LYS40       0.0206
     51  CE        65.6150   31.6380  -45.0520 C.3    40  LYS40       0.1093
     52  NZ        64.1820   31.7420  -44.6540 N.3    40  LYS40      -0.1314
     53  N         67.6180   33.9150  -40.7830 N.am   41  GLU41      -0.1979
     54  CA        67.1420   34.0790  -39.4200 C.3    41  GLU41       0.1602
     55  C         66.7950   32.7220  -38.7990 C.2    41  GLU41       0.2287
     56  O         66.4770   31.7670  -39.5100 O.2    41  GLU41      -0.2864
     57  CB        65.9160   34.9980  -39.4320 C.3    41  GLU41       0.0415
     58  CG        65.5110   35.5570  -38.0820 C.3    41  GLU41       0.1163
     59  CD        64.4630   36.6590  -38.2000 C.2    41  GLU41       0.3649
     60  OE1       64.7670   37.7110  -38.8100 O.co2  41  GLU41      -0.2457
     61  OE2       63.3370   36.4710  -37.6840 O.co2  41  GLU41      -0.2457
     62  N         64.5470   30.7410  -35.5760 N.3    43  SER43      -0.1217
     63  CA        63.4530   30.8910  -34.6220 C.3    43  SER43       0.1889
     64  C         63.5610   29.8760  -33.4940 C.2    43  SER43       0.2288
     65  O         63.7110   28.6750  -33.7360 O.2    43  SER43      -0.2866
     66  CB        62.0970   30.7180  -35.3160 C.3    43  SER43       0.2089
     67  OG        61.8410   31.7800  -36.2140 O.3    43  SER43      -0.2183
     68  N         61.4680   28.4290  -30.4760 N.3    45  TYR45      -0.1241
     69  CA        60.1420   28.3210  -29.8720 C.3    45  TYR45       0.1605
     70  C         60.3390   27.8450  -28.4340 C.2    45  TYR45       0.2264
     71  O         61.0400   26.8650  -28.1920 O.2    45  TYR45      -0.2867
     72  CB        59.2790   27.3190  -30.6450 C.3    45  TYR45       0.0534
     73  CG        58.8090   27.8160  -32.0030 C.ar   45  TYR45      -0.0201
     74  CD1       59.1910   29.0690  -32.4840 C.ar   45  TYR45      -0.0009
     75  CD2       57.9700   27.0380  -32.7980 C.ar   45  TYR45      -0.0009
     76  CE1       58.7440   29.5370  -33.7240 C.ar   45  TYR45       0.0417
     77  CE2       57.5190   27.4960  -34.0410 C.ar   45  TYR45       0.0417
     78  CZ        57.9090   28.7440  -34.4950 C.ar   45  TYR45       0.1957
     79  OH        57.4610   29.2040  -35.7140 O.3    45  TYR45      -0.2866
     80  N         65.0910   34.9670  -33.2270 N.3    71  SER71      -0.1217
     81  CA        63.8460   35.4580  -32.6610 C.3    71  SER71       0.1889
     82  C         63.3580   34.4050  -31.6890 C.2    71  SER71       0.2288
     83  O         63.7200   33.2380  -31.7950 O.2    71  SER71      -0.2866
     84  CB        62.8000   35.7050  -33.7580 C.3    71  SER71       0.2089
     85  OG        62.8560   34.7060  -34.7510 O.3    71  SER71      -0.2183
     86  N         59.8680   32.8560  -29.4240 N.3    73  ILE73      -0.1245
     87  CA        58.4190   32.8130  -29.2940 C.3    73  ILE73       0.1561
     88  C         58.0210   32.0180  -28.0600 C.2    73  ILE73       0.2260
     89  O         58.3820   30.8510  -27.9160 O.2    73  ILE73      -0.2867
     90  CB        57.7230   32.1440  -30.5110 C.3    73  ILE73       0.0252
     91  CG1       58.0510   32.8880  -31.8100 C.3    73  ILE73       0.0019
     92  CG2       56.2200   32.1790  -30.3090 C.3    73  ILE73       0.0019
     93  CD1       59.5040   32.7920  -32.2560 C.3    73  ILE73       0.0001
     94  N         55.4960   29.9580  -26.1980 N.3    75  ILE75      -0.1245
     95  CA        54.3120   29.1370  -26.4170 C.3    75  ILE75       0.1561
     96  C         53.9860   28.4220  -25.1040 C.2    75  ILE75       0.2260
     97  O         54.7850   27.6310  -24.6080 O.2    75  ILE75      -0.2867
     98  CB        54.5840   28.0770  -27.4980 C.3    75  ILE75       0.0252
     99  CG1       55.1100   28.7570  -28.7620 C.3    75  ILE75       0.0019
    100  CG2       53.3110   27.3070  -27.8090 C.3    75  ILE75       0.0019
    101  CD1       55.7630   27.7980  -29.7340 C.3    75  ILE75       0.0001
    102  N         62.1990   41.0260  -32.1910 N.3    93  LYS93      -0.1245
    103  CA        61.8140   39.7080  -32.6800 C.3    93  LYS93       0.1561
    104  C         61.4690   38.7330  -31.5480 C.2    93  LYS93       0.2260
    105  O         61.6500   37.5240  -31.6860 O.2    93  LYS93      -0.2867
    106  CB        62.9400   39.1240  -33.5390 C.3    93  LYS93       0.0271
    107  CG        63.3700   40.0040  -34.7080 C.3    93  LYS93       0.0035
    108  CD        62.3010   40.0740  -35.7840 C.3    93  LYS93       0.0206
    109  CE        62.0080   38.6870  -36.3400 C.3    93  LYS93       0.1093
    110  NZ        61.0260   38.7080  -37.4510 N.3    93  LYS93      -0.1314
    111  N         58.4990   37.1850  -29.4220 N.3    95  TYR95      -0.1241
    112  CA        57.0480   37.0240  -29.4430 C.3    95  TYR95       0.1605
    113  C         56.4310   36.1680  -28.3450 C.2    95  TYR95       0.2264
    114  O         57.1100   35.4050  -27.6680 O.2    95  TYR95      -0.2867
    115  CB        56.6130   36.4320  -30.7850 C.3    95  TYR95       0.0534
    116  CG        57.1930   37.1120  -32.0050 C.ar   95  TYR95      -0.0201
    117  CD1       58.4620   36.7810  -32.4750 C.ar   95  TYR95      -0.0009
    118  CD2       56.4590   38.0680  -32.7090 C.ar   95  TYR95      -0.0009
    119  CE1       58.9860   37.3790  -33.6200 C.ar   95  TYR95       0.0417
    120  CE2       56.9750   38.6750  -33.8590 C.ar   95  TYR95       0.0417
    121  CZ        58.2350   38.3230  -34.3060 C.ar   95  TYR95       0.1957
    122  OH        58.7450   38.8990  -35.4480 O.3    95  TYR95      -0.2866
    123  N         52.4230   34.0880  -27.5620 N.3    97  LEU97      -0.1245
    124  CA        51.0620   33.7980  -27.9880 C.3    97  LEU97       0.1561
    125  C         50.1220   34.4820  -27.0030 C.2    97  LEU97       0.2260
    126  O         50.4810   34.7120  -25.8480 O.2    97  LEU97      -0.2867
    127  CB        50.8200   32.2860  -28.0260 C.3    97  LEU97       0.0270
    128  CG        51.6090   31.6060  -29.1530 C.3    97  LEU97       0.0019
    129  CD1       51.4240   30.0880  -29.1180 C.3    97  LEU97       0.0001
    130  CD2       51.1430   32.1720  -30.4830 C.3    97  LEU97       0.0001
    131  N         56.2440   41.6850  -29.1770 N.3   170  LYS170     -0.1245
    132  CA        54.9170   41.6130  -29.7640 C.3   170  LYS170      0.1561
    133  C         54.1700   40.3210  -29.4550 C.2   170  LYS170      0.2260
    134  O         54.7700   39.2620  -29.2640 O.2   170  LYS170     -0.2867
    135  CB        55.0150   41.7980  -31.2860 C.3   170  LYS170      0.0271
    136  CG        53.6630   41.8540  -31.9970 C.3   170  LYS170      0.0035
    137  CD        53.8020   42.2590  -33.4630 C.3   170  LYS170      0.0206
    138  CE        52.4390   42.3340  -34.1540 C.3   170  LYS170      0.1093
    139  NZ        51.8080   40.9920  -34.3170 N.3   170  LYS170     -0.1314
    140  N         51.4340   37.5830  -30.8170 N.3   172  LEU172     -0.1245
    141  CA        50.8580   37.0670  -32.0550 C.3   172  LEU172      0.1561
    142  C         49.3850   36.8090  -31.7710 C.2   172  LEU172      0.2260
    143  O         49.0080   36.5980  -30.6210 O.2   172  LEU172     -0.2867
    144  CB        51.5370   35.7560  -32.4460 C.3   172  LEU172      0.0270
    145  CG        53.0600   35.7920  -32.5310 C.3   172  LEU172      0.0019
    146  CD1       53.5920   34.4010  -32.8400 C.3   172  LEU172      0.0001
    147  CD2       53.4830   36.7830  -33.5960 C.3   172  LEU172      0.0001
    148  N         46.5010   36.0840  -34.8660 N.3   174  HIS174     -0.1241
    149  CA        45.8660   35.3300  -35.9380 C.3   174  HIS174      0.1621
    150  C         46.5540   35.5390  -37.2860 C.2   174  HIS174      0.2264
    151  O         47.6730   36.0970  -37.2950 O.2   174  HIS174     -0.2867
    152  CB        44.3880   35.7320  -36.0220 C.3   174  HIS174      0.0745
    153  CG        44.1520   37.2050  -35.8550 C.ar  174  HIS174      0.0817
    154  ND1       42.9960   37.7160  -35.3080 N.ar  174  HIS174     -0.2268
    155  CD2       44.9310   38.2740  -36.1550 C.ar  174  HIS174      0.1154
    156  CE1       43.0730   39.0360  -35.2720 C.ar  174  HIS174      0.1986
    157  NE2       44.2360   39.3990  -35.7800 N.ar  174  HIS174     -0.2212
@<TRIPOS>BOND
     1    18    17    1
     2    51    52    1
     3    51    50    1
     4    19    17    1
     5    17    16    2
     6    49    50    1
     7    49    48    1
     8    35    33   ar
     9    16    15    1
    10    15    14    1
    11    48    45    1
    12    44    45    1
    13    33    34   ar
    14    33    32    1
    15    45    46    1
    16    14    13    1
    17    29    28    1
    18    29    32    1
    19    29    30    1
    20    12    11    2
    21    46    53   am
    22    46    47    2
    23    13    10    1
    24    53    54    1
    25    30    31    2
    26    10    11    1
    27    10     9    1
    28    11    20   am
    29    56    55    2
    30    57    54    1
    31    57    58    1
    32    54    55    1
    33    20    21    1
    34    60    59   ar
    35    23    22    2
    36    22    21    1
    37    21    24    1
    38    59    58    1
    39    59    61   ar
    40     8     6    1
    41    26    25    1
    42    43    41    1
    43     4     3    2
    44   110   109    1
    45    36    37    1
    46     2     1    1
    47     2     3    1
    48     2     5    1
    49    41    40    1
    50   151   150    2
    51   150   149    1
    52    24    25    1
    53    25    27    1
    54     6     5    1
    55     5     7    1
    56    40    37    1
    57    40    42    1
    58   109   108    1
    59    67    66    1
    60    37    38    1
    61   155   153   ar
    62   155   157   ar
    63   152   149    1
    64   152   153    1
    65   149   148    1
    66   153   154   ar
    67   108   107    1
    68   157   156   ar
    69    79    78    1
    70    62    63    1
    71   122   121    1
    72    39    38    2
    73    66    63    1
    74   154   156   ar
    75    85    84    1
    76   107   106    1
    77    63    64    1
    78    78    77   ar
    79    78    76   ar
    80   139   138    1
    81   121   120   ar
    82   121   119   ar
    83   138   137    1
    84    77    75   ar
    85   120   118   ar
    86    84    81    1
    87    65    64    2
    88    76    74   ar
    89   119   117   ar
    90   147   145    1
    91   106   103    1
    92   137   136    1
    93    80    81    1
    94   146   145    1
    95    75    73   ar
    96   118   116   ar
    97   103   102    1
    98   103   104    1
    99    81    82    1
   100   145   144    1
   101    74    73   ar
   102   117   116   ar
   103   144   141    1
   104    93    91    1
   105   141   142    1
   106   141   140    1
   107   116   115    1
   108    73    72    1
   109   136   135    1
   110    91    90    1
   111    83    82    2
   112   142   143    2
   113   105   104    2
   114   135   132    1
   115   115   112    1
   116    72    69    1
   117    90    92    1
   118    90    87    1
   119   130   128    1
   120    68    69    1
   121    69    70    1
   122   132   133    1
   123   132   131    1
   124   101    99    1
   125   133   134    2
   126   112   111    1
   127   112   113    1
   128    86    87    1
   129    87    88    1
   130   128   129    1
   131   128   127    1
   132    99    98    1
   133    70    71    2
   134   113   114    2
   135    88    89    2
   136   127   124    1
   137   124   123    1
   138   124   125    1
   139   100    98    1
   140    98    95    1
   141   125   126    2
   142    95    94    1
   143    95    96    1
   144    96    97    2
