@<TRIPOS>MOLECULE
tmp/3ktkT00.pdb
 140 129 0 0 0
SMALL
GASTEIGER

@<TRIPOS>ATOM
      1  N        -14.6170  -10.7080   38.7780 N.3     5  ARG5       -0.1231
      2  CA       -15.6720  -10.9750   39.7390 C.3     5  ARG5        0.1694
      3  C        -16.1650  -12.4060   39.5450 C.2     5  ARG5        0.2591
      4  O        -16.4200  -13.1210   40.5160 O.2     5  ARG5       -0.2718
      5  CB       -16.8280   -9.9840   39.5490 C.3     5  ARG5        0.0321
      6  CG       -18.0130  -10.2300   40.4740 C.3     5  ARG5        0.0489
      7  CD       -17.5950  -10.1540   41.9350 C.3     5  ARG5        0.2205
      8  NE       -18.1770  -11.2350   42.7330 N.pl3   5  ARG5       -0.0865
      9  CZ       -19.4780  -11.3840   42.9600 C.cat   5  ARG5        0.5346
     10  NH1      -20.3460  -10.5170   42.4480 N.pl3   5  ARG5        0.1354
     11  NH2      -19.9140  -12.3920   43.7040 N.pl3   5  ARG5        0.1354
     12  N        -16.2940  -12.8220   38.2870 N.am    6  LEU6       -0.1980
     13  CA       -16.7470  -14.1710   37.9750 C.3     6  LEU6        0.1596
     14  C        -15.7260  -15.1920   38.4470 C.2     6  LEU6        0.2287
     15  O        -16.0890  -16.2930   38.8690 O.2     6  LEU6       -0.2864
     16  CB       -16.9570  -14.3360   36.4700 C.3     6  LEU6        0.0297
     17  CG       -18.0650  -13.4990   35.8290 C.3     6  LEU6        0.0022
     18  CD1      -18.1600  -13.8180   34.3430 C.3     6  LEU6        0.0001
     19  CD2      -19.3810  -13.7940   36.5180 C.3     6  LEU6        0.0001
     20  N        -15.9850  -16.3590   41.8920 N.3     9  ASP9       -0.1225
     21  CA       -17.0110  -17.3630   42.1100 C.3     9  ASP9        0.1805
     22  C        -16.7710  -18.6190   41.2770 C.2     9  ASP9        0.2598
     23  O        -17.7060  -19.3400   40.9230 O.2     9  ASP9       -0.2718
     24  CB       -18.3920  -16.7770   41.8140 C.3     9  ASP9        0.1424
     25  CG       -18.9650  -16.0180   42.9990 C.2     9  ASP9        0.3668
     26  OD1      -19.4610  -16.6660   43.9490 O.co2   9  ASP9       -0.2456
     27  OD2      -18.9080  -14.7730   42.9880 O.co2   9  ASP9       -0.2456
     28  N        -15.5000  -18.8630   40.9650 N.am   10  ARG10      -0.1966
     29  CA       -15.0740  -20.0340   40.1950 C.3    10  ARG10       0.1729
     30  C        -15.6640  -20.1770   38.7900 C.2    10  ARG10       0.2616
     31  O        -16.0520  -21.2670   38.3770 O.2    10  ARG10      -0.2715
     32  CB       -15.3400  -21.2990   41.0170 C.3    10  ARG10       0.0348
     33  CG       -14.7350  -21.2220   42.4030 C.3    10  ARG10       0.0492
     34  CD       -15.1010  -22.4120   43.2380 C.3    10  ARG10       0.2205
     35  NE       -14.3440  -23.6110   42.8910 N.pl3  10  ARG10      -0.0865
     36  CZ       -13.0400  -23.7690   43.1080 C.cat  10  ARG10       0.5346
     37  NH1      -12.3250  -22.8050   43.6690 N.pl3  10  ARG10       0.1354
     38  NH2      -12.4490  -24.9050   42.7760 N.pl3  10  ARG10       0.1354
     39  N        -15.7180  -19.0680   38.0600 N.am   11  ILE11      -0.1977
     40  CA       -16.2300  -19.0800   36.6960 C.3    11  ILE11       0.1596
     41  C        -15.1680  -18.5420   35.7410 C.2    11  ILE11       0.2287
     42  O        -14.7270  -17.4030   35.8740 O.2    11  ILE11      -0.2864
     43  CB       -17.4880  -18.2010   36.5450 C.3    11  ILE11       0.0276
     44  CG1      -18.6250  -18.7600   37.3940 C.3    11  ILE11       0.0022
     45  CG2      -17.9060  -18.1330   35.0640 C.3    11  ILE11       0.0022
     46  CD1      -19.9090  -17.9430   37.3000 C.3    11  ILE11       0.0001
     47  N        -14.1780  -17.5300   31.8430 N.3    13  MET13      -0.1245
     48  CA       -14.8160  -17.1730   30.5730 C.3    13  MET13       0.1570
     49  C        -13.9170  -17.3980   29.3630 C.2    13  MET13       0.2261
     50  O        -12.8780  -16.7630   29.2410 O.2    13  MET13      -0.2867
     51  CB       -15.2530  -15.6970   30.5970 C.3    13  MET13       0.0387
     52  CG       -16.7600  -15.4630   30.4710 C.3    13  MET13       0.0595
     53  SD       -17.4850  -15.8450   28.8360 S.3    13  MET13      -0.1393
     54  CE       -19.0480  -15.1360   29.0290 C.3    13  MET13       0.0692
     55  N        -16.6540  -27.2950   42.4860 N.3    41  GLU41      -0.1245
     56  CA       -16.5570  -27.4010   41.0490 C.3    41  GLU41       0.1567
     57  C        -16.2560  -26.0430   40.4360 C.2    41  GLU41       0.2260
     58  O        -16.3880  -25.0020   41.0790 O.2    41  GLU41      -0.2867
     59  CB       -17.8410  -27.9890   40.4500 C.3    41  GLU41       0.0388
     60  CG       -18.9880  -27.0210   40.2700 C.3    41  GLU41       0.1160
     61  CD       -20.1180  -27.6160   39.4370 C.2    41  GLU41       0.3649
     62  OE1      -20.6610  -28.6620   39.8490 O.co2  41  GLU41      -0.2457
     63  OE2      -20.4610  -27.0430   38.3750 O.co2  41  GLU41      -0.2457
     64  N        -16.7470  -23.6050   36.8230 N.3    43  SER43      -0.1217
     65  CA       -17.5890  -23.4380   35.6470 C.3    43  SER43       0.1889
     66  C        -16.8470  -22.7390   34.5130 C.2    43  SER43       0.2288
     67  O        -16.3150  -21.6370   34.6830 O.2    43  SER43      -0.2866
     68  CB       -18.8540  -22.6430   36.0040 C.3    43  SER43       0.2089
     69  OG       -19.7970  -23.4370   36.7090 O.3    43  SER43      -0.2183
     70  N        -17.3890  -21.0480   31.0790 N.3    45  TYR45      -0.1241
     71  CA       -18.3820  -20.5390   30.1460 C.3    45  TYR45       0.1605
     72  C        -17.7280  -20.4140   28.7880 C.2    45  TYR45       0.2264
     73  O        -16.6630  -19.8160   28.6480 O.2    45  TYR45      -0.2867
     74  CB       -18.9260  -19.1820   30.5960 C.3    45  TYR45       0.0534
     75  CG       -19.8070  -19.2350   31.8240 C.ar   45  TYR45      -0.0201
     76  CD1      -20.1630  -20.4510   32.4040 C.ar   45  TYR45      -0.0009
     77  CD2      -20.2910  -18.0650   32.4050 C.ar   45  TYR45      -0.0009
     78  CE1      -20.9840  -20.4990   33.5380 C.ar   45  TYR45       0.0417
     79  CE2      -21.1070  -18.0980   33.5320 C.ar   45  TYR45       0.0417
     80  CZ       -21.4530  -19.3150   34.0950 C.ar   45  TYR45       0.1957
     81  OH       -22.2730  -19.3490   35.2010 O.3    45  TYR45      -0.2866
     82  N        -17.5960  -27.9300   34.8790 N.3    71  SER71      -0.1217
     83  CA       -18.8260  -27.9280   34.1080 C.3    71  SER71       0.1889
     84  C        -18.6610  -26.8890   33.0100 C.2    71  SER71       0.2288
     85  O        -17.9740  -25.8810   33.1790 O.2    71  SER71      -0.2866
     86  CB       -20.0220  -27.5860   34.9960 C.3    71  SER71       0.2089
     87  OG       -19.7930  -26.3840   35.6920 O.3    71  SER71      -0.2183
     88  N        -20.6290  -24.4590   29.9750 N.3    73  ILE73      -0.1245
     89  CA       -21.8700  -23.8510   29.5030 C.3    73  ILE73       0.1561
     90  C        -21.6250  -23.1690   28.1550 C.2    73  ILE73       0.2260
     91  O        -20.8110  -22.2480   28.0480 O.2    73  ILE73      -0.2867
     92  CB       -22.3990  -22.7600   30.4740 C.3    73  ILE73       0.0252
     93  CG1      -22.8090  -23.3630   31.8150 C.3    73  ILE73       0.0019
     94  CG2      -23.5870  -22.0700   29.8650 C.3    73  ILE73       0.0019
     95  CD1      -21.6410  -23.7070   32.7380 C.3    73  ILE73       0.0001
     96  N        -22.5870  -20.6180   25.6320 N.3    75  ILE75      -0.1245
     97  CA       -23.4130  -19.4280   25.5200 C.3    75  ILE75       0.1561
     98  C        -23.0390  -18.7390   24.2020 C.2    75  ILE75       0.2260
     99  O        -21.9010  -18.3180   24.0110 O.2    75  ILE75      -0.2867
    100  CB       -23.1860  -18.4600   26.7130 C.3    75  ILE75       0.0252
    101  CG1      -23.9860  -17.1830   26.4820 C.3    75  ILE75       0.0019
    102  CG2      -21.7110  -18.1550   26.8860 C.3    75  ILE75       0.0019
    103  CD1      -23.4380  -15.9800   27.1940 C.3    75  ILE75       0.0001
    104  N        -23.7440  -27.9290   29.7100 N.3    95  TYR95      -0.1241
    105  CA       -24.9490  -27.2080   29.3190 C.3    95  TYR95       0.1605
    106  C        -24.8180  -26.3140   28.1110 C.2    95  TYR95       0.2264
    107  O        -23.7260  -26.0460   27.6280 O.2    95  TYR95      -0.2867
    108  CB       -25.4550  -26.3350   30.4770 C.3    95  TYR95       0.0534
    109  CG       -25.3920  -26.9800   31.8340 C.ar   95  TYR95      -0.0201
    110  CD1      -24.1980  -27.0370   32.5450 C.ar   95  TYR95      -0.0009
    111  CD2      -26.5300  -27.5210   32.4150 C.ar   95  TYR95      -0.0009
    112  CE1      -24.1330  -27.6130   33.8020 C.ar   95  TYR95       0.0417
    113  CE2      -26.4830  -28.1040   33.6780 C.ar   95  TYR95       0.0417
    114  CZ       -25.2780  -28.1490   34.3730 C.ar   95  TYR95       0.1957
    115  OH       -25.2220  -28.7250   35.6340 O.3    95  TYR95      -0.2866
    116  N        -27.4250  -22.9320   26.2340 N.3    97  LEU97      -0.1245
    117  CA       -28.6550  -22.1570   26.3160 C.3    97  LEU97       0.1561
    118  C        -29.5410  -22.5020   25.1130 C.2    97  LEU97       0.2260
    119  O        -29.0580  -23.0030   24.0930 O.2    97  LEU97      -0.2867
    120  CB       -28.3300  -20.6670   26.3680 C.3    97  LEU97       0.0270
    121  CG       -27.4850  -20.3040   27.5920 C.3    97  LEU97       0.0019
    122  CD1      -27.0500  -18.8430   27.4940 C.3    97  LEU97       0.0001
    123  CD2      -28.2690  -20.5550   28.8630 C.3    97  LEU97       0.0001
    124  N        -27.6410  -31.0870   29.1830 N.3   170  LYS170     -0.1245
    125  CA       -28.8570  -30.3730   29.5090 C.3   170  LYS170      0.1561
    126  C        -28.9160  -28.9750   28.9200 C.2   170  LYS170      0.2260
    127  O        -27.8900  -28.3130   28.7710 O.2   170  LYS170     -0.2867
    128  CB       -28.9900  -30.2960   31.0350 C.3   170  LYS170      0.0271
    129  CG       -30.2840  -29.6840   31.5360 C.3   170  LYS170      0.0035
    130  CD       -30.2970  -29.6800   33.0570 C.3   170  LYS170      0.0206
    131  CE       -31.5940  -29.1160   33.6160 C.3   170  LYS170      0.1093
    132  NZ       -31.5430  -29.0350   35.1070 N.3   170  LYS170     -0.1314
    133  N        -30.2000  -25.2260   29.5090 N.3   172  LEU172     -0.1245
    134  CA       -30.6740  -24.3050   30.5360 C.3   172  LEU172      0.1561
    135  C        -31.8510  -23.4840   30.0010 C.2   172  LEU172      0.2260
    136  O        -31.7890  -22.9270   28.9020 O.2   172  LEU172     -0.2867
    137  CB       -29.5460  -23.3630   30.9590 C.3   172  LEU172      0.0270
    138  CG       -28.2970  -24.0190   31.5430 C.3   172  LEU172      0.0019
    139  CD1      -27.2720  -22.9560   31.8600 C.3   172  LEU172      0.0001
    140  CD2      -28.6620  -24.7990   32.7920 C.3   172  LEU172      0.0001
@<TRIPOS>BOND
     1    99    98    2
     2   119   118    2
     3    98    97    1
     4   118   117    1
     5    97    96    1
     6    97   100    1
     7   116   117    1
     8   117   120    1
     9   120   121    1
    10   101   100    1
    11   101   103    1
    12   100   102    1
    13   122   121    1
    14   121   123    1
    15   107   106    2
    16    91    90    2
    17   106   105    1
    18    90    89    1
    19    73    72    2
    20   127   126    2
    21    72    71    1
    22    53    54    1
    23    53    52    1
    24   136   135    2
    25   126   125    1
    26   124   125    1
    27    50    49    2
    28   105   104    1
    29   105   108    1
    30    49    48    1
    31    89    88    1
    32    89    92    1
    33   125   128    1
    34   133   134    1
    35    94    92    1
    36   135   134    1
    37    71    74    1
    38    71    70    1
    39    52    51    1
    40    92    93    1
    41   108   109    1
    42   134   137    1
    43    48    51    1
    44    48    47    1
    45    74    75    1
    46   137   138    1
    47   128   129    1
    48   129   130    1
    49   138   139    1
    50   138   140    1
    51    93    95    1
    52    75    76   ar
    53    75    77   ar
    54   109   111   ar
    55   109   110   ar
    56    76    78   ar
    57    77    79   ar
    58   111   113   ar
    59   110   112   ar
    60    84    85    2
    61    84    83    1
    62   130   131    1
    63    79    80   ar
    64    78    80   ar
    65   131   132    1
    66   113   114   ar
    67   112   114   ar
    68    80    81    1
    69    83    82    1
    70    83    86    1
    71    18    17    1
    72   114   115    1
    73    66    67    2
    74    66    65    1
    75    86    87    1
    76    45    43    1
    77    65    68    1
    78    65    64    1
    79    41    42    2
    80    41    40    1
    81    17    16    1
    82    17    19    1
    83    68    69    1
    84    16    13    1
    85    43    40    1
    86    43    44    1
    87    40    39    1
    88    46    44    1
    89    13    12    1
    90    13    14    1
    91    39    30   am
    92    12     3   am
    93    63    61   ar
    94    31    30    2
    95    14    15    2
    96     1     2    1
    97    30    29    1
    98    61    62   ar
    99    61    60    1
   100     3     2    1
   101     3     4    2
   102     5     2    1
   103     5     6    1
   104    29    28    1
   105    29    32    1
   106    60    59    1
   107    57    56    1
   108    57    58    2
   109    59    56    1
   110     6     7    1
   111    23    22    2
   112    28    22   am
   113    32    33    1
   114    56    55    1
   115    22    21    1
   116    24    21    1
   117    24    25    1
   118    20    21    1
   119     7     8    1
   120    33    34    1
   121    10     9    1
   122     8     9    2
   123    38    36    1
   124    35    36    2
   125    35    34    1
   126     9    11    1
   127    27    25   ar
   128    25    26   ar
   129    36    37    1
