@<TRIPOS>MOLECULE
tmp/3ktkT01.pdb
 90 86 0 0 0
SMALL
GASTEIGER

@<TRIPOS>ATOM
      1  N         -5.6110  -21.9990   31.6000 N.3    27  VAL27      -0.1231
      2  CA        -4.8930  -23.0350   32.3300 C.3    27  VAL27       0.1692
      3  C         -4.4850  -22.5510   33.7140 C.2    27  VAL27       0.2592
      4  O         -4.6530  -23.2650   34.7030 O.2    27  VAL27      -0.2718
      5  CB        -3.6230  -23.4850   31.5690 C.3    27  VAL27       0.0266
      6  CG1       -2.7490  -24.3440   32.4760 C.3    27  VAL27       0.0020
      7  CG2       -4.0140  -24.2700   30.3340 C.3    27  VAL27       0.0020
      8  N         -3.9400  -21.3440   33.7780 N.am   28  SER28      -0.1952
      9  CA        -3.5160  -20.7830   35.0470 C.3    28  SER28       0.1924
     10  C         -4.7070  -20.6370   35.9940 C.2    28  SER28       0.2314
     11  O         -4.6240  -21.0000   37.1650 O.2    28  SER28      -0.2863
     12  CB        -2.8610  -19.4230   34.8200 C.3    28  SER28       0.2116
     13  OG        -1.6520  -19.5660   34.0980 O.3    28  SER28      -0.2180
     14  N         -5.7620  -24.0310   37.3830 N.3    31  LEU31      -0.1231
     15  CA        -4.8390  -24.4980   38.3950 C.3    31  LEU31       0.1693
     16  C         -5.0310  -23.6790   39.6710 C.2    31  LEU31       0.2592
     17  O         -5.0100  -24.2240   40.7910 O.2    31  LEU31      -0.2718
     18  CB        -3.4040  -24.3590   37.8930 C.3    31  LEU31       0.0284
     19  CG        -3.0330  -25.2340   36.6880 C.3    31  LEU31       0.0019
     20  CD1       -1.6140  -24.9140   36.2370 C.3    31  LEU31       0.0001
     21  CD2       -3.1580  -26.7060   37.0560 C.3    31  LEU31       0.0001
     22  N         -5.2270  -22.3750   39.4950 N.am   32  PHE32      -0.1976
     23  CA        -5.4320  -21.4720   40.6180 C.3    32  PHE32       0.1639
     24  C         -6.6550  -21.8890   41.4320 C.2    32  PHE32       0.2290
     25  O         -6.5550  -22.1500   42.6310 O.2    32  PHE32      -0.2864
     26  CB        -5.6270  -20.0460   40.1100 C.3    32  PHE32       0.0560
     27  CG        -5.9200  -19.0510   41.1910 C.ar   32  PHE32      -0.0200
     28  CD1       -4.9690  -18.7580   42.1600 C.ar   32  PHE32      -0.0042
     29  CD2       -7.1460  -18.4050   41.2420 C.ar   32  PHE32      -0.0042
     30  CE1       -5.2400  -17.8310   43.1680 C.ar   32  PHE32      -0.0003
     31  CE2       -7.4260  -17.4790   42.2400 C.ar   32  PHE32      -0.0003
     32  CZ        -6.4710  -17.1920   43.2040 C.ar   32  PHE32      -0.0000
     33  N         -8.2710  -24.6350   41.4320 N.3    34  ALA34      -0.1231
     34  CA        -8.1150  -25.9830   41.9610 C.3    34  ALA34       0.1694
     35  C         -7.2560  -25.9340   43.2140 C.2    34  ALA34       0.2591
     36  O         -7.4200  -26.7420   44.1300 O.2    34  ALA34      -0.2718
     37  CB        -7.4710  -26.8820   40.9230 C.3    34  ALA34       0.0304
     38  N         -6.3390  -24.9750   43.2500 N.am   35  ALA35      -0.1980
     39  CA        -5.4570  -24.8220   44.3940 C.3    35  ALA35       0.1597
     40  C         -6.2230  -24.2640   45.5930 C.2    35  ALA35       0.2287
     41  O         -6.0350  -24.7080   46.7280 O.2    35  ALA35      -0.2864
     42  CB        -4.3050  -23.9100   44.0320 C.3    35  ALA35       0.0319
     43  N         -4.1980  -27.9450   25.7660 N.3    58  ALA58      -0.1245
     44  CA        -3.5610  -27.5080   26.9930 C.3    58  ALA58       0.1562
     45  C         -4.6910  -27.3140   27.9920 C.2    58  ALA58       0.2260
     46  O         -4.6060  -27.7450   29.1510 O.2    58  ALA58      -0.2867
     47  CB        -2.8300  -26.2150   26.7750 C.3    58  ALA58       0.0290
     48  N         -6.2890  -30.8680   28.7980 N.3    61  ASP61      -0.1225
     49  CA        -5.4450  -31.6350   29.7010 C.3    61  ASP61       0.1805
     50  C         -5.5180  -31.1140   31.1250 C.2    61  ASP61       0.2598
     51  O         -5.4680  -31.8810   32.0740 O.2    61  ASP61      -0.2718
     52  CB        -3.9920  -31.6340   29.2090 C.3    61  ASP61       0.1424
     53  CG        -3.7250  -32.6970   28.1380 C.2    61  ASP61       0.3668
     54  OD1       -2.6420  -32.6630   27.5170 O.co2  61  ASP61      -0.2456
     55  OD2       -4.5870  -33.5730   27.9160 O.co2  61  ASP61      -0.2456
     56  N         -5.6420  -29.8040   31.2780 N.am   62  THR62      -0.1953
     57  CA        -5.7330  -29.2350   32.6140 C.3    62  THR62       0.1897
     58  C         -7.1030  -29.5520   33.2290 C.2    62  THR62       0.2313
     59  O         -7.2070  -29.8580   34.4230 O.2    62  THR62      -0.2863
     60  CB        -5.5010  -27.6990   32.5960 C.3    62  THR62       0.1794
     61  OG1       -4.2410  -27.4150   31.9730 O.3    62  THR62      -0.2208
     62  CG2       -5.4720  -27.1430   34.0180 C.3    62  THR62       0.0378
     63  N         -6.6830  -32.9640   34.5580 N.3    65  PHE65      -0.1227
     64  CA        -5.7350  -33.1020   35.6510 C.3    65  PHE65       0.1736
     65  C         -6.2660  -32.7160   37.0250 C.2    65  PHE65       0.2595
     66  O         -6.1350  -33.4790   37.9730 O.2    65  PHE65      -0.2718
     67  CB        -4.4760  -32.2900   35.3710 C.3    65  PHE65       0.0547
     68  CG        -3.4520  -32.3870   36.4590 C.ar   65  PHE65      -0.0202
     69  CD1       -2.5510  -33.4530   36.4890 C.ar   65  PHE65      -0.0042
     70  CD2       -3.4110  -31.4340   37.4790 C.ar   65  PHE65      -0.0042
     71  CE1       -1.6190  -33.5770   37.5180 C.ar   65  PHE65      -0.0003
     72  CE2       -2.4900  -31.5420   38.5150 C.ar   65  PHE65      -0.0003
     73  CZ        -1.5850  -32.6190   38.5380 C.ar   65  PHE65      -0.0000
     74  N         -6.8550  -31.5360   37.1410 N.am   66  ILE66      -0.1966
     75  CA        -7.3530  -31.0820   38.4310 C.3    66  ILE66       0.1727
     76  C         -8.4860  -31.9370   38.9820 C.2    66  ILE66       0.2616
     77  O         -9.2280  -32.5740   38.2290 O.2    66  ILE66      -0.2715
     78  CB        -7.8130  -29.6120   38.3580 C.3    66  ILE66       0.0290
     79  CG1       -9.0140  -29.4740   37.4200 C.3    66  ILE66       0.0022
     80  CG2       -6.6670  -28.7460   37.8590 C.3    66  ILE66       0.0023
     81  CD1       -9.5610  -28.0590   37.3440 C.3    66  ILE66       0.0001
     82  N         -8.6030  -31.9480   40.3070 N.am   67  LYS67      -0.1977
     83  CA        -9.6390  -32.7170   40.9920 C.3    67  LYS67       0.1596
     84  C        -11.0400  -32.1300   40.8120 C.2    67  LYS67       0.2287
     85  O        -11.9790  -32.8580   40.5000 O.2    67  LYS67      -0.2864
     86  CB        -9.3210  -32.8390   42.5010 C.3    67  LYS67       0.0298
     87  CG        -8.3080  -33.9360   42.8520 C.3    67  LYS67       0.0038
     88  CD        -6.9820  -33.7370   42.0950 C.3    67  LYS67       0.0206
     89  CE        -6.0070  -34.9030   42.2850 C.3    67  LYS67       0.1093
     90  NZ        -4.7580  -34.6980   41.4940 N.3    67  LYS67      -0.1314
@<TRIPOS>BOND
     1    43    44    1
     2    47    44    1
     3    44    45    1
     4    54    53   ar
     5    55    53   ar
     6    45    46    2
     7    53    52    1
     8    48    49    1
     9    52    49    1
    10    49    50    1
    11     7     5    1
    12    50    56   am
    13    50    51    2
    14    56    57    1
    15     5     2    1
    16     5     6    1
    17     1     2    1
    18    61    60    1
    19     2     3    1
    20    60    57    1
    21    60    62    1
    22    57    58    1
    23    58    59    2
    24     3     8   am
    25     3     4    2
    26     8     9    1
    27    13    12    1
    28    63    64    1
    29    12     9    1
    30     9    10    1
    31    67    64    1
    32    67    68    1
    33    64    65    1
    34    10    11    2
    35    20    19    1
    36    68    69   ar
    37    68    70   ar
    38    69    71   ar
    39    19    21    1
    40    19    18    1
    41    65    74   am
    42    65    66    2
    43    74    75    1
    44    81    79    1
    45    14    15    1
    46    79    78    1
    47    70    72   ar
    48    71    73   ar
    49    80    78    1
    50    18    15    1
    51    77    76    2
    52    78    75    1
    53    15    16    1
    54    75    76    1
    55    72    73   ar
    56    76    82   am
    57    22    16   am
    58    22    23    1
    59    16    17    2
    60    26    23    1
    61    26    27    1
    62    82    83    1
    63    85    84    2
    64    23    24    1
    65    84    83    1
    66    37    34    1
    67    83    86    1
    68    27    29   ar
    69    27    28   ar
    70    29    31   ar
    71    33    34    1
    72    24    25    2
    73    90    89    1
    74    34    35    1
    75    88    89    1
    76    88    87    1
    77    28    30   ar
    78    31    32   ar
    79    86    87    1
    80    30    32   ar
    81    35    38   am
    82    35    36    2
    83    38    39    1
    84    42    39    1
    85    39    40    1
    86    40    41    2
