@<TRIPOS>MOLECULE
tmp/3ktsE00.pdb
 116 108 0 0 0
SMALL
GASTEIGER

@<TRIPOS>ATOM
      1  N        -15.6380  -17.8170    8.3100 N.3    13  ALA13      -0.1245
      2  CA       -16.7490  -18.6650    8.7600 C.3    13  ALA13       0.1562
      3  C        -16.4950  -20.1530    8.5040 C.2    13  ALA13       0.2260
      4  O        -16.2710  -20.5700    7.3660 O.2    13  ALA13      -0.2867
      5  CB       -18.0510  -18.2210    8.1140 C.3    13  ALA13       0.0290
      6  N        -17.4400  -24.0970    8.3610 N.3    15  HIS15      -0.1241
      7  CA       -18.4960  -25.0890    8.1920 C.3    15  HIS15       0.1621
      8  C        -18.1950  -26.3840    8.9520 C.2    15  HIS15       0.2264
      9  O        -19.1110  -27.0340    9.4570 O.2    15  HIS15      -0.2867
     10  CB       -18.7270  -25.3960    6.7130 C.3    15  HIS15       0.0745
     11  CG       -19.3410  -24.2680    5.9450 C.ar   15  HIS15       0.0817
     12  ND1      -20.7030  -24.1420    5.7700 N.ar   15  HIS15      -0.2268
     13  CD2      -18.7790  -23.2270    5.2860 C.ar   15  HIS15       0.1154
     14  CE1      -20.9540  -23.0680    5.0410 C.ar   15  HIS15       0.1986
     15  NE2      -19.8040  -22.4930    4.7380 N.ar   15  HIS15      -0.2212
     16  N        -16.4220  -17.1840   12.9180 N.3    32  VAL32      -0.1245
     17  CA       -17.8150  -17.6160   12.9410 C.3    32  VAL32       0.1561
     18  C        -17.9260  -19.1290   12.7820 C.2    32  VAL32       0.2260
     19  O        -17.4180  -19.7010   11.8170 O.2    32  VAL32      -0.2867
     20  CB       -18.6360  -16.9320   11.8330 C.3    32  VAL32       0.0252
     21  CG1      -20.0000  -17.5930   11.6990 C.3    32  VAL32       0.0019
     22  CG2      -18.7820  -15.4460   12.1220 C.3    32  VAL32       0.0019
     23  N        -20.4470  -22.1130   12.0150 N.3    34  LEU34      -0.1245
     24  CA       -21.7300  -22.2360   11.3340 C.3    34  LEU34       0.1561
     25  C        -22.4820  -23.4810   11.7940 C.2    34  LEU34       0.2260
     26  O        -23.3940  -23.3980   12.6160 O.2    34  LEU34      -0.2867
     27  CB       -21.5300  -22.2740    9.8170 C.3    34  LEU34       0.0270
     28  CG       -20.9870  -20.9960    9.1730 C.3    34  LEU34       0.0019
     29  CD1      -20.2280  -21.3190    7.8960 C.3    34  LEU34       0.0001
     30  CD2      -22.1140  -20.0120    8.8980 C.3    34  LEU34       0.0001
     31  N        -23.3310  -19.6390   15.6710 N.3    58  HIS58      -0.1241
     32  CA       -24.7090  -19.7450   15.1850 C.3    58  HIS58       0.1621
     33  C        -25.5550  -20.6340   16.0740 C.2    58  HIS58       0.2264
     34  O        -25.4070  -21.8630   16.0700 O.2    58  HIS58      -0.2867
     35  CB       -24.7510  -20.2830   13.7550 C.3    58  HIS58       0.0745
     36  CG       -24.5740  -19.2260   12.7150 C.ar   58  HIS58       0.0817
     37  ND1      -25.6380  -18.6050   12.0990 N.ar   58  HIS58      -0.2268
     38  CD2      -23.4560  -18.6680   12.1910 C.ar   58  HIS58       0.1154
     39  CE1      -25.1830  -17.7180   11.2320 C.ar   58  HIS58       0.1986
     40  NE2      -23.8630  -17.7360   11.2680 N.ar   58  HIS58      -0.2212
     41  N        -29.0530  -11.9790   12.6570 N.3   105  ARG105     -0.1245
     42  CA       -28.9060  -12.3280   11.2530 C.3   105  ARG105      0.1563
     43  C        -30.1570  -11.9330   10.4900 C.2   105  ARG105      0.2260
     44  O        -31.2640  -12.0410   11.0110 O.2   105  ARG105     -0.2867
     45  CB       -28.6670  -13.8280   11.1060 C.3   105  ARG105      0.0307
     46  CG       -28.0060  -14.2040    9.8060 C.3   105  ARG105      0.0489
     47  CD       -27.7840  -15.6860    9.6850 C.3   105  ARG105      0.2205
     48  NE       -26.5820  -15.9700    8.9020 N.pl3 105  ARG105     -0.0865
     49  CZ       -26.4420  -17.0070    8.0800 C.cat 105  ARG105      0.5346
     50  NH1      -27.4380  -17.8680    7.9010 N.pl3 105  ARG105      0.1354
     51  NH2      -25.3030  -17.1760    7.4210 N.pl3 105  ARG105      0.1354
     52  N        -26.0960   -9.0290   11.1170 N.3   130  GLU130     -0.1245
     53  CA       -25.5130   -9.6650    9.9440 C.3   130  GLU130      0.1567
     54  C        -26.5040   -9.6340    8.7860 C.2   130  GLU130      0.2260
     55  O        -27.5380  -10.3030    8.8240 O.2   130  GLU130     -0.2867
     56  CB       -25.0900  -11.1000   10.2600 C.3   130  GLU130      0.0388
     57  CG       -24.3440  -11.7990    9.1350 C.3   130  GLU130      0.1160
     58  CD       -23.8720  -13.1920    9.5190 C.2   130  GLU130      0.3649
     59  OE1      -24.6690  -13.9610   10.0950 O.co2 130  GLU130     -0.2457
     60  OE2      -22.7020  -13.5280    9.2350 O.co2 130  GLU130     -0.2457
     61  N        -27.4320  -10.3740    4.8220 N.3   132  LEU132     -0.1245
     62  CA       -27.1240  -11.2750    3.7050 C.3   132  LEU132      0.1561
     63  C        -28.1080  -11.0630    2.5560 C.2   132  LEU132      0.2260
     64  O        -29.3000  -10.8740    2.8010 O.2   132  LEU132     -0.2867
     65  CB       -27.1400  -12.7480    4.1330 C.3   132  LEU132      0.0270
     66  CG       -26.1060  -13.2440    5.1420 C.3   132  LEU132      0.0019
     67  CD1      -26.7090  -13.2150    6.5280 C.3   132  LEU132      0.0001
     68  CD2      -25.6330  -14.6500    4.7980 C.3   132  LEU132      0.0001
     69  N        -22.1560  -13.4590    2.7770 N.3   155  GLY155     -0.1210
     70  CA       -22.7730  -14.1290    1.6460 C.3   155  GLY155      0.1956
     71  C        -22.4580  -13.5300    0.2910 C.2   155  GLY155      0.2612
     72  O        -22.4790  -12.3080    0.1210 O.2   155  GLY155     -0.2717
     73  N        -22.1680  -14.4200   -0.6590 N.am  156  LEU156     -0.1965
     74  CA       -21.8700  -14.1060   -2.0680 C.3   156  LEU156      0.1728
     75  C        -20.6790  -13.1760   -2.3220 C.2   156  LEU156      0.2616
     76  O        -20.6120  -12.5300   -3.3700 O.2   156  LEU156     -0.2715
     77  CB       -23.1200  -13.6200   -2.8270 C.3   156  LEU156      0.0311
     78  CG       -24.3970  -14.4680   -2.8820 C.3   156  LEU156      0.0022
     79  CD1      -25.3050  -13.9100   -3.9670 C.3   156  LEU156      0.0001
     80  CD2      -24.1330  -15.9600   -3.1140 C.3   156  LEU156      0.0001
     81  N        -19.7370  -13.1160   -1.3820 N.am  157  ILE157     -0.1977
     82  CA       -18.5550  -12.2700   -1.5540 C.3   157  ILE157      0.1596
     83  C        -17.3790  -13.0770   -2.0860 C.2   157  ILE157      0.2287
     84  O        -16.9480  -14.0590   -1.4700 O.2   157  ILE157     -0.2864
     85  CB       -18.1280  -11.5220   -0.2660 C.3   157  ILE157      0.0276
     86  CG1      -19.3270  -11.1580    0.6080 C.3   157  ILE157      0.0022
     87  CG2      -17.3640  -10.2720   -0.6190 C.3   157  ILE157      0.0022
     88  CD1      -19.3630  -11.9370    1.8760 C.3   157  ILE157      0.0001
     89  N        -18.3100  -11.1480    6.9450 N.3   175  THR175     -0.1203
     90  CA       -18.2790  -12.5870    7.2090 C.3   175  THR175      0.1994
     91  C        -18.2110  -13.3460    5.8990 C.2   175  THR175      0.2619
     92  O        -18.9580  -13.0380    4.9650 O.2   175  THR175     -0.2717
     93  CB       -19.4980  -13.0780    7.9950 C.3   175  THR175      0.1784
     94  OG1      -20.6770  -12.4330    7.5010 O.3   175  THR175     -0.2211
     95  CG2      -19.3330  -12.7850    9.4700 C.3   175  THR175      0.0376
     96  N        -17.3130  -14.3290    5.8310 N.am  176  THR176     -0.1938
     97  CA       -17.1420  -15.1210    4.6150 C.3   176  THR176      0.2028
     98  C        -16.6160  -16.5330    4.8580 C.2   176  THR176      0.2643
     99  O        -15.9180  -16.8030    5.8360 O.2   176  THR176     -0.2714
    100  CB       -16.2730  -14.3930    3.5440 C.3   176  THR176      0.1808
    101  OG1      -16.4830  -15.0010    2.2640 O.3   176  THR176     -0.2208
    102  CG2      -14.7870  -14.4340    3.8960 C.3   176  THR176      0.0379
    103  N        -16.9880  -17.4240    3.9460 N.am  177  SER177     -0.1935
    104  CA       -16.5530  -18.8080    3.9440 C.3   177  SER177      0.2055
    105  C        -15.6730  -19.0120    2.7210 C.2   177  SER177      0.2643
    106  O        -15.1310  -20.1020    2.5030 O.2   177  SER177     -0.2714
    107  CB       -17.7650  -19.7270    3.8530 C.3   177  SER177      0.2130
    108  OG       -18.4480  -19.5130    2.6310 O.3   177  SER177     -0.2179
    109  N        -15.5490  -17.9530    1.9220 N.am  178  ASN178     -0.1971
    110  CA       -14.7670  -17.9830    0.6980 C.3   178  ASN178      0.1688
    111  C        -13.2690  -17.9250    1.0050 C.2   178  ASN178      0.2292
    112  O        -12.6940  -16.8450    1.1430 O.2   178  ASN178     -0.2864
    113  CB       -15.2100  -16.8490   -0.2360 C.3   178  ASN178      0.1181
    114  CG       -14.5030  -16.8800   -1.5750 C.2   178  ASN178      0.2629
    115  OD1      -14.0420  -15.8510   -2.0630 O.2   178  ASN178     -0.2716
    116  ND2      -14.4150  -18.0600   -2.1780 N.am  178  ASN178     -0.0877
@<TRIPOS>BOND
     1    79    78    1
     2    76    75    2
     3    80    78    1
     4    78    77    1
     5    77    74    1
     6    75    74    1
     7    75    81   am
     8   116   114   am
     9    83    82    1
    10    83    84    2
    11    74    73    1
    12   115   114    2
    13   114   113    1
    14    82    81    1
    15    82    85    1
    16    73    71   am
    17    87    85    1
    18    85    86    1
    19   113   110    1
    20    72    71    2
    21    71    70    1
    22    86    88    1
    23   110   111    1
    24   110   109    1
    25   111   112    2
    26    70    69    1
    27   109   105   am
    28   101   100    1
    29   106   105    2
    30    63    64    2
    31    63    62    1
    32   108   107    1
    33   105   104    1
    34   100   102    1
    35   100    97    1
    36    62    65    1
    37    62    61    1
    38   107   104    1
    39   104   103    1
    40   103    98   am
    41    65    66    1
    42    97    98    1
    43    97    96    1
    44    15    14   ar
    45    15    13   ar
    46    68    66    1
    47    98    99    2
    48    92    91    2
    49    14    12   ar
    50    66    67    1
    51    13    11   ar
    52    12    11   ar
    53    96    91   am
    54    91    90    1
    55    11    10    1
    56    10     7    1
    57    89    90    1
    58    90    93    1
    59     4     3    2
    60    51    49    1
    61    94    93    1
    62    29    28    1
    63    50    49    1
    64    93    95    1
    65    49    48    2
    66     5     2    1
    67     7     6    1
    68     7     8    1
    69     1     2    1
    70     3     2    1
    71    54    55    2
    72    54    53    1
    73    30    28    1
    74    48    47    1
    75     8     9    2
    76    57    58    1
    77    57    56    1
    78    28    27    1
    79    60    58   ar
    80    58    59   ar
    81    47    46    1
    82    46    45    1
    83    27    24    1
    84    53    56    1
    85    53    52    1
    86    43    44    2
    87    43    42    1
    88    45    42    1
    89    39    40   ar
    90    39    37   ar
    91    42    41    1
    92    40    38   ar
    93    24    25    1
    94    24    23    1
    95    21    20    1
    96    25    26    2
    97    19    18    2
    98    20    22    1
    99    20    17    1
   100    37    36   ar
   101    38    36   ar
   102    36    35    1
   103    18    17    1
   104    16    17    1
   105    35    32    1
   106    32    31    1
   107    32    33    1
   108    34    33    2
