@<TRIPOS>MOLECULE
tmp/3ku0B00.pdb
 93 90 0 0 0
SMALL
GASTEIGER

@<TRIPOS>ATOM
      1  N         30.8950    6.6940   21.1180 N.3    73  VAL73      -0.1231
      2  CA        29.5130    6.2070   21.0910 C.3    73  VAL73       0.1692
      3  C         28.7660    6.9020   19.9470 C.2    73  VAL73       0.2592
      4  O         27.5370    7.0320   19.9630 O.2    73  VAL73      -0.2718
      5  CB        28.7600    6.4860   22.4200 C.3    73  VAL73       0.0266
      6  CG1       27.5070    5.6060   22.4920 C.3    73  VAL73       0.0020
      7  CG2       29.6780    6.2280   23.6170 C.3    73  VAL73       0.0020
      8  N         29.5330    7.3330   18.9500 N.am   74  TYR74      -0.1962
      9  CA        28.9950    8.0300   17.7860 C.3    74  TYR74       0.1771
     10  C         28.3740    7.0500   16.7830 C.2    74  TYR74       0.2619
     11  O         28.9760    6.0340   16.4390 O.2    74  TYR74      -0.2715
     12  CB        30.1310    8.8150   17.1040 C.3    74  TYR74       0.0574
     13  CG        29.7070    9.8520   16.0760 C.ar   74  TYR74      -0.0198
     14  CD1       29.1560   11.0800   16.4720 C.ar   74  TYR74      -0.0009
     15  CD2       29.8860    9.6220   14.7050 C.ar   74  TYR74      -0.0009
     16  CE1       28.7980   12.0580   15.5260 C.ar   74  TYR74       0.0417
     17  CE2       29.5290   10.5900   13.7480 C.ar   74  TYR74       0.0417
     18  CZ        28.9890   11.8060   14.1680 C.ar   74  TYR74       0.1957
     19  OH        28.6620   12.7700   13.2340 O.3    74  TYR74      -0.2866
     20  N         27.1570    7.3480   16.3350 N.am   75  VAL75      -0.1977
     21  CA        26.4920    6.5210   15.3300 C.3    75  VAL75       0.1596
     22  C         27.1260    6.9070   13.9860 C.2    75  VAL75       0.2287
     23  O         27.0200    8.0670   13.5740 O.2    75  VAL75      -0.2864
     24  CB        24.9840    6.8400   15.2620 C.3    75  VAL75       0.0276
     25  CG1       24.3500    6.1150   14.0850 C.3    75  VAL75       0.0022
     26  CG2       24.3060    6.4480   16.5690 C.3    75  VAL75       0.0022
     27  N         27.0790    8.1020    7.3950 N.3    87  PHE87      -0.1241
     28  CA        27.0610    9.5540    7.4610 C.3    87  PHE87       0.1605
     29  C         28.2160   10.0650    6.6050 C.2    87  PHE87       0.2264
     30  O         29.2380    9.3890    6.4530 O.2    87  PHE87      -0.2867
     31  CB        27.2180   10.0290    8.9130 C.3    87  PHE87       0.0534
     32  CG        25.9290   10.0340    9.6880 C.ar   87  PHE87      -0.0203
     33  CD1       25.8550    9.4460   10.9480 C.ar   87  PHE87      -0.0042
     34  CD2       24.7900   10.6400    9.1620 C.ar   87  PHE87      -0.0042
     35  CE1       24.6590    9.4610   11.6790 C.ar   87  PHE87      -0.0003
     36  CE2       23.5860   10.6660    9.8770 C.ar   87  PHE87      -0.0003
     37  CZ        23.5190   10.0740   11.1400 C.ar   87  PHE87      -0.0000
     38  N         26.5410   13.3520   10.5190 N.3   111  GLY111     -0.1210
     39  CA        25.7820   12.9240   11.6800 C.3   111  GLY111      0.1956
     40  C         25.6860   13.9100   12.8330 C.2   111  GLY111      0.2613
     41  O         25.0940   13.5900   13.8660 O.2   111  GLY111     -0.2717
     42  N         26.2580   15.1010   12.6800 N.am  112  SER112     -0.1938
     43  CA        26.1920   16.1010   13.7410 C.3   112  SER112      0.2055
     44  C         24.7530   16.5940   13.8600 C.2   112  SER112      0.2643
     45  O         23.9460   16.3950   12.9510 O.2   112  SER112     -0.2714
     46  CB        27.1040   17.2880   13.4170 C.3   112  SER112      0.2130
     47  OG        26.6000   18.0340   12.3160 O.3   112  SER112     -0.2179
     48  N         24.4210   17.2410   14.9710 N.am  113  TYR113     -0.1973
     49  CA        23.0700   17.7460   15.1220 C.3   113  TYR113      0.1639
     50  C         22.7930   18.8420   14.0900 C.2   113  TYR113      0.2290
     51  O         21.7350   18.8590   13.4620 O.2   113  TYR113     -0.2864
     52  CB        22.8430   18.2330   16.5540 C.3   113  TYR113      0.0560
     53  CG        22.6900   17.0820   17.5410 C.ar  113  TYR113     -0.0198
     54  CD1       21.7750   16.0470   17.2970 C.ar  113  TYR113     -0.0009
     55  CD2       23.4370   17.0360   18.7250 C.ar  113  TYR113     -0.0009
     56  CE1       21.6030   14.9960   18.2040 C.ar  113  TYR113      0.0417
     57  CE2       23.2670   15.9860   19.6450 C.ar  113  TYR113      0.0417
     58  CZ        22.3470   14.9730   19.3750 C.ar  113  TYR113      0.1957
     59  OH        22.1550   13.9540   20.2800 O.3   113  TYR113     -0.2866
     60  N         19.8470    8.1410   17.8390 N.3   161  ILE161     -0.1245
     61  CA        21.0010    8.8060   18.4340 C.3   161  ILE161      0.1561
     62  C         20.7630    9.2240   19.8830 C.2   161  ILE161      0.2260
     63  O         21.6230    9.0400   20.7410 O.2   161  ILE161     -0.2867
     64  CB        21.3960   10.0520   17.6100 C.3   161  ILE161      0.0252
     65  CG1       22.1710    9.6090   16.3630 C.3   161  ILE161      0.0019
     66  CG2       22.1940   11.0340   18.4770 C.3   161  ILE161      0.0019
     67  CD1       22.2920   10.6890   15.2880 C.3   161  ILE161      0.0001
     68  N         22.6590    6.4590   21.9220 N.3   165  SER165     -0.1202
     69  CA        23.9310    7.1330   22.2260 C.3   165  SER165      0.2020
     70  C         23.9090    8.1250   23.4020 C.2   165  SER165      0.2618
     71  O         24.6970    8.0000   24.3400 O.2   165  SER165     -0.2717
     72  CB        24.4490    7.8590   20.9770 C.3   165  SER165      0.2103
     73  OG        24.7260    6.9430   19.9350 O.3   165  SER165     -0.2182
     74  N         23.0250    9.1180   23.3530 N.am  166  GLU166     -0.1979
     75  CA        22.9680   10.0980   24.4340 C.3   166  GLU166      0.1602
     76  C         22.5280    9.4310   25.7370 C.2   166  GLU166      0.2287
     77  O         23.0440    9.7550   26.8070 O.2   166  GLU166     -0.2864
     78  CB        22.0320   11.2630   24.0660 C.3   166  GLU166      0.0415
     79  CG        22.4600   12.0300   22.7990 C.3   166  GLU166      0.1163
     80  CD        23.7590   12.8320   22.9620 C.2   166  GLU166      0.3649
     81  OE1       24.5410   12.5610   23.9020 O.co2 166  GLU166     -0.2457
     82  OE2       24.0070   13.7350   22.1310 O.co2 166  GLU166     -0.2457
     83  N         25.4140    7.6080   27.2210 N.3   169  ARG169     -0.1245
     84  CA        26.3600    8.5590   27.7960 C.3   169  ARG169      0.1563
     85  C         25.9300    9.1810   29.1220 C.2   169  ARG169      0.2260
     86  O         26.7520    9.3430   30.0270 O.2   169  ARG169     -0.2867
     87  CB        26.6110    9.7060   26.8210 C.3   169  ARG169      0.0307
     88  CG        27.3930    9.3610   25.5720 C.3   169  ARG169      0.0489
     89  CD        27.2060   10.4810   24.5810 C.3   169  ARG169      0.2205
     90  NE        27.9750   10.3070   23.3620 N.pl3 169  ARG169     -0.0865
     91  CZ        27.5880   10.7700   22.1800 C.cat 169  ARG169      0.5346
     92  NH1       26.4380   11.4220   22.0660 N.pl3 169  ARG169      0.1354
     93  NH2       28.3590   10.6030   21.1160 N.pl3 169  ARG169      0.1354
@<TRIPOS>BOND
     1    30    29    2
     2    29    28    1
     3    27    28    1
     4    28    31    1
     5    31    32    1
     6    34    32   ar
     7    34    36   ar
     8    32    33   ar
     9    36    37   ar
    10    38    39    1
    11    33    35   ar
    12    37    35   ar
    13    39    40    1
    14    47    46    1
    15    42    40   am
    16    42    43    1
    17    40    41    2
    18    45    44    2
    19    19    18    1
    20    46    43    1
    21    51    50    2
    22    23    22    2
    23    43    44    1
    24    17    18   ar
    25    17    15   ar
    26    44    48   am
    27    22    21    1
    28    25    24    1
    29    50    49    1
    30    18    16   ar
    31    15    13   ar
    32    48    49    1
    33    49    52    1
    34    24    21    1
    35    24    26    1
    36    67    65    1
    37    21    20    1
    38    16    14   ar
    39    13    14   ar
    40    13    12    1
    41    20    10   am
    42    65    64    1
    43    11    10    2
    44    52    53    1
    45    10     9    1
    46    12     9    1
    47    54    53   ar
    48    54    56   ar
    49    53    55   ar
    50    64    61    1
    51    64    66    1
    52     9     8    1
    53    60    61    1
    54    56    58   ar
    55    61    62    1
    56    55    57   ar
    57     8     3   am
    58    58    57   ar
    59    58    59    1
    60    62    63    2
    61    73    72    1
    62     3     4    2
    63     3     2    1
    64    72    69    1
    65     2     1    1
    66     2     5    1
    67    93    91    1
    68    68    69    1
    69    92    91    1
    70    82    80   ar
    71    91    90    2
    72    69    70    1
    73     5     6    1
    74     5     7    1
    75    79    80    1
    76    79    78    1
    77    80    81   ar
    78    74    70   am
    79    74    75    1
    80    90    89    1
    81    70    71    2
    82    78    75    1
    83    75    76    1
    84    89    88    1
    85    88    87    1
    86    76    77    2
    87    87    84    1
    88    83    84    1
    89    84    85    1
    90    85    86    2
