@<TRIPOS>MOLECULE
tmp/3ku1C00.pdb
 163 154 0 0 0
SMALL
GASTEIGER

@<TRIPOS>ATOM
      1  N         32.2720   98.5840  -70.3620 N.3     5  ARG5       -0.1231
      2  CA        33.2660   97.5250  -70.6260 C.3     5  ARG5        0.1694
      3  C         33.7520   97.5660  -72.0760 C.2     5  ARG5        0.2591
      4  O         34.8920   97.8790  -72.3380 O.2     5  ARG5       -0.2718
      5  CB        32.6470   96.1780  -70.3070 C.3     5  ARG5        0.0321
      6  CG        33.5380   94.9950  -70.4790 C.3     5  ARG5        0.0489
      7  CD        32.7510   93.7360  -70.1460 C.3     5  ARG5        0.2205
      8  NE        31.5360   93.6440  -70.9550 N.pl3   5  ARG5       -0.0865
      9  CZ        31.4170   92.9550  -72.0880 C.cat   5  ARG5        0.5346
     10  NH1       32.4230   92.2600  -72.5820 N.pl3   5  ARG5        0.1354
     11  NH2       30.2760   92.9560  -72.7360 N.pl3   5  ARG5        0.1354
     12  N         32.8620   97.2820  -73.0140 N.am    6  LEU6       -0.1980
     13  CA        33.1430   97.4540  -74.4310 C.3     6  LEU6        0.1596
     14  C         33.7540   98.7840  -74.7650 C.2     6  LEU6        0.2287
     15  O         34.4040   98.9420  -75.7920 O.2     6  LEU6       -0.2864
     16  CB        31.8570   97.3420  -75.2330 C.3     6  LEU6        0.0297
     17  CG        31.1180   96.0130  -75.3440 C.3     6  LEU6        0.0022
     18  CD1       30.4880   96.0130  -76.7030 C.3     6  LEU6        0.0001
     19  CD2       32.0280   94.8100  -75.1530 C.3     6  LEU6        0.0001
     20  N         36.2950   91.0220  -84.6570 N.3    21  ASP21      -0.1225
     21  CA        35.6710   90.9020  -83.3640 C.3    21  ASP21       0.1805
     22  C         35.0010   89.5410  -83.3910 C.2    21  ASP21       0.2598
     23  O         34.1860   89.2550  -84.2800 O.2    21  ASP21      -0.2718
     24  CB        34.6640   92.0420  -83.2290 C.3    21  ASP21       0.1424
     25  CG        34.1300   92.2150  -81.8260 C.2    21  ASP21       0.3668
     26  OD1       34.7920   91.8550  -80.8320 O.co2  21  ASP21      -0.2456
     27  OD2       33.0170   92.7480  -81.7210 O.co2  21  ASP21      -0.2456
     28  N         35.3760   88.6930  -82.4460 N.am   22  VAL22      -0.1966
     29  CA        35.0540   87.2700  -82.4540 C.3    22  VAL22       0.1727
     30  C         33.9770   87.1290  -81.4390 C.2    22  VAL22       0.2617
     31  O         34.2190   87.3640  -80.2650 O.2    22  VAL22      -0.2715
     32  CB        36.3060   86.4330  -82.0020 C.3    22  VAL22       0.0290
     33  CG1       35.9970   84.9500  -81.7950 C.3    22  VAL22       0.0023
     34  CG2       37.3850   86.5670  -83.0100 C.3    22  VAL22       0.0023
     35  N         32.7820   86.7520  -81.8640 N.am   23  GLY23      -0.1940
     36  CA        31.6230   86.7340  -80.9650 C.3    23  GLY23       0.2014
     37  C         31.1260   88.1330  -80.6280 C.2    23  GLY23       0.2640
     38  O         30.7920   88.4050  -79.4770 O.2    23  GLY23      -0.2714
     39  N         31.1200   89.0370  -81.6050 N.am   24  SER24      -0.1935
     40  CA        30.5440   90.3440  -81.3550 C.3    24  SER24       0.2055
     41  C         29.1090   90.0370  -81.5400 C.2    24  SER24       0.2643
     42  O         28.6130   89.9810  -82.6680 O.2    24  SER24      -0.2714
     43  CB        31.0180   91.4700  -82.3230 C.3    24  SER24       0.2130
     44  OG        30.5730   91.3910  -83.6720 O.3    24  SER24      -0.2179
     45  N         28.3930   89.7350  -80.4790 N.am   25  ASP25      -0.1971
     46  CA        27.0270   89.5390  -80.8450 C.3    25  ASP25       0.1709
     47  C         26.5600   90.9440  -81.0520 C.2    25  ASP25       0.2293
     48  O         27.3040   91.8950  -80.7490 O.2    25  ASP25      -0.2864
     49  CB        26.2600   88.5140  -79.9650 C.3    25  ASP25       0.1436
     50  CG        25.2920   89.1280  -78.9910 C.2    25  ASP25       0.3671
     51  OD1       24.0820   88.7950  -79.1650 O.co2  25  ASP25      -0.2456
     52  OD2       25.7180   89.8340  -78.0400 O.co2  25  ASP25      -0.2456
     53  N         30.5740   96.5760  -80.8210 N.3    29  LEU29      -0.1245
     54  CA        31.9730   97.0230  -80.8500 C.3    29  LEU29       0.1561
     55  C         32.5610   97.4640  -82.2460 C.2    29  LEU29       0.2260
     56  O         32.9970   98.6260  -82.4050 O.2    29  LEU29      -0.2867
     57  CB        32.8450   95.9900  -80.1760 C.3    29  LEU29       0.0270
     58  CG        34.2840   96.4060  -80.0100 C.3    29  LEU29       0.0019
     59  CD1       34.3650   97.6110  -79.1270 C.3    29  LEU29       0.0001
     60  CD2       34.9340   95.1910  -79.3890 C.3    29  LEU29       0.0001
     61  N         32.4520   88.1640  -86.3980 N.3    45  GLY45      -0.1210
     62  CA        32.2690   86.7460  -86.5590 C.3    45  GLY45       0.1956
     63  C         31.5320   86.2060  -85.3600 C.2    45  GLY45       0.2612
     64  O         31.8110   86.6030  -84.2320 O.2    45  GLY45      -0.2717
     65  N         30.5730   85.3160  -85.5920 N.am   46  GLU46      -0.1965
     66  CA        29.7820   84.7720  -84.5080 C.3    46  GLU46       0.1733
     67  C         29.6020   83.2960  -84.8080 C.2    46  GLU46       0.2616
     68  O         29.7790   82.8970  -85.9630 O.2    46  GLU46      -0.2715
     69  CB        28.4390   85.5100  -84.4160 C.3    46  GLU46       0.0429
     70  CG        28.3260   86.4860  -83.2300 C.3    46  GLU46       0.1163
     71  CD        28.1230   85.7470  -81.9100 C.2    46  GLU46       0.3649
     72  OE1       28.0270   84.4790  -81.9020 O.co2  46  GLU46      -0.2457
     73  OE2       28.0680   86.4270  -80.8730 O.co2  46  GLU46      -0.2457
     74  N         29.2700   82.4800  -83.8090 N.am   47  VAL47      -0.1963
     75  CA        29.3380   81.0320  -84.0060 C.3    47  VAL47       0.1727
     76  C         27.9970   80.3220  -84.1110 C.2    47  VAL47       0.2616
     77  O         27.9310   79.2350  -84.6340 O.2    47  VAL47      -0.2715
     78  CB        30.2810   80.3290  -82.9760 C.3    47  VAL47       0.0290
     79  CG1       29.6440   80.1640  -81.6200 C.3    47  VAL47       0.0023
     80  CG2       30.7230   78.9820  -83.4810 C.3    47  VAL47       0.0023
     81  N         26.9300   80.9040  -83.5900 N.am   48  VAL48      -0.1977
     82  CA        25.6140   80.3500  -83.8370 C.3    48  VAL48       0.1596
     83  C         24.6760   81.3730  -84.4570 C.2    48  VAL48       0.2287
     84  O         24.8240   82.5950  -84.2520 O.2    48  VAL48      -0.2864
     85  CB        24.9800   79.7050  -82.6120 C.3    48  VAL48       0.0276
     86  CG1       25.9640   78.8070  -81.9300 C.3    48  VAL48       0.0022
     87  CG2       24.5280   80.7540  -81.6580 C.3    48  VAL48       0.0022
     88  N         22.8610   84.8550  -82.5690 N.3    51  PRO51      -0.2116
     89  CA        23.7640   86.0370  -82.5680 C.3    51  PRO51       0.1372
     90  C         24.2920   86.4560  -83.9340 C.2    51  PRO51       0.2244
     91  O         24.3300   87.6480  -84.2380 O.2    51  PRO51      -0.2868
     92  CB        24.9050   85.6150  -81.6580 C.3    51  PRO51       0.0268
     93  CG        24.2790   84.6410  -80.6950 C.3    51  PRO51       0.0207
     94  CD        23.2650   83.8650  -81.5560 C.3    51  PRO51       0.0892
     95  N         31.0770   81.6400  -88.1320 N.3    73  ALA73      -0.1231
     96  CA        32.3160   80.8750  -88.1100 C.3    73  ALA73       0.1694
     97  C         32.6370   80.5810  -86.6890 C.2    73  ALA73       0.2592
     98  O         32.2030   81.2690  -85.7650 O.2    73  ALA73      -0.2718
     99  CB        33.4030   81.6260  -88.7160 C.3    73  ALA73       0.0304
    100  N         33.3840   79.5310  -86.4820 N.am   74  ASN74      -0.1960
    101  CA        33.8160   79.2830  -85.1510 C.3    74  ASN74       0.1819
    102  C         35.1850   79.9160  -84.9320 C.2    74  ASN74       0.2621
    103  O         36.1070   79.7800  -85.7610 O.2    74  ASN74      -0.2715
    104  CB        33.9130   77.8130  -84.9190 C.3    74  ASN74       0.1195
    105  CG        34.4610   77.5270  -83.6150 C.2    74  ASN74       0.2630
    106  OD1       33.7200   77.2150  -82.7070 O.2    74  ASN74      -0.2716
    107  ND2       35.7710   77.7220  -83.4520 N.am   74  ASN74      -0.0877
    108  N         35.3240   80.5910  -83.8100 N.am   75  GLY75      -0.1954
    109  CA        36.5330   81.3130  -83.4820 C.3    75  GLY75       0.1869
    110  C         37.1600   81.9610  -84.6840 C.2    75  GLY75       0.2309
    111  O         36.4680   82.5590  -85.5070 O.2    75  GLY75      -0.2863
    112  N         35.9430   89.4460  -76.6410 N.3    91  ALA91      -0.1231
    113  CA        35.3350   89.8950  -75.3530 C.3    91  ALA91       0.1694
    114  C         34.1320   89.0680  -74.8350 C.2    91  ALA91       0.2593
    115  O         33.3290   88.5680  -75.6000 O.2    91  ALA91      -0.2718
    116  CB        34.9410   91.3620  -75.4590 C.3    91  ALA91       0.0304
    117  N         34.0030   88.9510  -73.5230 N.am   92  GLY92      -0.1942
    118  CA        32.8050   88.3820  -72.9260 C.3    92  GLY92       0.2014
    119  C         32.7850   86.8710  -73.0190 C.2    92  GLY92       0.2638
    120  O         31.7590   86.3060  -73.4350 O.2    92  GLY92      -0.2714
    121  N         33.8950   86.2160  -72.6330 N.am   93  MET93      -0.1976
    122  CA        34.0120   84.7340  -72.6690 C.3    93  MET93       0.1605
    123  C         34.7930   84.1940  -71.5080 C.2    93  MET93       0.2287
    124  O         35.5290   84.9370  -70.8590 O.2    93  MET93      -0.2864
    125  CB        34.7260   84.2420  -73.9390 C.3    93  MET93       0.0413
    126  CG        33.8410   84.1570  -75.1590 C.3    93  MET93       0.0598
    127  SD        34.7490   83.9350  -76.6860 S.3    93  MET93      -0.1393
    128  CE        33.8850   84.9940  -77.8540 C.3    93  MET93       0.0692
    129  N         37.9140   79.2120  -72.9060 N.3    97  LEU97      -0.1245
    130  CA        37.4070   79.3390  -74.2640 C.3    97  LEU97       0.1561
    131  C         38.2630   80.3290  -75.0860 C.2    97  LEU97       0.2260
    132  O         38.6400   80.0540  -76.2190 O.2    97  LEU97      -0.2867
    133  CB        35.9390   79.7330  -74.2460 C.3    97  LEU97       0.0270
    134  CG        35.2910   80.1020  -75.5780 C.3    97  LEU97       0.0019
    135  CD1       35.3980   79.0250  -76.6340 C.3    97  LEU97       0.0001
    136  CD2       33.8890   80.3320  -75.2600 C.3    97  LEU97       0.0001
    137  N         41.2490   78.1030  -75.8400 N.3   100  ARG100     -0.1231
    138  CA        40.8030   77.1680  -76.8950 C.3   100  ARG100      0.1694
    139  C         40.7120   77.9170  -78.2730 C.2   100  ARG100      0.2591
    140  O         41.2580   77.4530  -79.2610 O.2   100  ARG100     -0.2718
    141  CB        39.4580   76.4170  -76.6220 C.3   100  ARG100      0.0321
    142  CG        39.0900   75.6190  -75.2970 C.3   100  ARG100      0.0489
    143  CD        37.4490   75.4360  -75.2250 C.3   100  ARG100      0.2205
    144  NE        37.0680   74.6270  -76.4230 N.pl3 100  ARG100     -0.0865
    145  CZ        36.5030   75.0010  -77.6130 C.cat 100  ARG100      0.5346
    146  NH1       36.0600   76.2320  -77.8620 N.pl3 100  ARG100      0.1354
    147  NH2       36.3500   74.0910  -78.5870 N.pl3 100  ARG100      0.1354
    148  N         40.0520   79.0710  -78.3310 N.am  101  ILE101     -0.1980
    149  CA        39.9030   79.8070  -79.5940 C.3   101  ILE101      0.1595
    150  C         41.2330   80.1910  -80.2470 C.2   101  ILE101      0.2287
    151  O         41.5100   79.8020  -81.3980 O.2   101  ILE101     -0.2864
    152  CB        39.0090   81.0680  -79.4760 C.3   101  ILE101      0.0276
    153  CG1       37.5430   80.7140  -79.7240 C.3   101  ILE101      0.0022
    154  CG2       39.4110   82.0970  -80.5300 C.3   101  ILE101      0.0022
    155  CD1       36.5780   81.4610  -78.8640 C.3   101  ILE101      0.0001
    156  N         36.2000   86.3710  -68.6880 N.3   120  ASN120     -0.1240
    157  CA        35.1350   86.5350  -67.6790 C.3   120  ASN120      0.1653
    158  C         35.4820   85.7960  -66.4500 C.2   120  ASN120      0.2266
    159  O         34.6510   85.5850  -65.5840 O.2   120  ASN120     -0.2867
    160  CB        33.8190   85.9240  -68.1500 C.3   120  ASN120      0.1155
    161  CG        33.0540   86.8330  -69.0420 C.2   120  ASN120      0.2627
    162  OD1       33.2240   88.0670  -69.0290 O.2   120  ASN120     -0.2716
    163  ND2       32.2200   86.2370  -69.8660 N.am  120  ASN120     -0.0877
@<TRIPOS>BOND
     1    99    96    1
     2    95    96    1
     3    96    97    1
     4    97   100   am
     5    97    98    2
     6    62    61    1
     7    62    63    1
     8   100   101    1
     9    68    67    2
    10   103   102    2
    11    65    63   am
    12    65    66    1
    13   111   110    2
    14    63    64    2
    15   101   102    1
    16   101   104    1
    17   102   108   am
    18   104   105    1
    19    67    66    1
    20    67    74   am
    21   110   109    1
    22    20    21    1
    23    77    76    2
    24    66    69    1
    25    83    84    2
    26    83    82    1
    27    69    70    1
    28    23    22    2
    29    91    90    2
    30    76    75    1
    31    76    81   am
    32    75    74    1
    33    75    78    1
    34    90    89    1
    35    82    81    1
    36    82    85    1
    37   108   109    1
    38    44    43    1
    39   105   107   am
    40   105   106    2
    41    80    78    1
    42    22    21    1
    43    22    28   am
    44    21    24    1
    45    70    71    1
    46    24    25    1
    47    34    32    1
    48    78    79    1
    49    42    41    2
    50    85    86    1
    51    85    87    1
    52    88    89    1
    53    88    94    1
    54    89    92    1
    55    29    28    1
    56    29    32    1
    57    29    30    1
    58    56    55    2
    59    43    40    1
    60    55    54    1
    61    32    33    1
    62    71    72   ar
    63    71    73   ar
    64    35    30   am
    65    35    36    1
    66    25    27   ar
    67    25    26   ar
    68    92    93    1
    69    39    40    1
    70    39    37   am
    71    94    93    1
    72    41    40    1
    73    41    45   am
    74    30    31    2
    75   151   150    2
    76    47    46    1
    77    47    48    2
    78    36    37    1
    79    54    53    1
    80    54    57    1
    81    46    45    1
    82    46    49    1
    83    37    38    2
    84   154   152    1
    85   150   149    1
    86    57    58    1
    87    58    60    1
    88    58    59    1
    89    49    50    1
    90   153   152    1
    91   153   155    1
    92   149   152    1
    93   149   148    1
    94   140   139    2
    95    51    50   ar
    96    50    52   ar
    97   147   145    1
    98   148   139   am
    99   139   138    1
   100   146   145    1
   101   128   127    1
   102   145   144    2
   103   138   141    1
   104   138   137    1
   105    18    17    1
   106   127   126    1
   107   112   113    1
   108   135   134    1
   109   141   142    1
   110   144   143    1
   111   132   131    2
   112    15    14    2
   113   115   114    2
   114   134   136    1
   115   134   133    1
   116   116   113    1
   117   113   114    1
   118    17    16    1
   119    17    19    1
   120   142   143    1
   121    16    13    1
   122   126   125    1
   123   131   130    1
   124   114   117   am
   125    14    13    1
   126    13    12    1
   127   130   133    1
   128   130   129    1
   129   125   122    1
   130   117   118    1
   131   120   119    2
   132   119   118    1
   133   119   121   am
   134    12     3   am
   135    11     9    1
   136   122   121    1
   137   122   123    1
   138    10     9    1
   139     4     3    2
   140     9     8    2
   141     3     2    1
   142   123   124    2
   143     8     7    1
   144     2     1    1
   145     2     5    1
   146     6     5    1
   147     6     7    1
   148   163   161   am
   149   161   162    2
   150   161   160    1
   151   156   157    1
   152   160   157    1
   153   157   158    1
   154   158   159    2
