@<TRIPOS>MOLECULE
tmp/3ku9A02.pdb
 143 142 0 0 0
SMALL
GASTEIGER

@<TRIPOS>ATOM
      1  N        -53.1610   29.6720   33.9180 N.3    59  TRP59      -0.1241
      2  CA       -52.8950   31.0950   33.8260 C.3    59  TRP59       0.1605
      3  C        -52.7480   31.7770   35.1680 C.2    59  TRP59       0.2264
      4  O        -53.3150   31.3550   36.1580 O.2    59  TRP59      -0.2867
      5  CB       -54.0390   31.7840   33.0890 C.3    59  TRP59       0.0550
      6  CG       -53.8840   31.8630   31.6190 C.ar   59  TRP59       0.0003
      7  CD1      -53.2200   32.8100   30.9280 C.ar   59  TRP59       0.0946
      8  CD2      -54.4380   30.9750   30.6520 C.ar   59  TRP59       0.0152
      9  NE1      -53.3050   32.5670   29.5890 N.ar   59  TRP59      -0.2442
     10  CE2      -54.0490   31.4400   29.3950 C.ar   59  TRP59       0.0810
     11  CE3      -55.2170   29.8260   30.7300 C.ar   59  TRP59       0.0012
     12  CZ2      -54.4120   30.8060   28.2310 C.ar   59  TRP59       0.0191
     13  CZ3      -55.5710   29.1980   29.5790 C.ar   59  TRP59       0.0001
     14  CH2      -55.1720   29.6880   28.3410 C.ar   59  TRP59       0.0015
     15  N        -54.1070   35.0600   36.0510 N.3    61  GLU61      -0.1245
     16  CA       -54.9870   36.0380   35.4550 C.3    61  GLU61       0.1567
     17  C        -55.0920   37.2720   36.3070 C.2    61  GLU61       0.2260
     18  O        -55.4000   37.1950   37.4750 O.2    61  GLU61      -0.2867
     19  CB       -56.3630   35.4370   35.2190 C.3    61  GLU61       0.0388
     20  CG       -56.3630   34.3970   34.1330 C.3    61  GLU61       0.1160
     21  CD       -57.7330   33.9330   33.7790 C.2    61  GLU61       0.3649
     22  OE1      -58.6400   34.7680   33.6910 O.co2  61  GLU61      -0.2457
     23  OE2      -57.9090   32.7300   33.5770 O.co2  61  GLU61      -0.2457
     24  N        -54.1690   38.5440   22.7020 N.3    88  PHE88      -0.1241
     25  CA       -55.4330   38.2600   22.0480 C.3    88  PHE88       0.1605
     26  C        -55.7490   39.3120   20.9970 C.2    88  PHE88       0.2264
     27  O        -56.8070   39.2570   20.3610 O.2    88  PHE88      -0.2867
     28  CB       -56.5420   38.1570   23.0860 C.3    88  PHE88       0.0534
     29  CG       -56.4070   36.9680   23.9830 C.ar   88  PHE88      -0.0203
     30  CD1      -55.8770   37.1060   25.2590 C.ar   88  PHE88      -0.0042
     31  CD2      -56.8000   35.7010   23.5470 C.ar   88  PHE88      -0.0042
     32  CE1      -55.7520   36.0030   26.0970 C.ar   88  PHE88      -0.0003
     33  CE2      -56.6810   34.5810   24.3820 C.ar   88  PHE88      -0.0003
     34  CZ       -56.1550   34.7330   25.6550 C.ar   88  PHE88      -0.0000
     35  N        -65.8780   33.4040   23.2080 N.3   164  TYR164     -0.1241
     36  CA       -64.5140   33.7870   23.5670 C.3   164  TYR164      0.1605
     37  C        -64.5480   34.8130   24.7040 C.2   164  TYR164      0.2264
     38  O        -63.8340   34.6880   25.6940 O.2   164  TYR164     -0.2867
     39  CB       -63.7320   34.3430   22.3700 C.3   164  TYR164      0.0534
     40  CG       -62.5690   35.1930   22.8290 C.ar  164  TYR164     -0.0201
     41  CD1      -61.3720   34.6020   23.2560 C.ar  164  TYR164     -0.0009
     42  CD2      -62.6810   36.5910   22.8960 C.ar  164  TYR164     -0.0009
     43  CE1      -60.3070   35.3770   23.7150 C.ar  164  TYR164      0.0417
     44  CE2      -61.6220   37.3750   23.3470 C.ar  164  TYR164      0.0417
     45  CZ       -60.4380   36.7570   23.7560 C.ar  164  TYR164      0.1957
     46  OH       -59.3990   37.5360   24.2080 O.3   164  TYR164     -0.2866
     47  N        -65.3940   31.3050   27.5520 N.3   168  TYR168     -0.1227
     48  CA       -63.9750   31.0030   27.6330 C.3   168  TYR168      0.1736
     49  C        -63.3500   31.5210   28.9320 C.2   168  TYR168      0.2595
     50  O        -62.2320   31.1370   29.2770 O.2   168  TYR168     -0.2718
     51  CB       -63.2960   31.6150   26.4120 C.3   168  TYR168      0.0548
     52  CG       -61.8290   31.3340   26.2400 C.ar  168  TYR168     -0.0200
     53  CD1      -61.3310   30.0330   26.2620 C.ar  168  TYR168     -0.0009
     54  CD2      -60.9350   32.3790   26.0170 C.ar  168  TYR168     -0.0009
     55  CE1      -59.9710   29.7860   26.0830 C.ar  168  TYR168      0.0417
     56  CE2      -59.5800   32.1440   25.8360 C.ar  168  TYR168      0.0417
     57  CZ       -59.1080   30.8520   25.8660 C.ar  168  TYR168      0.1957
     58  OH       -57.7670   30.6320   25.6860 O.3   168  TYR168     -0.2866
     59  N        -64.0760   32.3860   29.6490 N.am  169  GLU169     -0.1965
     60  CA       -63.6130   32.9360   30.9270 C.3   169  GLU169      0.1733
     61  C        -64.3460   32.3400   32.1240 C.2   169  GLU169      0.2616
     62  O        -63.7170   32.0140   33.1200 O.2   169  GLU169     -0.2715
     63  CB       -63.7480   34.4600   30.9510 C.3   169  GLU169      0.0429
     64  CG       -63.1180   35.1260   32.1760 C.3   169  GLU169      0.1163
     65  CD       -61.6020   34.8840   32.2840 C.2   169  GLU169      0.3649
     66  OE1      -61.1300   34.4110   33.3470 O.co2 169  GLU169     -0.2457
     67  OE2      -60.8730   35.1720   31.3050 O.co2 169  GLU169     -0.2457
     68  N        -65.6660   32.1940   32.0310 N.am  170  PHE170     -0.1974
     69  CA       -66.4650   31.7400   33.1770 C.3   170  PHE170      0.1639
     70  C        -67.0630   30.3460   33.0180 C.2   170  PHE170      0.2290
     71  O        -67.8200   29.9140   33.8810 O.2   170  PHE170     -0.2864
     72  CB       -67.6110   32.7140   33.4940 C.3   170  PHE170      0.0560
     73  CG       -67.2150   34.1660   33.5200 C.ar  170  PHE170     -0.0200
     74  CD1      -67.8850   35.0880   32.7120 C.ar  170  PHE170     -0.0042
     75  CD2      -66.2040   34.6230   34.3630 C.ar  170  PHE170     -0.0042
     76  CE1      -67.5440   36.4420   32.7350 C.ar  170  PHE170     -0.0003
     77  CE2      -65.8550   35.9690   34.3860 C.ar  170  PHE170     -0.0003
     78  CZ       -66.5240   36.8780   33.5730 C.ar  170  PHE170     -0.0000
     79  N        -59.5520   41.5320   37.1300 N.3   188  PHE188     -0.1241
     80  CA       -58.9350   42.3630   36.1140 C.3   188  PHE188      0.1605
     81  C        -58.8750   43.8440   36.4780 C.2   188  PHE188      0.2264
     82  O        -57.8550   44.5080   36.2320 O.2   188  PHE188     -0.2867
     83  CB       -59.6280   42.1670   34.7780 C.3   188  PHE188      0.0534
     84  CG       -59.4520   40.8110   34.2220 C.ar  188  PHE188     -0.0203
     85  CD1      -60.5530   40.0010   33.9960 C.ar  188  PHE188     -0.0042
     86  CD2      -58.1770   40.3320   33.9340 C.ar  188  PHE188     -0.0042
     87  CE1      -60.3910   38.7180   33.4750 C.ar  188  PHE188     -0.0003
     88  CE2      -57.9920   39.0620   33.4120 C.ar  188  PHE188     -0.0003
     89  CZ       -59.1050   38.2450   33.1770 C.ar  188  PHE188     -0.0000
     90  N        -55.1670   43.7220   33.4560 N.3   193  ASP193     -0.1239
     91  CA       -55.8850   43.0060   32.3930 C.3   193  ASP193      0.1674
     92  C        -55.1390   41.8040   31.8500 C.2   193  ASP193      0.2266
     93  O        -55.7110   41.0040   31.1130 O.2   193  ASP193     -0.2867
     94  CB       -56.2110   43.9240   31.2270 C.3   193  ASP193      0.1410
     95  CG       -57.1900   44.9940   31.5950 C.2   193  ASP193      0.3668
     96  OD1      -58.2220   44.6890   32.2430 O.co2 193  ASP193     -0.2456
     97  OD2      -56.9200   46.1560   31.2370 O.co2 193  ASP193     -0.2456
     98  N        -53.1010   38.3050   31.2310 N.3   195  VAL195     -0.1245
     99  CA       -52.9770   36.9360   31.6860 C.3   195  VAL195      0.1561
    100  C        -51.6330   36.3110   31.2450 C.2   195  VAL195      0.2260
    101  O        -51.1460   36.5830   30.1370 O.2   195  VAL195     -0.2867
    102  CB       -54.2170   36.0860   31.2800 C.3   195  VAL195      0.0252
    103  CG1      -55.4930   36.7780   31.7080 C.3   195  VAL195      0.0019
    104  CG2      -54.2590   35.8100   29.7790 C.3   195  VAL195      0.0019
    105  N        -64.6930   23.0860   32.6240 N.3   297  TYR297     -0.1241
    106  CA       -63.8460   23.7560   31.6420 C.3   297  TYR297      0.1605
    107  C        -62.8140   22.7490   31.1680 C.2   297  TYR297      0.2264
    108  O        -61.8760   22.4400   31.8990 O.2   297  TYR297     -0.2867
    109  CB       -63.1690   24.9620   32.3010 C.3   297  TYR297      0.0534
    110  CG       -62.2400   25.8100   31.4390 C.ar  297  TYR297     -0.0201
    111  CD1      -62.7130   26.9560   30.7910 C.ar  297  TYR297     -0.0009
    112  CD2      -60.8770   25.5030   31.3280 C.ar  297  TYR297     -0.0009
    113  CE1      -61.8720   27.7560   30.0280 C.ar  297  TYR297      0.0417
    114  CE2      -60.0200   26.2950   30.5590 C.ar  297  TYR297      0.0417
    115  CZ       -60.5260   27.4260   29.9150 C.ar  297  TYR297      0.1957
    116  OH       -59.6860   28.2210   29.1560 O.3   297  TYR297     -0.2866
    117  N        -64.2640   25.1740   38.2590 N.3   402  PHE402     -0.1241
    118  CA       -64.3260   26.3880   39.1110 C.3   402  PHE402      0.1605
    119  C        -65.7540   26.8820   39.2360 C.2   402  PHE402      0.2264
    120  O        -66.6060   26.5420   38.4150 O.2   402  PHE402     -0.2867
    121  CB       -63.4070   27.5380   38.6130 C.3   402  PHE402      0.0534
    122  CG       -63.3620   27.7130   37.1070 C.ar  402  PHE402     -0.0203
    123  CD1      -64.3730   28.4150   36.4320 C.ar  402  PHE402     -0.0042
    124  CD2      -62.2940   27.1970   36.3630 C.ar  402  PHE402     -0.0042
    125  CE1      -64.3330   28.5840   35.0290 C.ar  402  PHE402     -0.0003
    126  CE2      -62.2430   27.3530   34.9640 C.ar  402  PHE402     -0.0003
    127  CZ       -63.2670   28.0510   34.2950 C.ar  402  PHE402     -0.0000
    128  N        -63.3290   31.5540   41.4400 N.3   437  GLY437     -0.1210
    129  CA       -62.9580   31.0340   40.1290 C.3   437  GLY437      0.1956
    130  C        -61.4740   30.9900   39.8130 C.2   437  GLY437      0.2611
    131  O        -61.0850   30.4790   38.7570 O.2   437  GLY437     -0.2717
    132  N        -60.6430   31.5150   40.7120 N.am  438  TYR438     -0.1976
    133  CA       -59.2340   31.8100   40.3870 C.3   438  TYR438      0.1639
    134  C        -58.2580   31.3020   41.4270 C.2   438  TYR438      0.2290
    135  O        -58.5500   31.3250   42.6170 O.2   438  TYR438     -0.2864
    136  CB       -59.0270   33.3120   40.1900 C.3   438  TYR438      0.0560
    137  CG       -59.7500   33.8270   38.9840 C.ar  438  TYR438     -0.0198
    138  CD1      -60.9950   34.4500   39.1130 C.ar  438  TYR438     -0.0009
    139  CD2      -59.2110   33.6460   37.7000 C.ar  438  TYR438     -0.0009
    140  CE1      -61.6880   34.8990   37.9980 C.ar  438  TYR438      0.0417
    141  CE2      -59.8900   34.0960   36.5710 C.ar  438  TYR438      0.0417
    142  CZ       -61.1330   34.7200   36.7290 C.ar  438  TYR438      0.1957
    143  OH       -61.8090   35.1650   35.6170 O.3   438  TYR438     -0.2866
@<TRIPOS>BOND
     1    27    26    2
     2    26    25    1
     3    25    24    1
     4    25    28    1
     5    39    40    1
     6    39    36    1
     7    40    42   ar
     8    40    41   ar
     9    42    44   ar
    10    28    29    1
    11    35    36    1
    12    41    43   ar
    13    44    45   ar
    14    31    29   ar
    15    31    33   ar
    16    36    37    1
    17    43    45   ar
    18    45    46    1
    19    29    30   ar
    20    33    34   ar
    21    37    38    2
    22    30    32   ar
    23    34    32   ar
    24    58    57    1
    25    56    57   ar
    26    56    54   ar
    27    57    55   ar
    28    54    52   ar
    29    55    53   ar
    30    52    53   ar
    31    52    51    1
    32    51    48    1
    33    47    48    1
    34    48    49    1
    35    12    14   ar
    36    12    10   ar
    37    14    13   ar
    38    49    50    2
    39    49    59   am
    40   116   115    1
    41    10     9   ar
    42    10     8   ar
    43    13    11   ar
    44     9     7   ar
    45    59    60    1
    46   104   102    1
    47   115   113   ar
    48   115   114   ar
    49   113   111   ar
    50   101   100    2
    51   114   112   ar
    52     8    11   ar
    53     8     6   ar
    54   111   110   ar
    55    60    63    1
    56    60    61    1
    57     7     6   ar
    58    63    64    1
    59    93    92    2
    60   107   106    1
    61   107   108    2
    62    94    95    1
    63    94    91    1
    64    98    99    1
    65    97    95   ar
    66   100    99    1
    67   102    99    1
    68   102   103    1
    69    67    65   ar
    70   112   110   ar
    71   110   109    1
    72    95    96   ar
    73     6     5    1
    74   106   109    1
    75   106   105    1
    76    92    91    1
    77    68    61   am
    78    68    69    1
    79    61    62    2
    80    64    65    1
    81    65    66   ar
    82    91    90    1
    83    74    76   ar
    84    74    73   ar
    85    76    78   ar
    86    70    69    1
    87    70    71    2
    88     5     2    1
    89    89    88   ar
    90    89    87   ar
    91    69    72    1
    92    88    86   ar
    93    87    85   ar
    94    72    73    1
    95    73    75   ar
    96    78    77   ar
    97    23    21   ar
    98    22    21   ar
    99    21    20    1
   100     2     1    1
   101     2     3    1
   102    86    84   ar
   103    85    84   ar
   104    20    19    1
   105    84    83    1
   106   127   126   ar
   107   127   125   ar
   108    75    77   ar
   109    83    80    1
   110   126   124   ar
   111   125   123   ar
   112     3     4    2
   113    19    16    1
   114    16    15    1
   115    16    17    1
   116   143   142    1
   117    80    81    1
   118    80    79    1
   119    82    81    2
   120    17    18    2
   121   124   122   ar
   122   123   122   ar
   123   141   142   ar
   124   141   139   ar
   125   142   140   ar
   126   122   121    1
   127   139   137   ar
   128   140   138   ar
   129   117   118    1
   130   120   119    2
   131   121   118    1
   132   131   130    2
   133   137   138   ar
   134   137   136    1
   135   118   119    1
   136   130   129    1
   137   130   132   am
   138   129   128    1
   139   136   133    1
   140   133   132    1
   141   133   134    1
   142   134   135    2
