@<TRIPOS>MOLECULE
tmp/3kuiA00.pdb
 146 139 0 0 0
SMALL
GASTEIGER

@<TRIPOS>ATOM
      1  N          8.8930   13.1270   25.5130 N.3    16  GLN16      -0.1245
      2  CA        10.2890   13.1370   25.9110 C.3    16  GLN16       0.1566
      3  C         10.6690   11.7580   26.4590 C.2    16  GLN16       0.2260
      4  O         11.7400   11.2170   26.1620 O.2    16  GLN16      -0.2867
      5  CB        10.5050   14.1890   26.9900 C.3    16  GLN16       0.0367
      6  CG        11.9510   14.5780   27.1750 C.3    16  GLN16       0.0905
      7  CD        12.5080   15.2530   25.9480 C.2    16  GLN16       0.2608
      8  OE1       11.8430   16.0920   25.3380 O.2    16  GLN16      -0.2717
      9  NE2       13.7340   14.9030   25.5800 N.am   16  GLN16      -0.0878
     10  N         10.6540    9.3570   23.5070 N.3    19  GLY19      -0.1210
     11  CA        11.7600    9.6160   22.6080 C.3    19  GLY19       0.1956
     12  C         13.0610    9.0070   23.1040 C.2    19  GLY19       0.2611
     13  O         13.8860    8.5730   22.3120 O.2    19  GLY19      -0.2717
     14  N         13.2500    8.9780   24.4170 N.am   20  GLU20      -0.1979
     15  CA        14.4630    8.4140   24.9970 C.3    20  GLU20       0.1602
     16  C         14.5960    6.9230   24.6940 C.2    20  GLU20       0.2287
     17  O         15.6980    6.4020   24.5200 O.2    20  GLU20      -0.2864
     18  CB        14.4660    8.6050   26.5150 C.3    20  GLU20       0.0415
     19  CG        14.6880   10.0290   26.9900 C.3    20  GLU20       0.1163
     20  CD        16.0240   10.6050   26.5500 C.2    20  GLU20       0.3649
     21  OE1       16.9970    9.8360   26.4020 O.co2  20  GLU20      -0.2457
     22  OE2       16.1020   11.8380   26.3690 O.co2  20  GLU20      -0.2457
     23  N         14.9000    6.7780   20.4480 N.3    23  PHE23      -0.1241
     24  CA        16.1030    7.2910   19.8340 C.3    23  PHE23       0.1605
     25  C         17.2230    6.2850   19.5390 C.2    23  PHE23       0.2264
     26  O         17.6830    6.1820   18.4040 O.2    23  PHE23      -0.2867
     27  CB        16.6600    8.4410   20.6700 C.3    23  PHE23       0.0534
     28  CG        17.8160    9.1010   20.0420 C.ar   23  PHE23      -0.0203
     29  CD1       17.6330    9.9500   18.9640 C.ar   23  PHE23      -0.0042
     30  CD2       19.0980    8.8210   20.4690 C.ar   23  PHE23      -0.0042
     31  CE1       18.7220   10.5070   18.3140 C.ar   23  PHE23      -0.0003
     32  CE2       20.1910    9.3680   19.8310 C.ar   23  PHE23      -0.0003
     33  CZ        20.0070   10.2120   18.7480 C.ar   23  PHE23      -0.0000
     34  N         17.8590   12.2310   15.0710 N.3    35  GLY35      -0.1210
     35  CA        17.1470   13.2780   15.7940 C.3    35  GLY35       0.1956
     36  C         15.8300   13.6900   15.1620 C.2    35  GLY35       0.2611
     37  O         14.7830   13.7230   15.8230 O.2    35  GLY35      -0.2717
     38  N         15.9010   14.0020   13.8680 N.am   36  LYS36      -0.1979
     39  CA        14.7570   14.4180   13.0670 C.3    36  LYS36       0.1596
     40  C         13.6730   13.3420   12.9740 C.2    36  LYS36       0.2287
     41  O         12.5090   13.5970   13.2900 O.2    36  LYS36      -0.2864
     42  CB        15.2280   14.7800   11.6540 C.3    36  LYS36       0.0298
     43  CG        14.1590   15.4320   10.7740 C.3    36  LYS36       0.0038
     44  CD        13.6330   16.7280   11.3960 C.3    36  LYS36       0.0206
     45  CE        12.6870   17.4780   10.4580 C.3    36  LYS36       0.1093
     46  NZ        12.0440   18.6550   11.1120 N.3    36  LYS36      -0.1314
     47  N         13.1030   10.7550   14.7680 N.3    38  THR38      -0.1203
     48  CA        12.5120   10.5770   16.0780 C.3    38  THR38       0.1994
     49  C         11.4710   11.6870   16.2890 C.2    38  THR38       0.2618
     50  O         10.3140   11.4170   16.6170 O.2    38  THR38      -0.2717
     51  CB        13.6070   10.6430   17.1640 C.3    38  THR38       0.1784
     52  OG1       14.5700    9.6120   16.9220 O.3    38  THR38      -0.2211
     53  CG2       13.0140   10.4460   18.5600 C.3    38  THR38       0.0376
     54  N         11.8840   12.9340   16.0790 N.am   39  GLY39      -0.1942
     55  CA        10.9730   14.0560   16.2430 C.3    39  GLY39       0.2014
     56  C          9.6840   13.8820   15.4530 C.2    39  GLY39       0.2639
     57  O          8.5820   14.1180   15.9620 O.2    39  GLY39      -0.2714
     58  N          9.8250   13.4600   14.2010 N.am   40  MET40      -0.1963
     59  CA         8.6860   13.2420   13.3260 C.3    40  MET40       0.1736
     60  C          7.7490   12.1600   13.8470 C.2    40  MET40       0.2616
     61  O          6.5240   12.2850   13.7690 O.2    40  MET40      -0.2715
     62  CB         9.1770   12.8490   11.9400 C.3    40  MET40       0.0427
     63  CG         9.8580   13.9510   11.1660 C.3    40  MET40       0.0599
     64  SD        10.5080   13.2840    9.6360 S.3    40  MET40      -0.1393
     65  CE         8.9890   12.6900    8.8330 C.3    40  MET40       0.0692
     66  N          8.3230   11.0930   14.3830 N.am   41  LEU41      -0.1963
     67  CA         7.5150    9.9870   14.8900 C.3    41  LEU41       0.1728
     68  C          6.8080   10.2670   16.2100 C.2    41  LEU41       0.2616
     69  O          5.7530    9.6880   16.4930 O.2    41  LEU41      -0.2715
     70  CB         8.3790    8.7310   15.0160 C.3    41  LEU41       0.0311
     71  CG         8.9610    8.2730   13.6750 C.3    41  LEU41       0.0022
     72  CD1        9.5680    6.8870   13.8090 C.3    41  LEU41       0.0001
     73  CD2        7.8500    8.2560   12.6340 C.3    41  LEU41       0.0001
     74  N          7.3790   11.1700   17.0030 N.am   42  LEU42      -0.1963
     75  CA         6.8110   11.5070   18.2980 C.3    42  LEU42       0.1728
     76  C          5.4890   12.2530   18.2460 C.2    42  LEU42       0.2616
     77  O          4.9670   12.6580   19.2770 O.2    42  LEU42      -0.2715
     78  CB         7.8270   12.2900   19.1240 C.3    42  LEU42       0.0311
     79  CG         8.8860   11.3760   19.7490 C.3    42  LEU42       0.0022
     80  CD1       10.0210   12.1780   20.3670 C.3    42  LEU42       0.0001
     81  CD2        8.2130   10.4900   20.7910 C.3    42  LEU42       0.0001
     82  N          4.9400   12.4250   17.0530 N.am   43  GLU43      -0.1963
     83  CA         3.6710   13.1190   16.9200 C.3    43  GLU43       0.1733
     84  C          2.5730   12.1120   16.6160 C.2    43  GLU43       0.2616
     85  O          1.4880   12.4600   16.1450 O.2    43  GLU43      -0.2715
     86  CB         3.7670   14.1600   15.8150 C.3    43  GLU43       0.0429
     87  CG         4.8270   15.2020   16.0810 C.3    43  GLU43       0.1163
     88  CD         4.8000   16.3230   15.0750 C.2    43  GLU43       0.3649
     89  OE1        4.9040   16.0300   13.8610 O.co2  43  GLU43      -0.2457
     90  OE2        4.6760   17.4960   15.4990 O.co2  43  GLU43      -0.2457
     91  N          2.8760   10.8600   16.9300 N.am   44  ILE44      -0.1977
     92  CA         1.9980    9.7290   16.6940 C.3    44  ILE44       0.1596
     93  C          1.4020    9.2320   18.0080 C.2    44  ILE44       0.2287
     94  O          1.8960    9.5860   19.0790 O.2    44  ILE44      -0.2864
     95  CB         2.8200    8.6130   16.0200 C.3    44  ILE44       0.0276
     96  CG1        3.3180    9.1160   14.6600 C.3    44  ILE44       0.0022
     97  CG2        2.0100    7.3390   15.9040 C.3    44  ILE44       0.0022
     98  CD1        4.4520    8.3040   14.0560 C.3    44  ILE44       0.0001
     99  N          8.0430    2.2810    9.8980 N.3    62  LYS62      -0.1245
    100  CA         7.6920    3.6800   10.0970 C.3    62  LYS62       0.1561
    101  C          8.8940    4.5760    9.8040 C.2    62  LYS62       0.2260
    102  O          8.7550    5.6550    9.2280 O.2    62  LYS62      -0.2867
    103  CB         7.2150    3.8970   11.5340 C.3    62  LYS62       0.0271
    104  CG         6.1840    4.9910   11.6650 C.3    62  LYS62       0.0035
    105  CD         4.9880    4.6980   10.7600 C.3    62  LYS62       0.0206
    106  CE         3.9310    5.7850   10.8460 C.3    62  LYS62       0.1093
    107  NZ         2.8150    5.5510    9.8900 N.3    62  LYS62      -0.1314
    108  N          9.5110    5.0670    6.1490 N.3    65  GLU65      -0.1231
    109  CA         8.4610    5.9260    5.6360 C.3    65  GLU65       0.1699
    110  C          8.8900    7.3720    5.8890 C.2    65  GLU65       0.2592
    111  O          8.8910    8.2010    4.9880 O.2    65  GLU65      -0.2718
    112  CB         7.1480    5.5800    6.3590 C.3    65  GLU65       0.0402
    113  CG         5.8850    6.2320    5.8180 C.3    65  GLU65       0.1161
    114  CD         4.6280    5.7130    6.5170 C.2    65  GLU65       0.3649
    115  OE1        4.2570    4.5360    6.3010 O.co2  65  GLU65      -0.2457
    116  OE2        4.0160    6.4800    7.2940 O.co2  65  GLU65      -0.2457
    117  N          9.2870    7.6590    7.1210 N.am   66  ALA66      -0.1980
    118  CA         9.7350    8.9960    7.4770 C.3    66  ALA66       0.1597
    119  C         10.9230    9.4170    6.6260 C.2    66  ALA66       0.2287
    120  O         11.0310   10.5810    6.2260 O.2    66  ALA66      -0.2864
    121  CB        10.1190    9.0420    8.9460 C.3    66  ALA66       0.0319
    122  N          9.6990   10.4820    2.9030 N.3    69  VAL69      -0.1231
    123  CA         9.0060   11.7670    2.8730 C.3    69  VAL69       0.1692
    124  C          9.9490   12.9060    3.1580 C.2    69  VAL69       0.2591
    125  O          9.8990   13.9620    2.5280 O.2    69  VAL69      -0.2718
    126  CB         7.8710   11.8060    3.9100 C.3    69  VAL69       0.0266
    127  CG1        7.0720   13.0800    3.7490 C.3    69  VAL69       0.0020
    128  CG2        6.9700   10.6060    3.7380 C.3    69  VAL69       0.0020
    129  N         10.8170   12.6730    4.1260 N.am   70  LEU70      -0.1980
    130  CA        11.8040   13.6540    4.5270 C.3    70  LEU70       0.1596
    131  C         12.6600   14.0660    3.3340 C.2    70  LEU70       0.2287
    132  O         12.9000   15.2510    3.1120 O.2    70  LEU70      -0.2864
    133  CB        12.6960   13.0540    5.6070 C.3    70  LEU70       0.0297
    134  CG        13.2400   14.0050    6.6650 C.3    70  LEU70       0.0022
    135  CD1       14.2390   13.2510    7.5360 C.3    70  LEU70       0.0001
    136  CD2       13.8940   15.2010    6.0030 C.3    70  LEU70       0.0001
    137  N         10.6310   15.7480    0.4150 N.3    73  HIS73      -0.1241
    138  CA        10.3310   17.1240    0.7350 C.3    73  HIS73       0.1621
    139  C         11.5280   17.9970    0.4510 C.2    73  HIS73       0.2264
    140  O         11.4620   18.9170   -0.3530 O.2    73  HIS73      -0.2867
    141  CB         9.9660   17.2820    2.1950 C.3    73  HIS73       0.0745
    142  CG         9.9550   18.7030    2.6330 C.ar   73  HIS73       0.0817
    143  ND1        9.1330   19.6430    2.0570 N.ar   73  HIS73      -0.2268
    144  CD2       10.7110   19.3640    3.5380 C.ar   73  HIS73       0.1154
    145  CE1        9.3820   20.8260    2.5890 C.ar   73  HIS73       0.1986
    146  NE2       10.3370   20.6840    3.4890 N.ar   73  HIS73      -0.2212
@<TRIPOS>BOND
     1   140   139    2
     2   137   138    1
     3   139   138    1
     4   138   141    1
     5   143   145   ar
     6   143   142   ar
     7   141   142    1
     8   125   124    2
     9   145   146   ar
    10   142   144   ar
    11   123   122    1
    12   123   124    1
    13   123   126    1
    14   132   131    2
    15   124   129   am
    16   131   130    1
    17   146   144   ar
    18   128   126    1
    19   127   126    1
    20   129   130    1
    21   130   133    1
    22   111   110    2
    23   133   134    1
    24   109   110    1
    25   109   108    1
    26   109   112    1
    27   113   112    1
    28   113   114    1
    29   110   117   am
    30   136   134    1
    31   120   119    2
    32   115   114   ar
    33   114   116   ar
    34   119   118    1
    35   134   135    1
    36   117   118    1
    37   118   121    1
    38    65    64    1
    39   102   101    2
    40    64    63    1
    41   101   100    1
    42   107   106    1
    43    99   100    1
    44   100   103    1
    45    45    46    1
    46    45    44    1
    47   105   106    1
    48   105   104    1
    49    43    44    1
    50    43    42    1
    51    63    62    1
    52   103   104    1
    53    42    39    1
    54    62    59    1
    55    73    71    1
    56    40    39    1
    57    40    41    2
    58    39    38    1
    59    59    60    1
    60    59    58    1
    61    71    72    1
    62    71    70    1
    63    61    60    2
    64    60    66   am
    65    89    88   ar
    66    38    36   am
    67    98    96    1
    68    58    56   am
    69    66    67    1
    70    96    95    1
    71    47    48    1
    72    67    70    1
    73    67    68    1
    74    34    35    1
    75    88    90   ar
    76    88    87    1
    77    36    35    1
    78    36    37    2
    79    56    57    2
    80    56    55    1
    81    86    87    1
    82    86    83    1
    83    97    95    1
    84    95    92    1
    85    48    49    1
    86    48    51    1
    87    54    55    1
    88    54    49   am
    89    85    84    2
    90    68    69    2
    91    68    74   am
    92    49    50    2
    93    84    83    1
    94    84    91   am
    95    92    91    1
    96    92    93    1
    97    83    82    1
    98    52    51    1
    99    74    75    1
   100    82    76   am
   101    51    53    1
   102    93    94    2
   103    76    75    1
   104    76    77    2
   105    75    78    1
   106    31    33   ar
   107    31    29   ar
   108    26    25    2
   109    33    32   ar
   110    29    28   ar
   111    78    79    1
   112    25    24    1
   113    79    80    1
   114    79    81    1
   115    32    30   ar
   116    24    23    1
   117    24    27    1
   118    28    30   ar
   119    28    27    1
   120    13    12    2
   121    11    12    1
   122    11    10    1
   123    12    14   am
   124    14    15    1
   125    17    16    2
   126    16    15    1
   127    15    18    1
   128     8     7    2
   129     1     2    1
   130     9     7   am
   131     2     3    1
   132     2     5    1
   133     7     6    1
   134     4     3    2
   135    22    20   ar
   136    21    20   ar
   137    18    19    1
   138    20    19    1
   139     5     6    1
