@<TRIPOS>MOLECULE
tmp/3kukA00.pdb
 144 134 0 0 0
SMALL
GASTEIGER

@<TRIPOS>ATOM
      1  N          0.2740   46.1220 -126.6480 N.3    44  GLY44      -0.1225
      2  CA        -0.3100   45.9400 -127.9570 C.3    44  GLY44       0.1811
      3  C         -0.8520   47.2220 -128.5610 C.2    44  GLY44       0.2280
      4  O         -0.5420   47.5450 -129.7050 O.2    44  GLY44      -0.2866
      5  N          1.6910   45.8290 -131.3210 N.3    90  GLY90      -0.1210
      6  CA         0.6330   45.0640 -131.9450 C.3    90  GLY90       0.1956
      7  C          0.4570   43.7270 -131.2480 C.2    90  GLY90       0.2611
      8  O          0.8410   43.5650 -130.0900 O.2    90  GLY90      -0.2717
      9  N         -0.1060   42.7580 -131.9600 N.am   91  MET91      -0.1979
     10  CA        -0.4420   41.4650 -131.3820 C.3    91  MET91       0.1605
     11  C          0.3280   40.3290 -132.0290 C.2    91  MET91       0.2287
     12  O          0.4640   40.2650 -133.2470 O.2    91  MET91      -0.2864
     13  CB        -1.9330   41.1970 -131.5470 C.3    91  MET91       0.0413
     14  CG        -2.8090   42.2510 -130.9300 C.3    91  MET91       0.0598
     15  SD        -4.5400   41.9100 -131.2340 S.3    91  MET91      -0.1393
     16  CE        -4.8310   42.9070 -132.6900 C.3    91  MET91       0.0692
     17  N          6.5130   44.3730 -120.2350 N.3   119  ARG119     -0.1245
     18  CA         5.3230   44.2520 -121.0620 C.3   119  ARG119      0.1563
     19  C          4.0840   44.4040 -120.1980 C.2   119  ARG119      0.2260
     20  O          3.7520   43.5140 -119.4180 O.2   119  ARG119     -0.2867
     21  CB         5.2840   42.9160 -121.8070 C.3   119  ARG119      0.0307
     22  CG         3.9740   42.6760 -122.5340 C.3   119  ARG119      0.0489
     23  CD         3.9170   41.3080 -123.2020 C.3   119  ARG119      0.2205
     24  NE         2.5750   40.7330 -123.1220 N.pl3 119  ARG119     -0.0865
     25  CZ         1.4840   41.3090 -123.6240 C.cat 119  ARG119      0.5346
     26  NH1        1.5810   42.4760 -124.2510 N.pl3 119  ARG119      0.1354
     27  NH2        0.2950   40.7230 -123.4980 N.pl3 119  ARG119      0.1354
     28  N         -2.6230   42.5600 -121.7640 N.3   122  THR122     -0.1203
     29  CA        -3.8920   41.9850 -121.3500 C.3   122  THR122      0.1994
     30  C         -3.8540   40.4910 -121.6330 C.2   122  THR122      0.2619
     31  O         -3.0240   40.0310 -122.4100 O.2   122  THR122     -0.2717
     32  CB        -5.0630   42.6180 -122.1140 C.3   122  THR122      0.1784
     33  OG1       -5.3520   41.8350 -123.2730 O.3   122  THR122     -0.2211
     34  CG2       -4.7240   44.0390 -122.5440 C.3   122  THR122      0.0376
     35  N         -4.7480   39.7280 -121.0150 N.am  123  SER123     -0.1937
     36  CA        -4.6900   38.2790 -121.1540 C.3   123  SER123      0.2055
     37  C         -6.0040   37.5740 -120.8480 C.2   123  SER123      0.2643
     38  O         -6.9890   38.2100 -120.4620 O.2   123  SER123     -0.2714
     39  CB        -3.5930   37.7240 -120.2450 C.3   123  SER123      0.2130
     40  OG        -3.7430   38.1920 -118.9140 O.3   123  SER123     -0.2179
     41  N         -6.0080   36.2560 -121.0310 N.am  124  GLY124     -0.1954
     42  CA        -7.0820   35.4110 -120.5410 C.3   124  GLY124      0.1869
     43  C         -6.6300   34.7030 -119.2690 C.2   124  GLY124      0.2309
     44  O         -5.4840   34.2460 -119.1880 O.2   124  GLY124     -0.2863
     45  N         -5.2300   33.0910 -131.0550 N.3   194  PHE194     -0.1241
     46  CA        -6.1360   33.5190 -130.0030 C.3   194  PHE194      0.1605
     47  C         -7.3450   32.5970 -129.8870 C.2   194  PHE194      0.2264
     48  O         -7.9090   32.4560 -128.8000 O.2   194  PHE194     -0.2867
     49  CB        -6.5810   34.9510 -130.2980 C.3   194  PHE194      0.0534
     50  CG        -7.5440   35.5300 -129.3020 C.ar  194  PHE194     -0.0203
     51  CD1       -8.8860   35.1950 -129.3350 C.ar  194  PHE194     -0.0042
     52  CD2       -7.1180   36.4680 -128.3720 C.ar  194  PHE194     -0.0042
     53  CE1       -9.7780   35.7600 -128.4400 C.ar  194  PHE194     -0.0003
     54  CE2       -8.0070   37.0370 -127.4790 C.ar  194  PHE194     -0.0003
     55  CZ        -9.3380   36.6810 -127.5160 C.ar  194  PHE194     -0.0000
     56  N         -5.8830   28.7580 -128.3320 N.3   198  GLN198     -0.1245
     57  CA        -6.1480   29.0000 -126.9270 C.3   198  GLN198      0.1566
     58  C         -7.3900   28.2380 -126.4850 C.2   198  GLN198      0.2260
     59  O         -8.0080   28.5660 -125.4690 O.2   198  GLN198     -0.2867
     60  CB        -6.3400   30.4920 -126.6860 C.3   198  GLN198      0.0367
     61  CG        -5.0770   31.3050 -126.8210 C.3   198  GLN198      0.0905
     62  CD        -5.2540   32.7140 -126.3010 C.2   198  GLN198      0.2608
     63  OE1       -6.2990   33.0470 -125.7380 O.2   198  GLN198     -0.2717
     64  NE2       -4.2340   33.5510 -126.4800 N.am  198  GLN198     -0.0878
     65  N        -10.4060   28.1570 -127.5340 N.3   200  ARG200     -0.1245
     66  CA       -11.7200   28.8070 -127.6660 C.3   200  ARG200      0.1563
     67  C        -12.7090   28.0330 -128.5380 C.2   200  ARG200      0.2260
     68  O        -12.3110   27.2960 -129.4480 O.2   200  ARG200     -0.2867
     69  CB       -11.5640   30.1950 -128.2660 C.3   200  ARG200      0.0307
     70  CG       -11.0620   31.2150 -127.3110 C.3   200  ARG200      0.0489
     71  CD       -11.2060   32.5700 -127.9190 C.3   200  ARG200      0.2205
     72  NE       -11.3750   33.5850 -126.8970 N.pl3 200  ARG200     -0.0865
     73  CZ       -10.3930   34.0170 -126.1240 C.cat 200  ARG200      0.5346
     74  NH1       -9.1730   33.5100 -126.2540 N.pl3 200  ARG200      0.1354
     75  NH2      -10.6330   34.9510 -125.2190 N.pl3 200  ARG200      0.1354
     76  N         -3.1590   33.1750 -120.1270 N.3   228  ILE228     -0.1231
     77  CA        -2.8510   32.8780 -121.5240 C.3   228  ILE228      0.1692
     78  C         -2.7590   34.1670 -122.3290 C.2   228  ILE228      0.2592
     79  O         -3.6770   34.9850 -122.2960 O.2   228  ILE228     -0.2718
     80  CB        -3.9800   32.0670 -122.1830 C.3   228  ILE228      0.0266
     81  CG1       -4.3170   30.8180 -121.3730 C.3   228  ILE228      0.0019
     82  CG2       -3.5910   31.6810 -123.5870 C.3   228  ILE228      0.0020
     83  CD1       -5.6140   30.1880 -121.7860 C.3   228  ILE228      0.0001
     84  N         -1.6690   34.3560 -123.0610 N.am  229  GLU229     -0.1966
     85  CA        -1.6190   35.4560 -124.0230 C.3   229  GLU229      0.1733
     86  C         -0.6990   35.1710 -125.2240 C.2   229  GLU229      0.2616
     87  O         -0.4010   34.0120 -125.5080 O.2   229  GLU229     -0.2715
     88  CB        -1.3500   36.8060 -123.3300 C.3   229  GLU229      0.0429
     89  CG        -0.1700   36.8470 -122.3740 C.3   229  GLU229      0.1163
     90  CD         1.1630   36.9630 -123.0980 C.2   229  GLU229      0.3649
     91  OE1        1.5750   35.9670 -123.7280 O.co2 229  GLU229     -0.2457
     92  OE2        1.7970   38.0440 -123.0350 O.co2 229  GLU229     -0.2457
     93  N         -0.2630   36.2030 -125.9410 N.am  230  MET230     -0.1963
     94  CA         0.4420   35.9660 -127.2060 C.3   230  MET230      0.1736
     95  C          1.7480   36.7320 -127.4200 C.2   230  MET230      0.2616
     96  O          2.0400   37.1360 -128.5490 O.2   230  MET230     -0.2715
     97  CB        -0.4950   36.2650 -128.3800 C.3   230  MET230      0.0427
     98  CG        -1.7200   35.3810 -128.4120 C.3   230  MET230      0.0599
     99  SD        -3.0240   36.0780 -129.4240 S.3   230  MET230     -0.1393
    100  CE        -2.4200   35.6460 -131.0570 C.3   230  MET230      0.0692
    101  N          2.5320   36.9410 -126.3650 N.am  231  GLU231     -0.1977
    102  CA         3.7690   37.7140 -126.5070 C.3   231  GLU231      0.1602
    103  C          4.8790   37.2900 -125.5430 C.2   231  GLU231      0.2287
    104  O          6.0580   37.3330 -125.8880 O.2   231  GLU231     -0.2864
    105  CB         3.4910   39.2120 -126.3630 C.3   231  GLU231      0.0415
    106  CG         2.7370   39.8250 -127.5300 C.3   231  GLU231      0.1163
    107  CD         1.2360   39.8290 -127.3160 C.2   231  GLU231      0.3649
    108  OE1        0.7820   39.2690 -126.2940 O.co2 231  GLU231     -0.2457
    109  OE2        0.5120   40.3910 -128.1690 O.co2 231  GLU231     -0.2457
    110  N         -8.8240   39.3440 -118.4330 N.3   253  LEU253     -0.1231
    111  CA       -10.0460   40.0060 -118.9110 C.3   253  LEU253      0.1693
    112  C        -11.2830   39.1030 -118.8600 C.2   253  LEU253      0.2591
    113  O        -12.4040   39.5620 -119.1160 O.2   253  LEU253     -0.2718
    114  CB        -9.8720   40.5540 -120.3370 C.3   253  LEU253      0.0284
    115  CG        -8.8350   41.6320 -120.6810 C.3   253  LEU253      0.0019
    116  CD1       -9.0160   42.0650 -122.1220 C.3   253  LEU253      0.0001
    117  CD2       -8.9200   42.8430 -119.7670 C.3   253  LEU253      0.0001
    118  N        -11.0700   37.8230 -118.5530 N.am  254  LEU254     -0.1980
    119  CA       -12.1600   36.8660 -118.3760 C.3   254  LEU254      0.1596
    120  C        -11.6030   35.5870 -117.7850 C.2   254  LEU254      0.2287
    121  O        -10.4070   35.3200 -117.9010 O.2   254  LEU254     -0.2864
    122  CB       -12.8440   36.5540 -119.7070 C.3   254  LEU254      0.0297
    123  CG       -12.1840   35.5280 -120.6350 C.3   254  LEU254      0.0022
    124  CD1      -13.1610   35.0170 -121.6940 C.3   254  LEU254      0.0001
    125  CD2      -10.9390   36.1050 -121.2890 C.3   254  LEU254      0.0001
    126  N        -11.1880   31.9190 -118.3370 N.3   256  ARG256     -0.1245
    127  CA       -11.2970   31.0580 -119.5120 C.3   256  ARG256      0.1563
    128  C        -11.9150   29.7020 -119.1680 C.2   256  ARG256      0.2260
    129  O        -12.2610   28.9210 -120.0630 O.2   256  ARG256     -0.2867
    130  CB        -9.9410   30.8960 -120.2080 C.3   256  ARG256      0.0307
    131  CG        -9.5270   32.0950 -121.0450 C.3   256  ARG256      0.0489
    132  CD       -10.4440   32.2960 -122.2670 C.3   256  ARG256      0.2205
    133  NE       -10.8770   31.0260 -122.8490 N.pl3 256  ARG256     -0.0865
    134  CZ       -10.1240   30.2700 -123.6440 C.cat 256  ARG256      0.5346
    135  NH1      -10.5950   29.1220 -124.1230 N.pl3 256  ARG256      0.1354
    136  NH2       -8.8950   30.6610 -123.9560 N.pl3 256  ARG256      0.1354
    137  N        -15.3140   38.0870 -124.8060 N.3   262  ILE262     -0.1245
    138  CA       -14.9820   39.2020 -123.9240 C.3   262  ILE262      0.1561
    139  C        -16.1700   40.1480 -123.8140 C.2   262  ILE262      0.2260
    140  O        -16.2550   41.1560 -124.5190 O.2   262  ILE262     -0.2867
    141  CB       -13.7270   39.9360 -124.4110 C.3   262  ILE262      0.0252
    142  CG1      -12.7150   38.9170 -124.9400 C.3   262  ILE262      0.0019
    143  CG2      -13.1170   40.7520 -123.2920 C.3   262  ILE262      0.0019
    144  CD1      -11.2870   39.2620 -124.6250 C.3   262  ILE262      0.0001
@<TRIPOS>BOND
     1    12    11    2
     2    16    15    1
     3    11    10    1
     4     9    10    1
     5     9     7   am
     6     6     5    1
     7     6     7    1
     8    13    10    1
     9    13    14    1
    10     7     8    2
    11    15    14    1
    12   100    99    1
    13    45    46    1
    14    49    46    1
    15    49    50    1
    16    46    47    1
    17    47    48    2
    18     4     3    2
    19    68    67    2
    20    99    98    1
    21    51    50   ar
    22    51    53   ar
    23    50    52   ar
    24     3     2    1
    25    96    95    2
    26    67    66    1
    27    53    55   ar
    28    98    97    1
    29    97    94    1
    30    52    54   ar
    31    56    57    1
    32    69    66    1
    33    69    70    1
    34   109   107   ar
    35     2     1    1
    36    71    70    1
    37    71    72    1
    38    66    65    1
    39   106   107    1
    40   106   105    1
    41    55    54   ar
    42    95    94    1
    43    95   101   am
    44   107   108   ar
    45    94    93    1
    46    57    60    1
    47    57    58    1
    48    72    73    2
    49    61    60    1
    50    61    62    1
    51   102   101    1
    52   102   105    1
    53   102   103    1
    54    58    59    2
    55    64    62   am
    56    62    63    2
    57    74    73    1
    58    73    75    1
    59    93    86   am
    60   104   103    2
    61    87    86    2
    62    86    85    1
    63   142   144    1
    64   142   141    1
    65   137   138    1
    66   140   139    2
    67   141   138    1
    68   141   143    1
    69    26    25    1
    70   135   134    1
    71    85    88    1
    72    85    84    1
    73   136   134    1
    74   138   139    1
    75    91    90   ar
    76   134   133    2
    77    25    27    1
    78    25    24    2
    79    82    80    1
    80    88    89    1
    81    33    32    1
    82    23    24    1
    83    23    22    1
    84    90    92   ar
    85    90    89    1
    86    84    78   am
    87   133   132    1
    88    34    32    1
    89    22    21    1
    90    31    30    2
    91    78    79    2
    92    78    77    1
    93   132   131    1
    94    80    77    1
    95    80    81    1
    96   116   115    1
    97    32    29    1
    98    21    18    1
    99    83    81    1
   100    28    29    1
   101   124   123    1
   102    30    29    1
   103    30    35   am
   104    77    76    1
   105   125   123    1
   106    36    35    1
   107    36    37    1
   108    36    39    1
   109    18    17    1
   110    18    19    1
   111   131   130    1
   112    41    37   am
   113    41    42    1
   114    37    38    2
   115   115   114    1
   116   115   117    1
   117   123   122    1
   118    42    43    1
   119   114   111    1
   120    39    40    1
   121   130   127    1
   122    19    20    2
   123   129   128    2
   124   122   119    1
   125   127   128    1
   126   127   126    1
   127    43    44    2
   128   113   112    2
   129   111   112    1
   130   111   110    1
   131   112   118   am
   132   118   119    1
   133   119   120    1
   134   121   120    2
