@<TRIPOS>MOLECULE
tmp/3kumE00.pdb
 114 103 0 0 0
SMALL
GASTEIGER

@<TRIPOS>ATOM
      1  N         32.2770    2.3960   -8.2980 N.3    15  LEU15      -0.1245
      2  CA        31.2590    2.3930   -7.2570 C.3    15  LEU15       0.1561
      3  C         30.1110    3.2530   -7.7750 C.2    15  LEU15       0.2260
      4  O         30.3380    4.1920   -8.5330 O.2    15  LEU15      -0.2867
      5  CB        31.8110    2.9880   -5.9580 C.3    15  LEU15       0.0270
      6  CG        32.9420    2.2100   -5.2820 C.3    15  LEU15       0.0019
      7  CD1       33.4210    2.9690   -4.0550 C.3    15  LEU15       0.0001
      8  CD2       32.4510    0.8200   -4.9000 C.3    15  LEU15       0.0001
      9  N         28.3210    5.2710   -6.0940 N.3    17  GLU17      -0.1245
     10  CA        28.4330    6.5770   -5.4490 C.3    17  GLU17       0.1567
     11  C         29.8210    6.6730   -4.8090 C.2    17  GLU17       0.2260
     12  O         30.4260    5.6510   -4.4710 O.2    17  GLU17      -0.2867
     13  CB        27.3770    6.7250   -4.3450 C.3    17  GLU17       0.0388
     14  CG        25.9400    6.3460   -4.7240 C.3    17  GLU17       0.1160
     15  CD        25.2790    7.3320   -5.6790 C.2    17  GLU17       0.3649
     16  OE1       25.4160    8.5580   -5.4740 O.co2  17  GLU17      -0.2457
     17  OE2       24.6020    6.8770   -6.6280 O.co2  17  GLU17      -0.2457
     18  N         32.4060    7.1180   -1.8920 N.3    19  PHE19      -0.1241
     19  CA        32.2980    6.7340   -0.4880 C.3    19  PHE19       0.1605
     20  C         33.3330    7.5050    0.3280 C.2    19  PHE19       0.2264
     21  O         34.5290    7.4480    0.0400 O.2    19  PHE19      -0.2867
     22  CB        32.5110    5.2200   -0.3520 C.3    19  PHE19       0.0534
     23  CG        32.3090    4.6950    1.0450 C.ar   19  PHE19      -0.0203
     24  CD1       31.0940    4.8730    1.7020 C.ar   19  PHE19      -0.0042
     25  CD2       33.3290    4.0030    1.6960 C.ar   19  PHE19      -0.0042
     26  CE1       30.8980    4.3660    2.9870 C.ar   19  PHE19      -0.0003
     27  CE2       33.1410    3.4920    2.9830 C.ar   19  PHE19      -0.0003
     28  CZ        31.9260    3.6720    3.6290 C.ar   19  PHE19      -0.0000
     29  N         34.9790    8.4230    4.1660 N.3    21  ILE21      -0.1245
     30  CA        35.1890    8.1320    5.5780 C.3    21  ILE21       0.1561
     31  C         36.2260    9.1680    6.0240 C.2    21  ILE21       0.2260
     32  O         36.7710    9.8980    5.1930 O.2    21  ILE21      -0.2867
     33  CB        35.7420    6.7090    5.8260 C.3    21  ILE21       0.0252
     34  CG1       37.1390    6.5600    5.2210 C.3    21  ILE21       0.0019
     35  CG2       34.7800    5.6660    5.2570 C.3    21  ILE21       0.0019
     36  CD1       37.8620    5.3130    5.7090 C.3    21  ILE21       0.0001
     37  N         26.7530    0.4130    5.7900 N.3   134  THR134     -0.1218
     38  CA        27.4270    1.6390    6.2020 C.3   134  THR134      0.1862
     39  C         26.9380    2.8750    5.4530 C.2   134  THR134      0.2287
     40  O         26.5970    2.8030    4.2770 O.2   134  THR134     -0.2866
     41  CB        28.9570    1.5380    5.9610 C.3   134  THR134      0.1770
     42  OG1       29.4820    0.3800    6.6240 O.3   134  THR134     -0.2211
     43  CG2       29.6600    2.7810    6.4810 C.3   134  THR134      0.0375
     44  N         25.7170    1.3480   10.0990 N.3   159  LYS159     -0.1245
     45  CA        27.0380    1.7380   10.5640 C.3   159  LYS159      0.1561
     46  C         27.2200    3.1710   10.0750 C.2   159  LYS159      0.2260
     47  O         27.2990    3.4220    8.8760 O.2   159  LYS159     -0.2867
     48  CB        28.1070    0.8100    9.9740 C.3   159  LYS159      0.0271
     49  CG        29.5370    1.2070   10.3120 C.3   159  LYS159      0.0035
     50  CD        30.5080    0.0710   10.0140 C.3   159  LYS159      0.0206
     51  CE        31.9510    0.5440   10.1190 C.3   159  LYS159      0.1093
     52  NZ        32.9230   -0.5690    9.9440 N.3   159  LYS159     -0.1314
     53  N         29.3150    6.4600    9.5400 N.3   161  LYS161     -0.1245
     54  CA        30.6590    7.0130    9.4120 C.3   161  LYS161      0.1561
     55  C         30.6930    8.4670    9.8760 C.2   161  LYS161      0.2260
     56  O         29.8190    9.2640    9.5240 O.2   161  LYS161     -0.2867
     57  CB        31.1360    6.9350    7.9590 C.3   161  LYS161      0.0271
     58  CG        31.4110    5.5300    7.4530 C.3   161  LYS161      0.0035
     59  CD        32.6300    4.9210    8.1370 C.3   161  LYS161      0.0206
     60  CE        32.9140    3.5240    7.6160 C.3   161  LYS161      0.1093
     61  NZ        34.1330    2.9370    8.2450 N.3   161  LYS161     -0.1314
     62  N         39.1590   -8.3190    9.5230 N.3   264  LYS264     -0.1245
     63  CA        39.0940   -8.1180    8.0780 C.3   264  LYS264      0.1561
     64  C         40.1230   -9.0410    7.4540 C.2   264  LYS264      0.2260
     65  O         41.2870   -9.0320    7.8580 O.2   264  LYS264     -0.2867
     66  CB        39.4330   -6.6720    7.6930 C.3   264  LYS264      0.0271
     67  CG        38.3640   -5.6440    7.9790 C.3   264  LYS264      0.0035
     68  CD        38.7500   -4.3220    7.3230 C.3   264  LYS264      0.0206
     69  CE        37.7480   -3.2240    7.6020 C.3   264  LYS264      0.1093
     70  NZ        37.6100   -2.9950    9.0580 N.3   264  LYS264     -0.1314
     71  N         34.9770   -5.4280    6.1500 N.3   292  CYS292     -0.1221
     72  CA        35.4650   -5.4650    4.7790 C.3   292  CYS292      0.1808
     73  C         36.0240   -4.1300    4.3200 C.2   292  CYS292      0.2601
     74  O         35.7960   -3.0960    4.9450 O.2   292  CYS292     -0.2717
     75  CB        34.3270   -5.8590    3.8350 C.3   292  CYS292      0.0970
     76  SG        33.0160   -4.6010    3.7370 S.3   292  CYS292     -0.0800
     77  N         36.7690   -4.1700    3.2200 N.am  293  MET293     -0.1965
     78  CA        37.3290   -2.9730    2.6170 C.3   293  MET293      0.1736
     79  C         36.3180   -2.5760    1.5360 C.2   293  MET293      0.2616
     80  O         35.5260   -3.4090    1.0840 O.2   293  MET293     -0.2715
     81  CB        38.6800   -3.2800    1.9690 C.3   293  MET293      0.0427
     82  CG        39.7170   -3.8480    2.9320 C.3   293  MET293      0.0599
     83  SD        40.2480   -2.6360    4.1640 S.3   293  MET293     -0.1393
     84  CE        41.9000   -3.2880    4.5730 C.3   293  MET293      0.0692
     85  N         36.3280   -1.3140    1.1250 N.am  294  ALA294     -0.1977
     86  CA        35.4030   -0.8770    0.0880 C.3   294  ALA294      0.1597
     87  C         35.9500   -1.3340   -1.2630 C.2   294  ALA294      0.2287
     88  O         35.2190   -1.3970   -2.2510 O.2   294  ALA294     -0.2864
     89  CB        35.2500    0.6430    0.1210 C.3   294  ALA294      0.0319
     90  N         29.7320   -6.6260    8.9980 N.3   318  ASP318     -0.1239
     91  CA        29.7480   -5.3940    8.2330 C.3   318  ASP318      0.1674
     92  C         30.3110   -5.7950    6.8790 C.2   318  ASP318      0.2266
     93  O         31.4570   -5.4950    6.5380 O.2   318  ASP318     -0.2867
     94  CB        30.6300   -4.3420    8.9140 C.3   318  ASP318      0.1410
     95  CG        30.7560   -3.0790    8.0950 C.2   318  ASP318      0.3668
     96  OD1       29.7140   -2.5830    7.6010 O.co2 318  ASP318     -0.2456
     97  OD2       31.8970   -2.5800    7.9520 O.co2 318  ASP318     -0.2456
     98  N         29.1720   -5.0980    3.4700 N.3   320  ASP320     -0.1225
     99  CA        28.3540   -4.3260    2.5440 C.3   320  ASP320      0.1805
    100  C         29.1120   -3.8370    1.3120 C.2   320  ASP320      0.2597
    101  O         28.6350   -2.9610    0.5920 O.2   320  ASP320     -0.2718
    102  CB        27.7680   -3.1270    3.2980 C.3   320  ASP320      0.1424
    103  CG        28.8460   -2.2090    3.8710 C.2   320  ASP320      0.3668
    104  OD1       30.0200   -2.6370    3.9720 O.co2 320  ASP320     -0.2456
    105  OD2       28.5160   -1.0600    4.2340 O.co2 320  ASP320     -0.2456
    106  N         30.2780   -4.4140    1.0580 N.am  321  ALA321     -0.1979
    107  CA        31.0980   -3.9880   -0.0660 C.3   321  ALA321      0.1597
    108  C         30.4890   -4.2000   -1.4480 C.2   321  ALA321      0.2287
    109  O         30.6530   -3.3540   -2.3280 O.2   321  ALA321     -0.2864
    110  CB        32.4630   -4.6600    0.0070 C.3   321  ALA321      0.0319
    111  N         27.7510   -1.5000   -3.2600 N.3   324  GLY324     -0.1225
    112  CA        28.0860   -0.2960   -4.0000 C.3   324  GLY324      0.1811
    113  C         28.7670   -0.5400   -5.3320 C.2   324  GLY324      0.2280
    114  O         29.1590    0.4070   -6.0140 O.2   324  GLY324     -0.2866
@<TRIPOS>BOND
     1     4     3    2
     2     1     2    1
     3     3     2    1
     4     2     5    1
     5    17    15   ar
     6     9    10    1
     7   114   113    2
     8     5     6    1
     9    15    16   ar
    10    15    14    1
    11    10    11    1
    12    10    13    1
    13   113   112    1
    14     6     8    1
    15     6     7    1
    16    11    12    2
    17    14    13    1
    18   112   111    1
    19   109   108    2
    20    88    87    2
    21    18    19    1
    22   108   107    1
    23    87    86    1
    24    19    22    1
    25    19    20    1
    26    22    23    1
    27   107   110    1
    28   107   106    1
    29    21    20    2
    30    86    89    1
    31    86    85    1
    32   101   100    2
    33    23    25   ar
    34    23    24   ar
    35   106   100   am
    36    80    79    2
    37    85    79   am
    38   100    99    1
    39    79    78    1
    40    25    27   ar
    41    24    26   ar
    42    81    78    1
    43    81    82    1
    44    99   102    1
    45    99    98    1
    46    78    77    1
    47    82    83    1
    48    27    28   ar
    49    26    28   ar
    50    77    73   am
    51   102   103    1
    52    76    75    1
    53    75    72    1
    54   103   104   ar
    55   103   105   ar
    56    83    84    1
    57    29    30    1
    58    40    39    2
    59    73    72    1
    60    73    74    2
    61    72    71    1
    62    32    31    2
    63    34    36    1
    64    34    33    1
    65    35    33    1
    66    39    38    1
    67    30    33    1
    68    30    31    1
    69    37    38    1
    70    41    38    1
    71    41    43    1
    72    41    42    1
    73    93    92    2
    74    92    91    1
    75    68    69    1
    76    68    67    1
    77    58    57    1
    78    58    59    1
    79    64    65    2
    80    64    63    1
    81    96    95   ar
    82    69    70    1
    83    60    59    1
    84    60    61    1
    85    66    67    1
    86    66    63    1
    87    97    95   ar
    88    57    54    1
    89    63    62    1
    90    95    94    1
    91    91    94    1
    92    91    90    1
    93    47    46    2
    94    54    53    1
    95    54    55    1
    96    56    55    2
    97    52    51    1
    98    48    49    1
    99    48    45    1
   100    50    51    1
   101    50    49    1
   102    46    45    1
   103    44    45    1
