@<TRIPOS>MOLECULE
tmp/3kusA00.pdb
 146 139 0 0 0
SMALL
GASTEIGER

@<TRIPOS>ATOM
      1  N          4.2020   -3.7610  -19.5980 N.3    16  GLN16      -0.1245
      2  CA         3.3010   -4.2500  -18.5460 C.3    16  GLN16       0.1566
      3  C          4.0130   -4.6530  -17.2820 C.2    16  GLN16       0.2260
      4  O          3.5840   -4.3630  -16.2370 O.2    16  GLN16      -0.2867
      5  CB         2.3680   -5.3700  -19.0890 C.3    16  GLN16       0.0367
      6  CG         1.2300   -5.7080  -18.1190 C.3    16  GLN16       0.0905
      7  CD         0.0640   -4.7200  -18.1250 C.2    16  GLN16       0.2608
      8  OE1       -0.1910   -4.1220  -19.0720 O.2    16  GLN16      -0.2717
      9  NE2       -0.6410   -4.6420  -17.0420 N.am   16  GLN16      -0.0878
     10  N          5.1160   -1.5740  -15.5880 N.3    19  GLY19      -0.1210
     11  CA         3.9300   -0.9030  -15.0780 C.3    19  GLY19       0.1956
     12  C          3.3970   -1.5330  -13.8040 C.2    19  GLY19       0.2611
     13  O          2.9410   -0.8300  -12.9070 O.2    19  GLY19      -0.2717
     14  N          3.4390   -2.8570  -13.7090 N.am   20  GLU20      -0.1979
     15  CA         2.9160   -3.5220  -12.5170 C.3    20  GLU20       0.1602
     16  C          3.7260   -3.1700  -11.2730 C.2    20  GLU20       0.2287
     17  O          3.1870   -3.1500  -10.1710 O.2    20  GLU20      -0.2864
     18  CB         2.8460   -5.0460  -12.6940 C.3    20  GLU20       0.0415
     19  CG         1.8970   -5.5350  -13.8020 C.3    20  GLU20       0.1163
     20  CD         0.4130   -5.4270  -13.4670 C.2    20  GLU20       0.3649
     21  OE1        0.0400   -5.0730  -12.3270 O.co2  20  GLU20      -0.2457
     22  OE2       -0.4020   -5.7060  -14.3650 O.co2  20  GLU20      -0.2457
     23  N          3.1210    1.0190  -10.8080 N.3    23  PHE23      -0.1241
     24  CA         1.7690    1.4410  -10.4930 C.3    23  PHE23       0.1605
     25  C          1.4810    1.6110   -8.9950 C.2    23  PHE23       0.2264
     26  O          0.9510    2.6470   -8.6160 O.2    23  PHE23      -0.2867
     27  CB         0.7390    0.5150  -11.1570 C.3    23  PHE23       0.0534
     28  CG        -0.6830    0.8920  -10.8580 C.ar   23  PHE23      -0.0203
     29  CD1       -1.3140    1.8820  -11.6080 C.ar   23  PHE23      -0.0042
     30  CD2       -1.3740    0.2890   -9.8140 C.ar   23  PHE23      -0.0042
     31  CE1       -2.6450    2.2560  -11.3340 C.ar   23  PHE23      -0.0003
     32  CE2       -2.6930    0.6580   -9.5170 C.ar   23  PHE23      -0.0003
     33  CZ        -3.3320    1.6490  -10.2850 C.ar   23  PHE23      -0.0000
     34  N         -3.3830    5.5500  -13.1330 N.3    35  GLY35      -0.1210
     35  CA        -3.2540    4.8050  -14.3860 C.3    35  GLY35       0.1956
     36  C         -2.7280    5.6630  -15.5140 C.2    35  GLY35       0.2611
     37  O         -1.9190    5.2070  -16.3320 O.2    35  GLY35      -0.2717
     38  N         -3.1860    6.9120  -15.5510 N.am   36  LYS36      -0.1979
     39  CA        -2.7600    7.8360  -16.5860 C.3    36  LYS36       0.1596
     40  C         -1.2860    8.1990  -16.4150 C.2    36  LYS36       0.2287
     41  O         -0.5290    8.1750  -17.3770 O.2    36  LYS36      -0.2864
     42  CB        -3.6270    9.1040  -16.5760 C.3    36  LYS36       0.0298
     43  CG        -3.5010    9.9420  -17.8350 C.3    36  LYS36       0.0038
     44  CD        -3.9860    9.1570  -19.0500 C.3    36  LYS36       0.0206
     45  CE        -4.2220   10.0390  -20.2460 C.3    36  LYS36       0.1093
     46  NZ        -4.7220    9.2410  -21.3830 N.3    36  LYS36      -0.1314
     47  N          1.0390    6.5030  -14.8100 N.3    38  THR38      -0.1203
     48  CA         1.8140    5.3060  -15.1060 C.3    38  THR38       0.1994
     49  C          1.9480    5.1290  -16.6140 C.2    38  THR38       0.2618
     50  O          3.0410    4.9000  -17.1190 O.2    38  THR38      -0.2717
     51  CB         1.2360    4.0330  -14.4320 C.3    38  THR38       0.1784
     52  OG1        1.1780    4.2330  -13.0150 O.3    38  THR38      -0.2211
     53  CG2        2.1110    2.8160  -14.7200 C.3    38  THR38       0.0376
     54  N          0.8440    5.2650  -17.3420 N.am   39  GLY39      -0.1942
     55  CA         0.9020    5.1560  -18.7970 C.3    39  GLY39       0.2014
     56  C          1.8360    6.1650  -19.4460 C.2    39  GLY39       0.2639
     57  O          2.5530    5.8490  -20.4070 O.2    39  GLY39      -0.2714
     58  N          1.8140    7.3940  -18.9360 N.am   40  MET40      -0.1963
     59  CA         2.7160    8.4360  -19.4390 C.3    40  MET40       0.1736
     60  C          4.1740    8.0380  -19.2360 C.2    40  MET40       0.2616
     61  O          4.9850    8.1080  -20.1690 O.2    40  MET40      -0.2715
     62  CB         2.4340    9.7700  -18.7580 C.3    40  MET40       0.0427
     63  CG         1.0860   10.3730  -19.1550 C.3    40  MET40       0.0599
     64  SD         0.6920   11.8710  -18.2250 S.3    40  MET40      -0.1393
     65  CE         1.9410   13.0290  -18.8030 C.3    40  MET40       0.0692
     66  N          4.5050    7.5910  -18.0260 N.am   41  LEU41      -0.1963
     67  CA         5.8820    7.1730  -17.7360 C.3    41  LEU41       0.1728
     68  C          6.3140    5.9620  -18.5390 C.2    41  LEU41       0.2616
     69  O          7.4730    5.8700  -18.9230 O.2    41  LEU41      -0.2715
     70  CB         6.0900    6.9200  -16.2470 C.3    41  LEU41       0.0311
     71  CG         6.6270    8.1330  -15.4870 C.3    41  LEU41       0.0022
     72  CD1        5.6820    9.3090  -15.5530 C.3    41  LEU41       0.0001
     73  CD2        6.9030    7.7960  -14.0290 C.3    41  LEU41       0.0001
     74  N          5.3860    5.0430  -18.8030 N.am   42  LEU42      -0.1963
     75  CA         5.7360    3.8320  -19.5490 C.3    42  LEU42       0.1728
     76  C          6.2070    4.0930  -20.9770 C.2    42  LEU42       0.2616
     77  O          6.8070    3.2110  -21.5950 O.2    42  LEU42      -0.2715
     78  CB         4.5920    2.8150  -19.5270 C.3    42  LEU42       0.0311
     79  CG         4.3860    2.0880  -18.1950 C.3    42  LEU42       0.0022
     80  CD1        3.1280    1.2360  -18.2670 C.3    42  LEU42       0.0001
     81  CD2        5.6020    1.2300  -17.8160 C.3    42  LEU42       0.0001
     82  N          5.9700    5.2910  -21.5040 N.am   43  GLU43      -0.1963
     83  CA         6.5040    5.6350  -22.8180 C.3    43  GLU43       0.1733
     84  C          8.0170    5.8510  -22.8110 C.2    43  GLU43       0.2616
     85  O          8.6380    5.7870  -23.8760 O.2    43  GLU43      -0.2715
     86  CB         5.7790    6.8460  -23.3890 C.3    43  GLU43       0.0429
     87  CG         4.2860    6.5830  -23.5540 C.3    43  GLU43       0.1163
     88  CD         3.6080    7.5200  -24.5260 C.2    43  GLU43       0.3649
     89  OE1        4.1410    8.6140  -24.7870 O.co2  43  GLU43      -0.2457
     90  OE2        2.5300    7.1500  -25.0340 O.co2  43  GLU43      -0.2457
     91  N          8.5960    6.0970  -21.6280 N.am   44  ILE44      -0.1977
     92  CA        10.0390    6.3480  -21.4570 C.3    44  ILE44       0.1596
     93  C         10.8510    5.0570  -21.6940 C.2    44  ILE44       0.2287
     94  O         10.3170    3.9470  -21.5730 O.2    44  ILE44      -0.2864
     95  CB        10.3240    6.9350  -20.0210 C.3    44  ILE44       0.0276
     96  CG1        9.6420    8.3050  -19.8300 C.3    44  ILE44       0.0022
     97  CG2       11.8160    7.0270  -19.7070 C.3    44  ILE44       0.0022
     98  CD1        9.5120    8.7120  -18.3610 C.3    44  ILE44       0.0001
     99  N         10.0260   12.5940  -11.7940 N.3    62  LYS62      -0.1245
    100  CA         9.3620   12.2950  -13.0520 C.3    62  LYS62       0.1561
    101  C          7.8480   12.3210  -12.9120 C.2    62  LYS62       0.2260
    102  O          7.1630   12.8380  -13.7880 O.2    62  LYS62      -0.2867
    103  CB         9.8430   10.9550  -13.6170 C.3    62  LYS62       0.0271
    104  CG         9.5080   10.7150  -15.1000 C.3    62  LYS62       0.0035
    105  CD         9.9180   11.8420  -16.0430 C.3    62  LYS62       0.0206
    106  CE        11.4080   12.0130  -16.1490 C.3    62  LYS62       0.1093
    107  NZ        11.7290   12.9800  -17.2480 N.3    62  LYS62      -0.1314
    108  N          6.6760   15.8530  -12.7960 N.3    65  GLU65      -0.1231
    109  CA         6.6260   16.4060  -14.1560 C.3    65  GLU65       0.1699
    110  C          5.3850   15.9170  -14.9010 C.2    65  GLU65       0.2592
    111  O          4.6750   16.7080  -15.5230 O.2    65  GLU65      -0.2718
    112  CB         7.8990   16.0750  -14.9510 C.3    65  GLU65       0.0402
    113  CG         9.1570   16.7950  -14.4850 C.3    65  GLU65       0.1161
    114  CD        10.4080   16.3540  -15.2170 C.2    65  GLU65       0.3649
    115  OE1       11.4830   16.9400  -14.9510 O.co2  65  GLU65      -0.2457
    116  OE2       10.3160   15.4310  -16.0570 O.co2  65  GLU65      -0.2457
    117  N          5.1130   14.6200  -14.8280 N.am   66  ALA66      -0.1980
    118  CA         3.9420   14.0540  -15.4860 C.3    66  ALA66       0.1597
    119  C          2.6490   14.6630  -14.9710 C.2    66  ALA66       0.2287
    120  O          1.7560   14.9650  -15.7600 O.2    66  ALA66      -0.2864
    121  CB         3.9280   12.5400  -15.3150 C.3    66  ALA66       0.0319
    122  N          2.2560   18.1680  -16.3550 N.3    69  VAL69      -0.1231
    123  CA         1.9180   18.1120  -17.7720 C.3    69  VAL69       0.1692
    124  C          0.4720   17.6690  -17.9650 C.2    69  VAL69       0.2591
    125  O         -0.2790   18.2820  -18.7280 O.2    69  VAL69      -0.2718
    126  CB         2.8970   17.1810  -18.5410 C.3    69  VAL69       0.0266
    127  CG1        2.3630   16.8710  -19.9420 C.3    69  VAL69       0.0020
    128  CG2        4.2810   17.8280  -18.6140 C.3    69  VAL69       0.0020
    129  N          0.0790   16.6060  -17.2730 N.am   70  LEU70      -0.1980
    130  CA        -1.2850   16.1090  -17.3800 C.3    70  LEU70       0.1596
    131  C         -2.3130   17.1560  -16.9490 C.2    70  LEU70       0.2287
    132  O         -3.3040   17.3770  -17.6420 O.2    70  LEU70      -0.2864
    133  CB        -1.4590   14.8100  -16.5880 C.3    70  LEU70       0.0297
    134  CG        -2.8510   14.1730  -16.6420 C.3    70  LEU70       0.0022
    135  CD1       -3.2350   13.7800  -18.0650 C.3    70  LEU70       0.0001
    136  CD2       -2.8660   12.9660  -15.7200 C.3    70  LEU70       0.0001
    137  N         -2.5390   20.0390  -19.3790 N.3    73  HIS73      -0.1241
    138  CA        -3.2140   19.6010  -20.5860 C.3    73  HIS73       0.1621
    139  C         -4.7240   19.5820  -20.4010 C.2    73  HIS73       0.2264
    140  O         -5.4700   20.1350  -21.2160 O.2    73  HIS73      -0.2867
    141  CB        -2.7200   18.2170  -21.0160 C.3    73  HIS73       0.0745
    142  CG        -3.4760   17.6630  -22.1820 C.ar   73  HIS73       0.0817
    143  ND1       -4.4120   16.6560  -22.0600 N.ar   73  HIS73      -0.2268
    144  CD2       -3.4540   18.0020  -23.4900 C.ar   73  HIS73       0.1154
    145  CE1       -4.9220   16.3890  -23.2490 C.ar   73  HIS73       0.1986
    146  NE2       -4.3590   17.1920  -24.1350 N.ar   73  HIS73      -0.2212
@<TRIPOS>BOND
     1    90    88   ar
     2    89    88   ar
     3    88    87    1
     4   146   144   ar
     5   146   145   ar
     6    85    84    2
     7    87    86    1
     8   144   142   ar
     9    86    83    1
    10   145   143   ar
    11    83    84    1
    12    83    82    1
    13    84    91   am
    14   142   143   ar
    15   142   141    1
    16    93    94    2
    17    93    92    1
    18    91    92    1
    19    77    76    2
    20    82    76   am
    21    92    95    1
    22    46    45    1
    23   140   139    2
    24   141   138    1
    25    76    75    1
    26   138   139    1
    27   138   137    1
    28    57    56    2
    29    45    44    1
    30    61    60    2
    31    95    96    1
    32    95    97    1
    33   127   126    1
    34    96    98    1
    35     1     2    1
    36    75    78    1
    37    75    74    1
    38    78    79    1
    39    56    58   am
    40    56    55    1
    41    59    60    1
    42    59    58    1
    43    59    62    1
    44    60    66   am
    45    63    62    1
    46    63    64    1
    47     5     2    1
    48     5     6    1
    49     8     7    2
    50    44    43    1
    51    69    68    2
    52    65    64    1
    53    74    68   am
    54    55    54    1
    55   125   124    2
    56   128   126    1
    57     2     3    1
    58   126   123    1
    59    68    67    1
    60    80    79    1
    61    79    81    1
    62     7     6    1
    63     7     9   am
    64   135   134    1
    65    66    67    1
    66   124   123    1
    67   124   129   am
    68    43    42    1
    69   123   122    1
    70    67    70    1
    71   132   131    2
    72   130   129    1
    73   130   131    1
    74   130   133    1
    75    41    40    2
    76    54    49   am
    77     3     4    2
    78   107   106    1
    79    50    49    2
    80   134   133    1
    81   134   136    1
    82    49    48    1
    83    39    42    1
    84    39    40    1
    85    39    38    1
    86    37    36    2
    87    70    71    1
    88   106   105    1
    89   116   114   ar
    90   105   104    1
    91   120   119    2
    92    10    11    1
    93    72    71    1
    94    38    36   am
    95   111   110    2
    96    36    35    1
    97    71    73    1
    98   118   121    1
    99   118   119    1
   100   118   117    1
   101   114   115   ar
   102   114   113    1
   103    48    47    1
   104    48    51    1
   105   104   103    1
   106    11    12    1
   107   112   113    1
   108   112   109    1
   109   110   117   am
   110   110   109    1
   111    53    51    1
   112    51    52    1
   113    35    34    1
   114    22    20   ar
   115   109   108    1
   116    12    14   am
   117    12    13    2
   118    19    20    1
   119    19    18    1
   120   102   101    2
   121    14    15    1
   122   103   100    1
   123    20    21   ar
   124   100   101    1
   125   100    99    1
   126    18    15    1
   127    15    16    1
   128    29    31   ar
   129    29    28   ar
   130    31    33   ar
   131    16    17    2
   132    27    28    1
   133    27    24    1
   134    28    30   ar
   135    23    24    1
   136    24    25    1
   137    33    32   ar
   138    30    32   ar
   139    25    26    2
