@<TRIPOS>MOLECULE
tmp/3kv4A01.pdb
 126 115 0 0 0
SMALL
GASTEIGER

@<TRIPOS>ATOM
      1  N        -42.5160   14.7620   12.5380 N.3   174  ASN174     -0.1240
      2  CA       -41.8610   14.5960   13.8250 C.3   174  ASN174      0.1653
      3  C        -40.4510   14.0160   13.7130 C.2   174  ASN174      0.2266
      4  O        -40.2440   12.9530   13.1420 O.2   174  ASN174     -0.2867
      5  CB       -42.7460   13.7150   14.7190 C.3   174  ASN174      0.1155
      6  CG       -42.1810   13.5310   16.1120 C.2   174  ASN174      0.2627
      7  OD1      -41.3900   14.3460   16.5920 O.2   174  ASN174     -0.2716
      8  ND2      -42.6000   12.4630   16.7780 N.am  174  ASN174     -0.0877
      9  N        -37.4430   12.3930   15.6190 N.3   176  ILE176     -0.1245
     10  CA       -37.0900   11.7240   16.8680 C.3   176  ILE176      0.1561
     11  C        -35.8330   10.8770   16.7280 C.2   176  ILE176      0.2260
     12  O        -35.4000   10.2580   17.6960 O.2   176  ILE176     -0.2867
     13  CB       -38.2340   10.8000   17.3740 C.3   176  ILE176      0.0252
     14  CG1      -38.3390    9.5480   16.4910 C.3   176  ILE176      0.0019
     15  CG2      -39.5550   11.5470   17.3420 C.3   176  ILE176      0.0019
     16  CD1      -39.3160    8.4910   17.0020 C.3   176  ILE176      0.0001
     17  N        -34.9750   15.7210   19.8860 N.3   221  LEU221     -0.1245
     18  CA       -36.3640   15.5290   19.4890 C.3   221  LEU221      0.1561
     19  C        -37.0230   16.8720   19.1790 C.2   221  LEU221      0.2260
     20  O        -37.0200   17.7870   20.0070 O.2   221  LEU221     -0.2867
     21  CB       -37.1530   14.8340   20.6100 C.3   221  LEU221      0.0270
     22  CG       -36.7270   13.4810   21.2090 C.3   221  LEU221      0.0019
     23  CD1      -36.8900   12.3930   20.1800 C.3   221  LEU221      0.0001
     24  CD2      -35.2960   13.5360   21.7290 C.3   221  LEU221      0.0001
     25  N        -48.0530   15.4100   17.1920 N.3   227  SER227     -0.1217
     26  CA       -47.2050   14.3420   16.6690 C.3   227  SER227      0.1889
     27  C        -47.5380   13.1320   17.5250 C.2   227  SER227      0.2288
     28  O        -47.8900   13.2750   18.7000 O.2   227  SER227     -0.2866
     29  CB       -45.7230   14.6660   16.8540 C.3   227  SER227      0.2089
     30  OG       -45.3010   15.7090   16.0000 O.3   227  SER227     -0.2183
     31  N        -46.2240    8.9410   18.2720 N.3   229  THR229     -0.1218
     32  CA       -45.3900    7.7750   18.0460 C.3   229  THR229      0.1862
     33  C        -46.0880    6.5910   18.7110 C.2   229  THR229      0.2287
     34  O        -46.3510    6.6040   19.9080 O.2   229  THR229     -0.2866
     35  CB       -43.9850    7.9760   18.6340 C.3   229  THR229      0.1770
     36  OG1      -43.4310    9.1880   18.1040 O.3   229  THR229     -0.2211
     37  CG2      -43.0630    6.8030   18.2540 C.3   229  THR229      0.0375
     38  N        -44.1290    0.9110   21.2850 N.3   232  HIS232     -0.1241
     39  CA       -42.9330    0.1840   20.8980 C.3   232  HIS232      0.1621
     40  C        -42.0370   -0.0660   22.1090 C.2   232  HIS232      0.2264
     41  O        -42.2760    0.4490   23.2120 O.2   232  HIS232     -0.2867
     42  CB       -42.1390    1.0050   19.8820 C.3   232  HIS232      0.0745
     43  CG       -41.7020    2.3350   20.4140 C.ar  232  HIS232      0.0817
     44  ND1      -42.5380    3.4300   20.4490 N.ar  232  HIS232     -0.2268
     45  CD2      -40.5630    2.7140   21.0400 C.ar  232  HIS232      0.1154
     46  CE1      -41.9350    4.4240   21.0760 C.ar  232  HIS232      0.1986
     47  NE2      -40.7360    4.0150   21.4450 N.ar  232  HIS232     -0.2212
     48  N        -38.0420    0.2970   22.8800 N.3   234  ASP234     -0.1239
     49  CA       -36.8340    0.8550   22.2700 C.3   234  ASP234      0.1674
     50  C        -35.8280   -0.2290   21.9010 C.2   234  ASP234      0.2266
     51  O        -35.7180   -1.2390   22.5900 O.2   234  ASP234     -0.2867
     52  CB       -36.2150    1.9040   23.1950 C.3   234  ASP234      0.1410
     53  CG       -36.8950    3.2660   23.0570 C.2   234  ASP234      0.3668
     54  OD1      -36.3670    4.1490   22.3360 O.co2 234  ASP234     -0.2456
     55  OD2      -37.9680    3.4450   23.6620 O.co2 234  ASP234     -0.2456
     56  N        -34.5090    4.4830   28.5610 N.3   240  VAL240     -0.1245
     57  CA       -34.5070    5.8090   27.9600 C.3   240  VAL240      0.1561
     58  C        -34.5440    6.9940   28.9090 C.2   240  VAL240      0.2260
     59  O        -35.3370    7.0180   29.8530 O.2   240  VAL240     -0.2867
     60  CB       -35.7060    5.9670   27.0110 C.3   240  VAL240      0.0252
     61  CG1      -35.6970    7.3430   26.3860 C.3   240  VAL240      0.0019
     62  CG2      -35.6710    4.8860   25.9430 C.3   240  VAL240      0.0019
     63  N        -35.3020   10.9480   28.9810 N.3   242  TYR242     -0.1241
     64  CA       -36.0150   11.9000   28.1420 C.3   242  TYR242      0.1605
     65  C        -36.2070   13.2620   28.8170 C.2   242  TYR242      0.2264
     66  O        -36.9780   13.3750   29.7690 O.2   242  TYR242     -0.2867
     67  CB       -37.3790   11.2920   27.8050 C.3   242  TYR242      0.0534
     68  CG       -38.0350   11.8200   26.5590 C.ar  242  TYR242     -0.0201
     69  CD1      -38.0480   11.0640   25.3860 C.ar  242  TYR242     -0.0009
     70  CD2      -38.6700   13.0660   26.5550 C.ar  242  TYR242     -0.0009
     71  CE1      -38.6800   11.5310   24.2360 C.ar  242  TYR242      0.0417
     72  CE2      -39.3060   13.5420   25.4130 C.ar  242  TYR242      0.0417
     73  CZ       -39.3070   12.7690   24.2570 C.ar  242  TYR242      0.1957
     74  OH       -39.9420   13.2290   23.1280 O.3   242  TYR242     -0.2866
     75  N        -44.5410   16.5340   26.5880 N.3   249  LYS249     -0.1245
     76  CA       -44.6720   15.2160   25.9710 C.3   249  LYS249      0.1561
     77  C        -45.5350   14.3210   26.8600 C.2   249  LYS249      0.2260
     78  O        -45.4490   14.3800   28.0880 O.2   249  LYS249     -0.2867
     79  CB       -43.2990   14.5530   25.8000 C.3   249  LYS249      0.0271
     80  CG       -42.4520   15.0780   24.6610 C.3   249  LYS249      0.0035
     81  CD       -42.9630   14.5940   23.3150 C.3   249  LYS249      0.0206
     82  CE       -41.9640   14.9020   22.2090 C.3   249  LYS249      0.1093
     83  NZ       -42.3640   14.2960   20.8980 N.3   249  LYS249     -0.1314
     84  N        -46.5310   10.3430   27.6550 N.3   251  PHE251     -0.1241
     85  CA       -46.1590    8.9490   27.4550 C.3   251  PHE251      0.1605
     86  C        -47.2700    8.0140   27.9530 C.2   251  PHE251      0.2264
     87  O        -47.9580    8.3030   28.9280 O.2   251  PHE251     -0.2867
     88  CB       -44.8580    8.6410   28.2070 C.3   251  PHE251      0.0534
     89  CG       -43.6380    9.3090   27.6300 C.ar  251  PHE251     -0.0203
     90  CD1      -42.7130    8.5780   26.8880 C.ar  251  PHE251     -0.0042
     91  CD2      -43.4080   10.6710   27.8270 C.ar  251  PHE251     -0.0042
     92  CE1      -41.5760    9.1900   26.3490 C.ar  251  PHE251     -0.0003
     93  CE2      -42.2720   11.2930   27.2890 C.ar  251  PHE251     -0.0003
     94  CZ       -41.3560   10.5480   26.5490 C.ar  251  PHE251     -0.0000
     95  N        -37.2450    5.8040   31.3390 N.3   298  ILE298     -0.1245
     96  CA       -38.0290    4.6230   31.0030 C.3   298  ILE298      0.1561
     97  C        -37.1810    3.3520   31.1250 C.2   298  ILE298      0.2260
     98  O        -36.1430    3.2180   30.4780 O.2   298  ILE298     -0.2867
     99  CB       -38.5770    4.7450   29.5650 C.3   298  ILE298      0.0252
    100  CG1      -39.4210    6.0210   29.4450 C.3   298  ILE298      0.0019
    101  CG2      -39.4010    3.5190   29.2050 C.3   298  ILE298      0.0019
    102  CD1      -39.8900    6.3190   28.0210 C.3   298  ILE298      0.0001
    103  N        -44.2680    1.6230   25.2110 N.3   304  HIS304     -0.1241
    104  CA       -44.8200    2.9630   25.3040 C.3   304  HIS304      0.1621
    105  C        -45.0880    3.6550   23.9760 C.2   304  HIS304      0.2264
    106  O        -44.4370    3.3810   22.9620 O.2   304  HIS304     -0.2867
    107  CB       -43.8910    3.8550   26.1440 C.3   304  HIS304      0.0745
    108  CG       -42.5150    4.0040   25.5710 C.ar  304  HIS304      0.0817
    109  ND1      -41.5570    3.0150   25.6650 N.ar  304  HIS304     -0.2268
    110  CD2      -41.9450    5.0130   24.8690 C.ar  304  HIS304      0.1154
    111  CE1      -40.4580    3.4090   25.0470 C.ar  304  HIS304      0.1986
    112  NE2      -40.6660    4.6170   24.5550 N.ar  304  HIS304     -0.2212
    113  N        -46.1350    7.7580   22.4110 N.3   306  VAL306     -0.1245
    114  CA       -45.8980    9.1490   22.7960 C.3   306  VAL306      0.1561
    115  C        -46.6930   10.1780   21.9900 C.2   306  VAL306      0.2260
    116  O        -46.6610   10.1890   20.7610 O.2   306  VAL306     -0.2867
    117  CB       -44.4090    9.5180   22.6610 C.3   306  VAL306      0.0252
    118  CG1      -44.1760   10.9260   23.1910 C.3   306  VAL306      0.0019
    119  CG2      -43.5490    8.5170   23.4030 C.3   306  VAL306      0.0019
    120  N        -47.4300   14.3180   21.4440 N.3   308  THR308     -0.1218
    121  CA       -46.8550   15.6370   21.6450 C.3   308  THR308      0.1862
    122  C        -48.0430   16.5970   21.5900 C.2   308  THR308      0.2287
    123  O        -48.5460   16.9110   20.5130 O.2   308  THR308     -0.2866
    124  CB       -45.8550   15.9910   20.5240 C.3   308  THR308      0.1770
    125  OG1      -44.9080   14.9260   20.3780 O.3   308  THR308     -0.2211
    126  CG2      -45.1000   17.2780   20.8590 C.3   308  THR308      0.0375
@<TRIPOS>BOND
     1     1     2    1
     2     4     3    2
     3     3     2    1
     4     2     5    1
     5     5     6    1
     6     9    10    1
     7    30    29    1
     8     6     7    2
     9     6     8   am
    10    14    16    1
    11    14    13    1
    12    26    29    1
    13    26    25    1
    14    26    27    1
    15    11    10    1
    16    11    12    2
    17    10    13    1
    18    15    13    1
    19    27    28    2
    20    32    31    1
    21    32    35    1
    22    32    33    1
    23    36    35    1
    24    37    35    1
    25    33    34    2
    26    19    18    1
    27    19    20    2
    28    18    17    1
    29    18    21    1
    30    42    43    1
    31    42    39    1
    32    23    22    1
    33   125   124    1
    34    43    44   ar
    35    43    45   ar
    36    44    46   ar
    37   123   122    2
    38   124   126    1
    39   124   121    1
    40    21    22    1
    41   116   115    2
    42    83    82    1
    43    39    38    1
    44    39    40    1
    45    45    47   ar
    46    46    47   ar
    47    22    24    1
    48   120   121    1
    49   122   121    1
    50    50    49    1
    51    50    51    2
    52   115   114    1
    53    40    41    2
    54    82    81    1
    55    49    48    1
    56    49    52    1
    57    54    53   ar
    58   113   114    1
    59   117   114    1
    60   117   118    1
    61   117   119    1
    62   106   105    2
    63    53    52    1
    64    53    55   ar
    65    74    73    1
    66    81    80    1
    67   105   104    1
    68    71    73   ar
    69    71    69   ar
    70    73    72   ar
    71   112   110   ar
    72   112   111   ar
    73    80    79    1
    74   110   108   ar
    75   111   109   ar
    76   103   104    1
    77   104   107    1
    78    69    68   ar
    79    72    70   ar
    80   108   109   ar
    81   108   107    1
    82    79    76    1
    83    62    60    1
    84    76    75    1
    85    76    77    1
    86    92    94   ar
    87    92    90   ar
    88    61    60    1
    89    94    93   ar
    90    70    68   ar
    91    68    67    1
    92    77    78    2
    93    90    89   ar
    94    60    57    1
    95    93    91   ar
    96    85    84    1
    97    85    86    1
    98    85    88    1
    99    89    91   ar
   100    89    88    1
   101    67    64    1
   102    86    87    2
   103    57    56    1
   104    57    58    1
   105   102   100    1
   106    64    65    1
   107    64    63    1
   108    65    66    2
   109    58    59    2
   110   101    99    1
   111   100    99    1
   112    99    96    1
   113    98    97    2
   114    96    97    1
   115    96    95    1
