@<TRIPOS>MOLECULE
tmp/3kv5B00.pdb
 116 109 0 0 0
SMALL
GASTEIGER

@<TRIPOS>ATOM
      1  N         28.1490  -29.5620  -10.1240 N.3   192  ASN192     -0.1240
      2  CA        26.9680  -28.7890  -10.4670 C.3   192  ASN192      0.1653
      3  C         26.0530  -29.6030  -11.3820 C.2   192  ASN192      0.2266
      4  O         26.5300  -30.3360  -12.2490 O.2   192  ASN192     -0.2867
      5  CB        27.4340  -27.4980  -11.1600 C.3   192  ASN192      0.1155
      6  CG        26.3530  -26.4300  -11.2330 C.2   192  ASN192      0.2627
      7  OD1       25.5890  -26.2260  -10.2870 O.2   192  ASN192     -0.2716
      8  ND2       26.3070  -25.7190  -12.3540 N.am  192  ASN192     -0.0877
      9  N         23.0120  -28.9210  -13.9420 N.3   194  ILE194     -0.1245
     10  CA        22.2450  -27.8750  -14.6210 C.3   194  ILE194      0.1561
     11  C         21.2430  -28.2960  -15.6940 C.2   194  ILE194      0.2260
     12  O         20.5270  -27.4450  -16.2180 O.2   194  ILE194     -0.2867
     13  CB        23.1830  -26.8190  -15.2640 C.3   194  ILE194      0.0252
     14  CG1       23.9530  -27.4390  -16.4370 C.3   194  ILE194      0.0019
     15  CG2       24.1500  -26.2940  -14.2260 C.3   194  ILE194      0.0019
     16  CD1       24.9750  -26.5100  -17.0820 C.3   194  ILE194      0.0001
     17  N         17.6120  -27.2100  -11.0660 N.3   239  LEU239     -0.1245
     18  CA        19.0390  -26.9110  -10.9630 C.3   239  LEU239      0.1561
     19  C         19.5770  -27.0430   -9.5340 C.2   239  LEU239      0.2260
     20  O         19.0620  -26.4120   -8.6130 O.2   239  LEU239     -0.2867
     21  CB        19.3000  -25.4910  -11.4550 C.3   239  LEU239      0.0270
     22  CG        18.5190  -25.0170  -12.6850 C.3   239  LEU239      0.0019
     23  CD1       18.9090  -23.5790  -12.9990 C.3   239  LEU239      0.0001
     24  CD2       18.8180  -25.9050  -13.8700 C.3   239  LEU239      0.0001
     25  N         29.0720  -21.5920  -14.2250 N.3   247  THR247     -0.1218
     26  CA        28.8330  -21.9120  -15.6220 C.3   247  THR247      0.1862
     27  C         29.3490  -20.6950  -16.3760 C.2   247  THR247      0.2287
     28  O         29.0220  -19.5620  -16.0290 O.2   247  THR247     -0.2866
     29  CB        27.3330  -22.1270  -15.9000 C.3   247  THR247      0.1770
     30  OG1       26.8440  -23.1810  -15.0570 O.3   247  THR247     -0.2211
     31  CG2       27.1050  -22.5170  -17.3510 C.3   247  THR247      0.0375
     32  N         27.6050  -17.9360  -21.9910 N.3   250  HIS250     -0.1241
     33  CA        27.0040  -18.6490  -23.0950 C.3   250  HIS250      0.1621
     34  C         25.6850  -17.9920  -23.4550 C.2   250  HIS250      0.2264
     35  O         25.2150  -17.0840  -22.7630 O.2   250  HIS250     -0.2867
     36  CB        26.7330  -20.0980  -22.7050 C.3   250  HIS250      0.0745
     37  CG        25.7340  -20.2420  -21.5970 C.ar  250  HIS250      0.0817
     38  ND1       26.0240  -19.9300  -20.2840 N.ar  250  HIS250     -0.2268
     39  CD2       24.4380  -20.6350  -21.6110 C.ar  250  HIS250      0.1154
     40  CE1       24.9520  -20.1260  -19.5370 C.ar  250  HIS250      0.1986
     41  NE2       23.9760  -20.5530  -20.3190 N.ar  250  HIS250     -0.2212
     42  N         21.7940  -19.2070  -24.4750 N.3   252  ASP252     -0.1225
     43  CA        20.9190  -20.3720  -24.4800 C.3   252  ASP252      0.1805
     44  C         20.6810  -20.9730  -25.8510 C.2   252  ASP252      0.2597
     45  O         20.6140  -20.2700  -26.8530 O.2   252  ASP252     -0.2718
     46  CB        19.5870  -20.0270  -23.8460 C.3   252  ASP252      0.1424
     47  CG        19.6950  -19.8770  -22.3590 C.2   252  ASP252      0.3668
     48  OD1       20.1140  -20.8590  -21.6990 O.co2 252  ASP252     -0.2456
     49  OD2       19.3690  -18.7830  -21.8510 O.co2 252  ASP252     -0.2456
     50  N         20.5420  -22.2910  -25.8750 N.am  253  PHE253     -0.1976
     51  CA        20.3240  -23.0170  -27.1120 C.3   253  PHE253      0.1639
     52  C         19.1660  -22.4770  -27.9320 C.2   253  PHE253      0.2290
     53  O         18.0980  -22.1770  -27.3970 O.2   253  PHE253     -0.2864
     54  CB        20.1110  -24.5050  -26.8100 C.3   253  PHE253      0.0560
     55  CG        19.1450  -24.7740  -25.6860 C.ar  253  PHE253     -0.0200
     56  CD1       17.8040  -25.0410  -25.9470 C.ar  253  PHE253     -0.0042
     57  CD2       19.5860  -24.7970  -24.3660 C.ar  253  PHE253     -0.0042
     58  CE1       16.9160  -25.3320  -24.9130 C.ar  253  PHE253     -0.0003
     59  CE2       18.7040  -25.0880  -23.3210 C.ar  253  PHE253     -0.0003
     60  CZ        17.3650  -25.3570  -23.5980 C.ar  253  PHE253     -0.0000
     61  N         14.1020  -18.1270  -14.5560 N.3   260  TYR260     -0.1241
     62  CA        14.8070  -18.7940  -13.4550 C.3   260  TYR260      0.1605
     63  C         14.2020  -18.3860  -12.1360 C.2   260  TYR260      0.2264
     64  O         13.9470  -17.2030  -11.9100 O.2   260  TYR260     -0.2867
     65  CB        16.2840  -18.3750  -13.3710 C.3   260  TYR260      0.0534
     66  CG        17.2130  -18.9550  -14.4030 C.ar  260  TYR260     -0.0201
     67  CD1       17.6620  -20.2740  -14.3130 C.ar  260  TYR260     -0.0009
     68  CD2       17.6400  -18.1770  -15.4870 C.ar  260  TYR260     -0.0009
     69  CE1       18.5160  -20.8110  -15.2860 C.ar  260  TYR260      0.0417
     70  CE2       18.4890  -18.6960  -16.4650 C.ar  260  TYR260      0.0417
     71  CZ        18.9220  -20.0130  -16.3640 C.ar  260  TYR260      0.1957
     72  OH        19.7230  -20.5240  -17.3670 O.3   260  TYR260     -0.2866
     73  N         22.0660  -17.0990   -6.5370 N.3   267  LYS267     -0.1245
     74  CA        22.8010  -17.2150   -7.7840 C.3   267  LYS267      0.1561
     75  C         23.1550  -15.8290   -8.2980 C.2   267  LYS267      0.2260
     76  O         22.4340  -14.8610   -8.0730 O.2   267  LYS267     -0.2867
     77  CB        21.9970  -18.0170   -8.8180 C.3   267  LYS267      0.0271
     78  CG        22.1640  -19.5320   -8.6260 C.3   267  LYS267      0.0035
     79  CD        21.4650  -20.3600   -9.6960 C.3   267  LYS267      0.0206
     80  CE        21.9940  -21.8060   -9.7370 C.3   267  LYS267      0.1093
     81  NZ        21.6910  -22.6530   -8.5350 N.3   267  LYS267     -0.1314
     82  N         24.2020  -13.7700  -11.7320 N.3   269  PHE269     -0.1241
     83  CA        24.2820  -13.7810  -13.1830 C.3   269  PHE269      0.1605
     84  C         25.1440  -12.6340  -13.6650 C.2   269  PHE269      0.2264
     85  O         25.0470  -11.5200  -13.1510 O.2   269  PHE269     -0.2867
     86  CB        22.8850  -13.6460  -13.7930 C.3   269  PHE269      0.0534
     87  CG        22.0320  -14.8760  -13.6490 C.ar  269  PHE269     -0.0203
     88  CD1       21.7770  -15.6910  -14.7480 C.ar  269  PHE269     -0.0042
     89  CD2       21.4790  -15.2210  -12.4170 C.ar  269  PHE269     -0.0042
     90  CE1       20.9880  -16.8270  -14.6280 C.ar  269  PHE269     -0.0003
     91  CE2       20.6870  -16.3590  -12.2850 C.ar  269  PHE269     -0.0003
     92  CZ        20.4420  -17.1640  -13.3950 C.ar  269  PHE269     -0.0000
     93  N         25.4250  -14.6810  -20.8680 N.3   322  HIS322     -0.1241
     94  CA        25.5480  -14.7000  -19.4080 C.3   322  HIS322      0.1621
     95  C         26.3140  -15.8800  -18.8100 C.2   322  HIS322      0.2264
     96  O         26.3440  -16.9750  -19.3670 O.2   322  HIS322     -0.2867
     97  CB        24.1590  -14.6490  -18.7640 C.3   322  HIS322      0.0745
     98  CG        23.3060  -15.8300  -19.1020 C.ar  322  HIS322      0.0817
     99  ND1       22.9180  -16.1200  -20.3930 N.ar  322  HIS322     -0.2268
    100  CD2       22.8140  -16.8260  -18.3280 C.ar  322  HIS322      0.1154
    101  CE1       22.2280  -17.2460  -20.4000 C.ar  322  HIS322      0.1986
    102  NE2       22.1510  -17.6950  -19.1600 N.ar  322  HIS322     -0.2212
    103  N         27.1100  -17.7840  -14.8120 N.3   324  VAL324     -0.1245
    104  CA        26.4180  -17.9000  -13.5330 C.3   324  VAL324      0.1561
    105  C         27.3030  -18.4680  -12.4260 C.2   324  VAL324      0.2260
    106  O         27.9800  -19.4820  -12.5980 O.2   324  VAL324     -0.2867
    107  CB        25.1330  -18.8050  -13.6480 C.3   324  VAL324      0.0252
    108  CG1       24.3550  -18.7830  -12.3430 C.3   324  VAL324      0.0019
    109  CG2       24.2260  -18.3200  -14.7580 C.3   324  VAL324      0.0019
    110  N         27.2130  -19.8490   -8.4830 N.3   326  THR326     -0.1218
    111  CA        26.3460  -20.2510   -7.3840 C.3   326  THR326      0.1862
    112  C         26.9780  -19.7290   -6.0930 C.2   326  THR326      0.2287
    113  O         27.9480  -20.2740   -5.5880 O.2   326  THR326     -0.2866
    114  CB        26.1900  -21.7610   -7.3560 C.3   326  THR326      0.1770
    115  OG1       25.5580  -22.1710   -8.5760 O.3   326  THR326     -0.2211
    116  CG2       25.3440  -22.2080   -6.1620 C.3   326  THR326      0.0375
@<TRIPOS>BOND
     1    52    53    2
     2    52    51    1
     3    51    54    1
     4    51    50    1
     5    45    44    2
     6    54    55    1
     7    56    55   ar
     8    56    58   ar
     9    50    44   am
    10    44    43    1
    11    55    57   ar
    12    58    60   ar
    13    43    42    1
    14    43    46    1
    15    57    59   ar
    16    46    47    1
    17    60    59   ar
    18    34    33    1
    19    34    35    2
    20    33    36    1
    21    33    32    1
    22    36    37    1
    23    47    49   ar
    24    47    48   ar
    25    39    37   ar
    26    39    41   ar
    27    37    38   ar
    28    93    94    1
    29   101    99   ar
    30   101   102   ar
    31    99    98   ar
    32    41    40   ar
    33    38    40   ar
    34    94    95    1
    35    94    97    1
    36    96    95    2
    37   102   100   ar
    38    98    97    1
    39    98   100   ar
    40    72    71    1
    41    31    29    1
    42    16    14    1
    43    70    71   ar
    44    70    68   ar
    45    14    13    1
    46    27    28    2
    47    27    26    1
    48    71    69   ar
    49    12    11    2
    50    29    26    1
    51    29    30    1
    52    11    10    1
    53    26    25    1
    54    68    66   ar
    55    69    67   ar
    56    13    10    1
    57    13    15    1
    58   103   104    1
    59   109   107    1
    60    88    90   ar
    61    88    87   ar
    62    90    92   ar
    63    10     9    1
    64    61    62    1
    65    66    67   ar
    66    66    65    1
    67    24    22    1
    68    86    87    1
    69    86    83    1
    70    84    83    1
    71    84    85    2
    72    87    89   ar
    73   107   104    1
    74   107   108    1
    75   104   105    1
    76    62    65    1
    77    62    63    1
    78    92    91   ar
    79    83    82    1
    80    23    22    1
    81    22    21    1
    82   106   105    2
    83    89    91   ar
    84     8     6   am
    85     4     3    2
    86    63    64    2
    87    21    18    1
    88     3     2    1
    89     6     5    1
    90     6     7    2
    91     5     2    1
    92    17    18    1
    93    18    19    1
    94     2     1    1
    95    80    79    1
    96    80    81    1
    97    79    78    1
    98    19    20    2
    99    77    78    1
   100    77    74    1
   101   115   114    1
   102   110   111    1
   103    75    76    2
   104    75    74    1
   105    74    73    1
   106   111   114    1
   107   111   112    1
   108   114   116    1
   109   112   113    2
