@<TRIPOS>MOLECULE
tmp/3kv6B00.pdb
 161 153 0 0 0
SMALL
GASTEIGER

@<TRIPOS>ATOM
      1  N        -26.4670  -30.6620    9.8870 N.3   193  ASN193     -0.1240
      2  CA       -25.3000  -29.8930   10.2650 C.3   193  ASN193      0.1653
      3  C        -24.3990  -30.5750   11.2810 C.2   193  ASN193      0.2266
      4  O        -24.8380  -30.9090   12.3770 O.2   193  ASN193     -0.2867
      5  CB       -25.7800  -28.5560   10.8090 C.3   193  ASN193      0.1155
      6  CG       -24.6990  -27.7990   11.5110 C.2   193  ASN193      0.2627
      7  OD1      -23.6080  -27.6200   10.9700 O.2   193  ASN193     -0.2716
      8  ND2      -24.9910  -27.3340   12.7250 N.am  193  ASN193     -0.0877
      9  N        -21.3040  -30.4230   13.8420 N.3   195  ILE195     -0.1245
     10  CA       -20.5140  -29.4410   14.5820 C.3   195  ILE195      0.1561
     11  C        -19.5430  -29.9640   15.6370 C.2   195  ILE195      0.2260
     12  O        -18.8490  -29.1690   16.2770 O.2   195  ILE195     -0.2867
     13  CB       -21.4180  -28.3830   15.2560 C.3   195  ILE195      0.0252
     14  CG1      -22.3390  -29.0350   16.2820 C.3   195  ILE195      0.0019
     15  CG2      -22.2320  -27.6580   14.2010 C.3   195  ILE195      0.0019
     16  CD1      -23.2160  -28.0320   16.9950 C.3   195  ILE195      0.0001
     17  N        -11.5080  -29.1530   15.8160 N.3   238  TYR238     -0.1241
     18  CA       -12.8310  -29.5000   15.3380 C.3   238  TYR238      0.1605
     19  C        -12.9920  -29.1130   13.8760 C.2   238  TYR238      0.2264
     20  O        -12.4540  -28.1100   13.4180 O.2   238  TYR238     -0.2867
     21  CB       -13.9060  -28.7790   16.1410 C.3   238  TYR238      0.0534
     22  CG       -14.1080  -29.3050   17.5340 C.ar  238  TYR238     -0.0201
     23  CD1      -13.5000  -28.6920   18.6250 C.ar  238  TYR238     -0.0009
     24  CD2      -14.9280  -30.4080   17.7680 C.ar  238  TYR238     -0.0009
     25  CE1      -13.7100  -29.1630   19.9210 C.ar  238  TYR238      0.0417
     26  CE2      -15.1390  -30.8880   19.0510 C.ar  238  TYR238      0.0417
     27  CZ       -14.5300  -30.2630   20.1250 C.ar  238  TYR238      0.1957
     28  OH       -14.7380  -30.7380   21.3990 O.3   238  TYR238     -0.2866
     29  N        -15.9750  -28.2780   11.3940 N.3   240  LEU240     -0.1245
     30  CA       -17.3970  -27.9900   11.3220 C.3   240  LEU240      0.1561
     31  C        -17.8610  -27.8600    9.8790 C.2   240  LEU240      0.2260
     32  O        -17.2920  -27.1000    9.1070 O.2   240  LEU240     -0.2867
     33  CB       -17.6620  -26.7010   12.0870 C.3   240  LEU240      0.0270
     34  CG       -16.7780  -26.6840   13.3350 C.3   240  LEU240      0.0019
     35  CD1      -15.9240  -25.4480   13.3190 C.3   240  LEU240      0.0001
     36  CD2      -17.6130  -26.7490   14.5870 C.3   240  LEU240      0.0001
     37  N        -28.1900  -23.8490    8.3580 N.3   246  SER246     -0.1202
     38  CA       -27.9650  -24.6720    9.5330 C.3   246  SER246      0.2020
     39  C        -27.9860  -23.6440   10.6530 C.2   246  SER246      0.2619
     40  O        -27.5000  -22.5310   10.4780 O.2   246  SER246     -0.2717
     41  CB       -26.5920  -25.3520    9.4800 C.3   246  SER246      0.2103
     42  OG       -26.5530  -26.4000    8.5300 O.3   246  SER246     -0.2182
     43  N        -28.5440  -24.0000   11.7990 N.am  247  TYR247     -0.1961
     44  CA       -28.6200  -23.0530   12.8990 C.3   247  TYR247      0.1771
     45  C        -28.3300  -23.6830   14.2370 C.2   247  TYR247      0.2620
     46  O        -28.8600  -24.7350   14.5590 O.2   247  TYR247     -0.2715
     47  CB       -30.0130  -22.4260   12.9410 C.3   247  TYR247      0.0574
     48  CG       -30.2590  -21.5320   14.1320 C.ar  247  TYR247     -0.0198
     49  CD1      -29.8190  -20.2080   14.1450 C.ar  247  TYR247     -0.0009
     50  CD2      -30.9360  -22.0120   15.2510 C.ar  247  TYR247     -0.0009
     51  CE1      -30.0560  -19.3850   15.2490 C.ar  247  TYR247      0.0417
     52  CE2      -31.1740  -21.2010   16.3580 C.ar  247  TYR247      0.0417
     53  CZ       -30.7330  -19.8920   16.3510 C.ar  247  TYR247      0.1957
     54  OH       -30.9630  -19.1040   17.4540 O.3   247  TYR247     -0.2866
     55  N        -27.4710  -23.0460   15.0160 N.am  248  THR248     -0.1951
     56  CA       -27.1680  -23.5380   16.3490 C.3   248  THR248      0.1897
     57  C        -27.6650  -22.4760   17.3120 C.2   248  THR248      0.2313
     58  O        -27.2860  -21.3120   17.2260 O.2   248  THR248     -0.2863
     59  CB       -25.6850  -23.7750   16.5390 C.3   248  THR248      0.1794
     60  OG1      -25.2960  -24.9180   15.7670 O.3   248  THR248     -0.2208
     61  CG2      -25.3750  -24.0200   17.9980 C.3   248  THR248      0.0378
     62  N        -26.0350  -20.6130   23.2190 N.3   251  HIS251     -0.1241
     63  CA       -25.4450  -21.4780   24.2250 C.3   251  HIS251      0.1621
     64  C        -24.1750  -20.8120   24.7450 C.2   251  HIS251      0.2264
     65  O        -23.8640  -19.6790   24.3740 O.2   251  HIS251     -0.2867
     66  CB       -25.1060  -22.8460   23.6160 C.3   251  HIS251      0.0745
     67  CG       -24.1410  -22.7780   22.4700 C.ar  251  HIS251      0.0817
     68  ND1      -24.4570  -22.1950   21.2590 N.ar  251  HIS251     -0.2268
     69  CD2      -22.8580  -23.2000   22.3580 C.ar  251  HIS251      0.1154
     70  CE1      -23.4110  -22.2580   20.4530 C.ar  251  HIS251      0.1986
     71  NE2      -22.4270  -22.8620   21.0960 N.ar  251  HIS251     -0.2212
     72  N        -20.1580  -22.1130   25.4300 N.3   253  ASP253     -0.1225
     73  CA       -19.2790  -23.2530   25.2440 C.3   253  ASP253      0.1805
     74  C        -19.0140  -24.0240   26.5170 C.2   253  ASP253      0.2597
     75  O        -18.8900  -23.4560   27.6040 O.2   253  ASP253     -0.2718
     76  CB       -17.9630  -22.8390   24.5840 C.3   253  ASP253      0.1424
     77  CG       -18.0640  -22.8140   23.0570 C.2   253  ASP253      0.3668
     78  OD1      -18.4280  -21.7500   22.5010 O.co2 253  ASP253     -0.2456
     79  OD2      -17.7970  -23.8660   22.4160 O.co2 253  ASP253     -0.2456
     80  N        -18.9480  -25.3380   26.3640 N.am  254  PHE254     -0.1976
     81  CA       -18.7300  -26.2220   27.4870 C.3   254  PHE254      0.1639
     82  C        -17.5380  -25.8300   28.3370 C.2   254  PHE254      0.2290
     83  O        -16.4560  -25.5500   27.8250 O.2   254  PHE254     -0.2864
     84  CB       -18.5990  -27.6720   26.9990 C.3   254  PHE254      0.0560
     85  CG       -17.6820  -27.8510   25.8160 C.ar  254  PHE254     -0.0200
     86  CD1      -16.4420  -28.4670   25.9680 C.ar  254  PHE254     -0.0042
     87  CD2      -18.0790  -27.4500   24.5400 C.ar  254  PHE254     -0.0042
     88  CE1      -15.6070  -28.6900   24.8700 C.ar  254  PHE254     -0.0003
     89  CE2      -17.2510  -27.6670   23.4290 C.ar  254  PHE254     -0.0003
     90  CZ       -16.0100  -28.2920   23.5980 C.ar  254  PHE254     -0.0000
     91  N        -13.0120  -19.9650   22.6380 N.3   259  VAL259     -0.1245
     92  CA       -12.9120  -20.6590   21.3740 C.3   259  VAL259      0.1561
     93  C        -12.4390  -19.7990   20.2170 C.2   259  VAL259      0.2260
     94  O        -12.6630  -18.5930   20.1900 O.2   259  VAL259     -0.2867
     95  CB       -14.2660  -21.3140   21.0070 C.3   259  VAL259      0.0252
     96  CG1      -15.4010  -20.3140   21.1710 C.3   259  VAL259      0.0019
     97  CG2      -14.2090  -21.8420   19.5790 C.3   259  VAL259      0.0019
     98  N        -12.4460  -19.5870   15.9990 N.3   261  TYR261     -0.1241
     99  CA       -13.1830  -20.0380   14.8300 C.3   261  TYR261      0.1605
    100  C        -12.5420  -19.5030   13.5510 C.2   261  TYR261      0.2264
    101  O        -12.1400  -18.3420   13.4960 O.2   261  TYR261     -0.2867
    102  CB       -14.6040  -19.5060   14.9470 C.3   261  TYR261      0.0534
    103  CG       -15.6490  -20.2570   14.1790 C.ar  261  TYR261     -0.0201
    104  CD1      -16.0510  -21.5250   14.5780 C.ar  261  TYR261     -0.0009
    105  CD2      -16.2920  -19.6710   13.0940 C.ar  261  TYR261     -0.0009
    106  CE1      -17.0770  -22.1900   13.9230 C.ar  261  TYR261      0.0417
    107  CE2      -17.3180  -20.3260   12.4290 C.ar  261  TYR261      0.0417
    108  CZ       -17.7080  -21.5820   12.8510 C.ar  261  TYR261      0.1957
    109  OH       -18.7450  -22.2240   12.2240 O.3   261  TYR261     -0.2866
    110  N        -20.3620  -17.7970    8.0750 N.3   268  LYS268     -0.1245
    111  CA       -21.0630  -18.0540    9.3280 C.3   268  LYS268      0.1561
    112  C        -21.4850  -16.7090    9.8890 C.2   268  LYS268      0.2260
    113  O        -20.8060  -15.7110    9.6800 O.2   268  LYS268     -0.2867
    114  CB       -20.1450  -18.7290   10.3470 C.3   268  LYS268      0.0271
    115  CG       -19.6790  -20.1190    9.9780 C.3   268  LYS268      0.0035
    116  CD       -20.6720  -21.1960   10.3830 C.3   268  LYS268      0.0206
    117  CE       -20.1780  -22.5760    9.9450 C.3   268  LYS268      0.1093
    118  NZ       -21.0090  -23.7060   10.4540 N.3   268  LYS268     -0.1314
    119  N        -22.4830  -15.0360   13.5280 N.3   270  PHE270     -0.1241
    120  CA       -22.6000  -15.2330   14.9660 C.3   270  PHE270      0.1605
    121  C        -23.5220  -14.1940   15.5780 C.2   270  PHE270      0.2264
    122  O        -23.5650  -13.0350   15.1480 O.2   270  PHE270     -0.2867
    123  CB       -21.2280  -15.1650   15.6280 C.3   270  PHE270      0.0534
    124  CG       -20.3800  -16.3750   15.3730 C.ar  270  PHE270     -0.0203
    125  CD1      -20.3170  -17.4020   16.3010 C.ar  270  PHE270     -0.0042
    126  CD2      -19.6610  -16.5030   14.1870 C.ar  270  PHE270     -0.0042
    127  CE1      -19.5510  -18.5380   16.0540 C.ar  270  PHE270     -0.0003
    128  CE2      -18.8930  -17.6360   13.9330 C.ar  270  PHE270     -0.0003
    129  CZ       -18.8390  -18.6520   14.8690 C.ar  270  PHE270     -0.0000
    130  N        -23.6120  -17.2280   22.5770 N.3   323  HIS323     -0.1241
    131  CA       -23.7250  -17.0670   21.1310 C.3   323  HIS323      0.1621
    132  C        -24.6080  -18.0820   20.4090 C.2   323  HIS323      0.2264
    133  O        -24.8680  -19.1860   20.9050 O.2   323  HIS323     -0.2867
    134  CB       -22.3350  -17.0450   20.4820 C.3   323  HIS323      0.0745
    135  CG       -21.5450  -18.3000   20.6770 C.ar  323  HIS323      0.0817
    136  ND1      -21.1310  -18.7350   21.9170 N.ar  323  HIS323     -0.2268
    137  CD2      -21.0820  -19.2090   19.7860 C.ar  323  HIS323      0.1154
    138  CE1      -20.4490  -19.8580   21.7820 C.ar  323  HIS323      0.1986
    139  NE2      -20.4040  -20.1680   20.4980 N.ar  323  HIS323     -0.2212
    140  N        -25.3590  -19.4200   16.2200 N.3   325  VAL325     -0.1245
    141  CA       -24.7590  -19.3630   14.9030 C.3   325  VAL325      0.1561
    142  C        -25.7140  -19.7310   13.7970 C.2   325  VAL325      0.2260
    143  O        -26.5340  -20.6350   13.9410 O.2   325  VAL325     -0.2867
    144  CB       -23.5310  -20.3020   14.8010 C.3   325  VAL325      0.0252
    145  CG1      -22.8280  -20.0820   13.4920 C.3   325  VAL325      0.0019
    146  CG2      -22.5760  -20.0580   15.9460 C.3   325  VAL325      0.0019
    147  N        -25.6060  -20.5740    9.6880 N.3   327  THR327     -0.1218
    148  CA       -24.6930  -20.8500    8.6050 C.3   327  THR327      0.1862
    149  C        -25.2960  -20.2720    7.3380 C.2   327  THR327      0.2287
    150  O        -26.1060  -20.9010    6.6620 O.2   327  THR327     -0.2866
    151  CB       -24.4370  -22.3470    8.4950 C.3   327  THR327      0.1770
    152  OG1      -23.8490  -22.7940    9.7230 O.3   327  THR327     -0.2211
    153  CG2      -23.4920  -22.6470    7.3560 C.3   327  THR327      0.0375
    154  N        -11.3410  -25.3290   21.3500 N.3   337  ASN337     -0.1240
    155  CA       -11.7460  -24.8020   22.6550 C.3   337  ASN337      0.1653
    156  C        -10.6030  -24.8880   23.6510 C.2   337  ASN337      0.2266
    157  O         -9.9480  -25.9230   23.7550 O.2   337  ASN337     -0.2867
    158  CB       -12.9450  -25.5830   23.2060 C.3   337  ASN337      0.1155
    159  CG       -14.2280  -25.3190   22.4340 C.2   337  ASN337      0.2627
    160  OD1      -14.3550  -25.6940   21.2670 O.2   337  ASN337     -0.2716
    161  ND2      -15.1860  -24.6670   23.0850 N.am  337  ASN337     -0.0877
@<TRIPOS>BOND
     1   150   149    2
     2   149   148    1
     3   153   151    1
     4   110   111    1
     5    37    38    1
     6   151   148    1
     7   151   152    1
     8    42    41    1
     9   148   147    1
    10    32    31    2
    11   111   112    1
    12   111   114    1
    13    41    38    1
    14    38    39    1
    15   113   112    2
    16    31    30    1
    17     1     2    1
    18   117   116    1
    19   117   118    1
    20   115   114    1
    21   115   116    1
    22     2     5    1
    23     2     3    1
    24    40    39    2
    25    39    43   am
    26     5     6    1
    27     7     6    2
    28     3     4    2
    29    30    29    1
    30    30    33    1
    31     6     8   am
    32    43    44    1
    33    33    34    1
    34   109   108    1
    35   107   108   ar
    36   107   105   ar
    37   108   106   ar
    38    44    47    1
    39    44    45    1
    40    47    48    1
    41   105   103   ar
    42    35    34    1
    43    34    36    1
    44    20    19    2
    45   145   144    1
    46   101   100    2
    47   119   120    1
    48   100    99    1
    49   142   143    2
    50   142   141    1
    51     9    10    1
    52    19    18    1
    53   106   104   ar
    54   128   126   ar
    55   128   129   ar
    56    48    49   ar
    57    48    50   ar
    58    49    51   ar
    59   103   104   ar
    60   103   102    1
    61   126   124   ar
    62    15    13    1
    63    45    46    2
    64    45    55   am
    65    10    13    1
    66    10    11    1
    67   144   141    1
    68   144   146    1
    69    99   102    1
    70    99    98    1
    71   129   127   ar
    72   141   140    1
    73   120   121    1
    74   120   123    1
    75    55    56    1
    76   122   121    2
    77    51    53   ar
    78    50    52   ar
    79    13    14    1
    80    18    17    1
    81    18    21    1
    82   124   123    1
    83   124   125   ar
    84    11    12    2
    85    60    59    1
    86   127   125   ar
    87    21    22    1
    88    14    16    1
    89    56    59    1
    90    56    57    1
    91    53    52   ar
    92    53    54    1
    93    59    61    1
    94    58    57    2
    95    22    24   ar
    96    22    23   ar
    97    24    26   ar
    98    23    25   ar
    99    26    27   ar
   100    97    95    1
   101   137   139   ar
   102   137   135   ar
   103    25    27   ar
   104    27    28    1
   105    94    93    2
   106    93    92    1
   107   132   133    2
   108   132   131    1
   109    70    71   ar
   110    70    68   ar
   111   134   135    1
   112   134   131    1
   113   139   138   ar
   114   135   136   ar
   115    95    96    1
   116    95    92    1
   117    71    69   ar
   118   131   130    1
   119    68    67   ar
   120   160   159    2
   121   154   155    1
   122    92    91    1
   123   138   136   ar
   124    69    67   ar
   125    79    77   ar
   126   159   161   am
   127   159   158    1
   128    67    66    1
   129    78    77   ar
   130   155   158    1
   131   155   156    1
   132    77    76    1
   133    62    63    1
   134    89    90   ar
   135    89    87   ar
   136    90    88   ar
   137    66    63    1
   138   156   157    2
   139    63    64    1
   140    65    64    2
   141    87    85   ar
   142    76    73    1
   143    88    86   ar
   144    73    72    1
   145    73    74    1
   146    85    86   ar
   147    85    84    1
   148    80    74   am
   149    80    81    1
   150    74    75    2
   151    84    81    1
   152    81    82    1
   153    83    82    2
