@<TRIPOS>MOLECULE
tmp/3kvgB00.pdb
 170 158 0 0 0
SMALL
GASTEIGER

@<TRIPOS>ATOM
      1  N         -0.8420   25.6330  -22.4470 N.3     7  ASP7       -0.1239
      2  CA        -0.7190   26.2280  -21.1350 C.3     7  ASP7        0.1674
      3  C          0.4210   25.4530  -20.4720 C.2     7  ASP7        0.2266
      4  O          0.2340   24.3070  -20.0920 O.2     7  ASP7       -0.2867
      5  CB        -2.0330   26.0770  -20.3400 C.3     7  ASP7        0.1410
      6  CG        -1.9400   26.4300  -18.8620 C.2     7  ASP7        0.3668
      7  OD1       -0.9900   27.1720  -18.4760 O.co2   7  ASP7       -0.2456
      8  OD2       -2.8160   25.9850  -18.0940 O.co2   7  ASP7       -0.2456
      9  N          2.0590   25.1100  -17.4690 N.3     9  GLY9       -0.1210
     10  CA         1.8840   25.4170  -16.0540 C.3     9  GLY9        0.1956
     11  C          3.0470   25.0150  -15.1820 C.2     9  GLY9        0.2613
     12  O          3.8890   24.2100  -15.5960 O.2     9  GLY9       -0.2717
     13  N          3.0910   25.5720  -13.9520 N.am   10  THR10      -0.1938
     14  CA         4.1430   25.2710  -12.9720 C.3    10  THR10       0.2028
     15  C          4.0290   23.8080  -12.5610 C.2    10  THR10       0.2643
     16  O          5.0440   23.1190  -12.4550 O.2    10  THR10      -0.2714
     17  CB         4.0400   26.1980  -11.7310 C.3    10  THR10       0.1808
     18  OG1        3.8700   27.5550  -12.1440 O.3    10  THR10      -0.2208
     19  CG2        5.2420   26.0910  -10.8130 C.3    10  THR10       0.0379
     20  N          2.7850   23.3390  -12.3550 N.am   11  THR11      -0.1936
     21  CA         2.5020   21.9770  -11.9080 C.3    11  THR11       0.2028
     22  C          1.8610   21.0930  -12.9930 C.2    11  THR11       0.2642
     23  O          2.1880   19.9120  -13.0810 O.2    11  THR11      -0.2714
     24  CB         1.7140   22.0200  -10.5820 C.3    11  THR11       0.1808
     25  OG1        0.4230   22.5850  -10.8020 O.3    11  THR11      -0.2208
     26  CG2        2.4540   22.8220   -9.4900 C.3    11  THR11       0.0379
     27  N          0.9460   21.6580  -13.8060 N.am   12  TYR12      -0.1973
     28  CA         0.2650   20.9180  -14.8750 C.3    12  TYR12       0.1639
     29  C          0.2620   21.6590  -16.1990 C.2    12  TYR12       0.2290
     30  O          0.0790   22.8730  -16.2250 O.2    12  TYR12      -0.2864
     31  CB        -1.1890   20.5740  -14.4880 C.3    12  TYR12       0.0560
     32  CG        -1.2950   19.5470  -13.3890 C.ar   12  TYR12      -0.0198
     33  CD1       -1.5100   18.2030  -13.6830 C.ar   12  TYR12      -0.0009
     34  CD2       -1.1850   19.9180  -12.0460 C.ar   12  TYR12      -0.0009
     35  CE1       -1.6150   17.2510  -12.6710 C.ar   12  TYR12       0.0417
     36  CE2       -1.2580   18.9720  -11.0270 C.ar   12  TYR12       0.0417
     37  CZ        -1.4760   17.6410  -11.3450 C.ar   12  TYR12       0.1957
     38  OH        -1.5680   16.7200  -10.3380 O.3    12  TYR12      -0.2866
     39  N         -5.0470   17.2720  -18.4380 N.3    34  THR34      -0.1218
     40  CA        -3.8780   18.0120  -17.9050 C.3    34  THR34       0.1862
     41  C         -2.7780   16.9860  -17.6030 C.2    34  THR34       0.2287
     42  O         -3.0890   15.8540  -17.2420 O.2    34  THR34      -0.2866
     43  CB        -4.2020   18.9310  -16.6970 C.3    34  THR34       0.1770
     44  OG1       -4.5730   18.1450  -15.5710 O.3    34  THR34      -0.2211
     45  CG2       -5.2760   19.9720  -17.0030 C.3    34  THR34       0.0375
     46  N          9.4190   26.0440  -14.3200 N.3    68  LYS68      -0.1245
     47  CA         8.7990   27.3550  -14.5710 C.3    68  LYS68       0.1561
     48  C          9.2920   28.4160  -13.5480 C.2    68  LYS68       0.2260
     49  O          9.3660   29.6000  -13.8860 O.2    68  LYS68      -0.2867
     50  CB         7.2630   27.2420  -14.5530 C.3    68  LYS68       0.0271
     51  CG         6.5580   28.4410  -15.1690 C.3    68  LYS68       0.0035
     52  CD         5.0690   28.2170  -15.2600 C.3    68  LYS68       0.0206
     53  CE         4.3820   29.4340  -15.8190 C.3    68  LYS68       0.1093
     54  NZ         2.9540   29.1500  -16.1190 N.3    68  LYS68      -0.1314
     55  N         -6.8670   33.4610  -10.8170 N.3   197  ASP197     -0.1239
     56  CA        -6.1780   32.2190  -11.1700 C.3   197  ASP197      0.1674
     57  C         -5.4550   31.5430   -9.9960 C.2   197  ASP197      0.2266
     58  O         -4.4000   32.0090   -9.5610 O.2   197  ASP197     -0.2867
     59  CB        -5.2220   32.4950  -12.3560 C.3   197  ASP197      0.1410
     60  CG        -4.6040   31.2990  -13.0560 C.2   197  ASP197      0.3668
     61  OD1       -4.7330   30.1650  -12.5350 O.co2 197  ASP197     -0.2456
     62  OD2       -4.0020   31.4940  -14.1290 O.co2 197  ASP197     -0.2456
     63  N         -3.9060   27.8870   -9.1980 N.3   199  GLY199     -0.1210
     64  CA        -3.4880   26.5840   -9.7000 C.3   199  GLY199      0.1956
     65  C         -2.8880   25.6750   -8.6510 C.2   199  GLY199      0.2612
     66  O         -3.3250   25.6690   -7.4970 O.2   199  GLY199     -0.2717
     67  N         -1.8910   24.8980   -9.0710 N.am  200  GLY200     -0.1942
     68  CA        -1.1970   23.9430   -8.2180 C.3   200  GLY200      0.2014
     69  C         -0.1580   24.5750   -7.3130 C.2   200  GLY200      0.2639
     70  O         -0.0290   24.1840   -6.1590 O.2   200  GLY200     -0.2714
     71  N          0.5890   25.5330   -7.8320 N.am  201  GLY201     -0.1939
     72  CA         1.6460   26.1840   -7.0620 C.3   201  GLY201      0.2014
     73  C          1.5560   27.6910   -6.9160 C.2   201  GLY201      0.2639
     74  O          2.2190   28.2640   -6.0420 O.2   201  GLY201     -0.2714
     75  N          0.7800   28.3610   -7.7970 N.am  202  THR202     -0.1950
     76  CA         0.6930   29.8250   -7.7890 C.3   202  THR202      0.1897
     77  C         -0.7300   30.3830   -7.7280 C.2   202  THR202      0.2313
     78  O         -1.7120   29.6930   -8.0170 O.2   202  THR202     -0.2863
     79  CB         1.4810   30.4530   -8.9460 C.3   202  THR202      0.1794
     80  OG1        0.7980   30.2230  -10.1800 O.3   202  THR202     -0.2208
     81  CG2        2.9430   29.9750   -9.0320 C.3   202  THR202      0.0378
     82  N         -2.7660   24.6740   -4.8930 N.3   228  GLY228     -0.1210
     83  CA        -3.2970   23.3790   -4.4950 C.3   228  GLY228      0.1956
     84  C         -2.3380   22.4680   -3.7470 C.2   228  GLY228      0.2611
     85  O         -2.7840   21.6770   -2.9140 O.2   228  GLY228     -0.2717
     86  N         -1.0210   22.5660   -4.0410 N.am  229  GLU229     -0.1979
     87  CA         0.0320   21.7800   -3.3860 C.3   229  GLU229      0.1602
     88  C          0.1040   22.1080   -1.8930 C.2   229  GLU229      0.2287
     89  O          0.2410   21.1970   -1.0810 O.2   229  GLU229     -0.2864
     90  CB         1.3990   22.0060   -4.0460 C.3   229  GLU229      0.0415
     91  CG         1.5560   21.3110   -5.3860 C.3   229  GLU229      0.1163
     92  CD         1.4560   19.7960   -5.3930 C.2   229  GLU229      0.3649
     93  OE1        2.1230   19.1500   -4.5530 O.co2 229  GLU229     -0.2457
     94  OE2        0.7280   19.2560   -6.2590 O.co2 229  GLU229     -0.2457
     95  N         -4.4810   14.3780   -1.9760 N.3   267  GLU267     -0.1245
     96  CA        -4.7820   15.0450   -3.2500 C.3   267  GLU267      0.1567
     97  C         -6.1510   14.5880   -3.7600 C.2   267  GLU267      0.2260
     98  O         -6.9680   15.4270   -4.1330 O.2   267  GLU267     -0.2867
     99  CB        -3.6680   14.7400   -4.2840 C.3   267  GLU267      0.0388
    100  CG        -3.9950   15.0420   -5.7420 C.3   267  GLU267      0.1160
    101  CD        -4.1670   16.4990   -6.1100 C.2   267  GLU267      0.3649
    102  OE1       -3.5920   17.3710   -5.4220 O.co2 267  GLU267     -0.2457
    103  OE2       -4.8470   16.7690   -7.1210 O.co2 267  GLU267     -0.2457
    104  N         -8.9820   15.8160   -1.3810 N.3   270  LYS270     -0.1231
    105  CA        -9.2110   17.2420   -1.6390 C.3   270  LYS270      0.1693
    106  C        -10.1340   17.4210   -2.8490 C.2   270  LYS270      0.2591
    107  O        -11.1030   18.1810   -2.7640 O.2   270  LYS270     -0.2718
    108  CB        -7.8820   17.9700   -1.8550 C.3   270  LYS270      0.0285
    109  CG        -8.0290   19.4410   -2.2310 C.3   270  LYS270      0.0035
    110  CD        -6.7140   20.0740   -2.6710 C.3   270  LYS270      0.0206
    111  CE        -6.2840   19.6250   -4.0550 C.3   270  LYS270      0.1093
    112  NZ        -5.0000   20.2590   -4.4310 N.3   270  LYS270     -0.1314
    113  N         -9.8530   16.7010   -3.9560 N.am  271  ARG271     -0.1980
    114  CA       -10.6590   16.7320   -5.1730 C.3   271  ARG271      0.1597
    115  C        -12.0840   16.2390   -4.9020 C.2   271  ARG271      0.2287
    116  O        -13.0270   16.8790   -5.3610 O.2   271  ARG271     -0.2864
    117  CB        -9.9990   15.9240   -6.3010 C.3   271  ARG271      0.0334
    118  CG        -8.7580   16.5740   -6.9210 C.3   271  ARG271      0.0492
    119  CD        -8.0540   15.5890   -7.8210 C.3   271  ARG271      0.2205
    120  NE        -8.1170   15.9790   -9.2290 N.pl3 271  ARG271     -0.0865
    121  CZ        -7.0730   16.3580   -9.9570 C.cat 271  ARG271      0.5346
    122  NH1       -5.8570   16.3750   -9.4290 N.pl3 271  ARG271      0.1354
    123  NH2       -7.2340   16.6990  -11.2270 N.pl3 271  ARG271      0.1354
    124  N        -14.5390   18.7670   -3.3450 N.3   274  SER274     -0.1217
    125  CA       -15.0470   19.8330   -4.1990 C.3   274  SER274      0.1889
    126  C        -16.4550   19.4920   -4.6860 C.2   274  SER274      0.2288
    127  O        -17.1960   20.3900   -5.0850 O.2   274  SER274     -0.2866
    128  CB       -14.0980   20.1020   -5.3590 C.3   274  SER274      0.2089
    129  OG       -12.9460   20.7750   -4.8830 O.3   274  SER274     -0.2183
    130  N         -7.6260   28.0170  -13.1380 N.3   337  GLY337     -0.1210
    131  CA        -6.8150   27.1950  -12.2510 C.3   337  GLY337      0.1956
    132  C         -7.6450   26.1410  -11.5650 C.2   337  GLY337      0.2612
    133  O         -8.7620   26.4260  -11.1310 O.2   337  GLY337     -0.2717
    134  N         -7.0950   24.9280  -11.4730 N.am  338  GLY338     -0.1942
    135  CA        -7.7600   23.7750  -10.8750 C.3   338  GLY338      0.2014
    136  C         -8.3160   23.9740   -9.4740 C.2   338  GLY338      0.2639
    137  O         -9.3610   23.4070   -9.1370 O.2   338  GLY338     -0.2714
    138  N         -7.6290   24.7950   -8.6600 N.am  339  SER339     -0.1949
    139  CA        -8.0320   25.0640   -7.2820 C.3   339  SER339      0.1924
    140  C         -9.2850   25.9540   -7.1610 C.2   339  SER339      0.2314
    141  O         -9.8350   26.0630   -6.0650 O.2   339  SER339     -0.2863
    142  CB        -6.8650   25.6200   -6.4710 C.3   339  SER339      0.2116
    143  OG        -5.7760   24.7140   -6.4250 O.3   339  SER339     -0.2180
    144  N        -12.0240   25.1260   -8.2840 N.3   341  ARG341     -0.1231
    145  CA       -13.0960   24.1370   -8.2010 C.3   341  ARG341      0.1694
    146  C        -13.5320   23.9690   -6.7310 C.2   341  ARG341      0.2591
    147  O        -14.5650   23.3480   -6.4760 O.2   341  ARG341     -0.2718
    148  CB       -12.6240   22.7840   -8.7320 C.3   341  ARG341      0.0321
    149  CG       -12.5790   22.6750  -10.2320 C.3   341  ARG341      0.0489
    150  CD       -12.4430   21.2230  -10.6280 C.3   341  ARG341      0.2205
    151  NE       -12.4240   21.0650  -12.0810 N.pl3 341  ARG341     -0.0865
    152  CZ       -11.3190   21.0690  -12.8180 C.cat 341  ARG341      0.5346
    153  NH1      -10.1290   21.2100  -12.2440 N.pl3 341  ARG341      0.1354
    154  NH2      -11.3940   20.9320  -14.1360 N.pl3 341  ARG341      0.1354
    155  N        -12.7260   24.4860   -5.7720 N.am  342  ILE342     -0.1980
    156  CA       -13.0100   24.4190   -4.3320 C.3   342  ILE342      0.1595
    157  C        -14.2240   25.3220   -4.0160 C.2   342  ILE342      0.2287
    158  O        -14.1400   26.5440   -4.2040 O.2   342  ILE342     -0.2864
    159  CB       -11.7670   24.7750   -3.4550 C.3   342  ILE342      0.0276
    160  CG1      -10.6010   23.7810   -3.6920 C.3   342  ILE342      0.0022
    161  CG2      -12.1390   24.8550   -1.9590 C.3   342  ILE342      0.0022
    162  CD1       -9.2410   24.2650   -3.1970 C.3   342  ILE342      0.0001
    163  N         -8.8670   24.6400  -15.2590 N.3   365  ASP365     -0.1239
    164  CA        -7.5020   24.2140  -15.5650 C.3   365  ASP365      0.1674
    165  C         -7.3030   23.9810  -17.0790 C.2   365  ASP365      0.2266
    166  O         -6.2080   23.6120  -17.5070 O.2   365  ASP365     -0.2867
    167  CB        -7.1020   22.9760  -14.7350 C.3   365  ASP365      0.1410
    168  CG        -8.0610   21.7880  -14.7610 C.2   365  ASP365      0.3668
    169  OD1       -9.1490   21.9070  -15.3650 O.co2 365  ASP365     -0.2456
    170  OD2       -7.7470   20.7620  -14.1250 O.co2 365  ASP365     -0.2456
@<TRIPOS>BOND
     1     1     2    1
     2     2     3    1
     3     2     5    1
     4     3     4    2
     5     5     6    1
     6     6     7   ar
     7     6     8   ar
     8    39    40    1
     9    40    41    1
    10    40    43    1
    11    41    42    2
    12   166   165    2
    13     9    10    1
    14   165   164    1
    15    45    43    1
    16    43    44    1
    17    30    29    2
    18    29    28    1
    19    54    53    1
    20    10    11    1
    21    53    52    1
    22    12    11    2
    23   164   163    1
    24   164   167    1
    25   169   168   ar
    26    52    51    1
    27    11    13   am
    28    51    50    1
    29    28    31    1
    30    28    27    1
    31   168   167    1
    32   168   170   ar
    33    47    50    1
    34    47    46    1
    35    47    48    1
    36    31    32    1
    37   154   152    1
    38    62    60   ar
    39    13    14    1
    40    49    48    2
    41    27    22   am
    42    33    32   ar
    43    33    35   ar
    44    32    34   ar
    45   130   131    1
    46    23    22    2
    47    60    61   ar
    48    60    59    1
    49    22    21    1
    50    14    15    1
    51    14    17    1
    52   152   153    1
    53   152   151    2
    54    35    37   ar
    55    15    16    2
    56    15    20   am
    57    59    56    1
    58    20    21    1
    59   131   132    1
    60    18    17    1
    61   151   150    1
    62    34    36   ar
    63    21    24    1
    64    17    19    1
    65   132   134   am
    66   132   133    2
    67   134   135    1
    68    37    36   ar
    69    37    38    1
    70   123   121    1
    71    56    55    1
    72    56    57    1
    73   135   136    1
    74    25    24    1
    75   150   149    1
    76    24    26    1
    77   149   148    1
    78    80    79    1
    79    57    58    2
    80   121   122    1
    81   121   120    2
    82    64    63    1
    83    64    65    1
    84   136   137    2
    85   136   138   am
    86   120   119    1
    87    67    65   am
    88    67    68    1
    89    81    79    1
    90    79    76    1
    91   148   145    1
    92   138   139    1
    93    65    66    2
    94   144   145    1
    95    68    69    1
    96   145   146    1
    97    78    77    2
    98    71    69   am
    99    71    72    1
   100   119   118    1
   101    75    76    1
   102    75    73   am
   103    76    77    1
   104    69    70    2
   105   139   140    1
   106   139   142    1
   107   140   141    2
   108   103   101   ar
   109    72    73    1
   110   118   117    1
   111    73    74    2
   112   146   147    2
   113   146   155   am
   114   142   143    1
   115   117   114    1
   116    94    92   ar
   117   101   100    1
   118   101   102   ar
   119   155   156    1
   120   100    99    1
   121    92    91    1
   122    92    93   ar
   123    91    90    1
   124   116   115    2
   125   128   129    1
   126   128   125    1
   127   114   115    1
   128   114   113    1
   129   127   126    2
   130    82    83    1
   131   126   125    1
   132    83    84    1
   133   112   111    1
   134   156   157    1
   135   156   159    1
   136    99    96    1
   137   158   157    2
   138   125   124    1
   139    98    97    2
   140   111   110    1
   141    90    87    1
   142    86    84   am
   143    86    87    1
   144   113   106   am
   145    97    96    1
   146    84    85    2
   147   160   159    1
   148   160   162    1
   149   159   161    1
   150    87    88    1
   151    96    95    1
   152   106   107    2
   153   106   105    1
   154   110   109    1
   155   109   108    1
   156    88    89    2
   157   108   105    1
   158   105   104    1
