@<TRIPOS>MOLECULE
tmp/3kvjA03.pdb
 208 198 0 0 0
SMALL
GASTEIGER

@<TRIPOS>ATOM
      1  N         -5.3210   24.0480   -7.5490 N.3     6  TYR6       -0.1241
      2  CA        -5.1520   25.4390   -7.1500 C.3     6  TYR6        0.1605
      3  C         -3.8680   26.0230   -7.7250 C.2     6  TYR6        0.2264
      4  O         -3.8680   27.1220   -8.2810 O.2     6  TYR6       -0.2867
      5  CB        -5.1220   25.5490   -5.6250 C.3     6  TYR6        0.0534
      6  CG        -6.4900   25.5970   -4.9850 C.ar    6  TYR6       -0.0201
      7  CD1       -7.2960   24.4670   -4.9330 C.ar    6  TYR6       -0.0009
      8  CD2       -6.9720   26.7720   -4.4250 C.ar    6  TYR6       -0.0009
      9  CE1       -8.5440   24.5080   -4.3400 C.ar    6  TYR6        0.0417
     10  CE2       -8.2160   26.8230   -3.8300 C.ar    6  TYR6        0.0417
     11  CZ        -8.9980   25.6890   -3.7900 C.ar    6  TYR6        0.1957
     12  OH       -10.2390   25.7390   -3.1980 O.3     6  TYR6       -0.2866
     13  N         -6.4310   27.1090  -10.7910 N.3     9  LEU9       -0.1231
     14  CA        -7.3430   28.0400  -10.1340 C.3     9  LEU9        0.1693
     15  C         -6.6630   29.3640   -9.8310 C.2     9  LEU9        0.2591
     16  O         -7.1550   30.4170  -10.2250 O.2     9  LEU9       -0.2718
     17  CB        -7.8840   27.4440   -8.8290 C.3     9  LEU9        0.0284
     18  CG        -9.2180   28.0110   -8.3260 C.3     9  LEU9        0.0019
     19  CD1       -9.7650   27.1580   -7.1970 C.3     9  LEU9        0.0001
     20  CD2       -9.0190   29.4250   -7.8460 C.3     9  LEU9        0.0001
     21  N         -5.5360   29.3120   -9.1270 N.am   10  MET10      -0.1979
     22  CA        -4.8420   30.5310   -8.7190 C.3    10  MET10       0.1605
     23  C         -4.3160   31.3320   -9.9090 C.2    10  MET10       0.2287
     24  O         -4.4890   32.5510   -9.9720 O.2    10  MET10      -0.2864
     25  CB        -3.6880   30.1920   -7.7670 C.3    10  MET10       0.0413
     26  CG        -4.1380   29.5760   -6.4540 C.3    10  MET10       0.0598
     27  SD        -5.3880   30.5850   -5.6330 S.3    10  MET10      -0.1393
     28  CE        -4.5100   32.1380   -5.4940 C.3    10  MET10       0.0692
     29  N         -7.3480   33.2210  -11.4110 N.3    13  LEU13      -0.1231
     30  CA        -7.8670   34.3270  -10.6150 C.3    13  LEU13       0.1693
     31  C         -6.9280   35.5270  -10.6570 C.2    13  LEU13       0.2591
     32  O         -7.3730   36.6720  -10.7360 O.2    13  LEU13      -0.2718
     33  CB        -8.0750   33.8860   -9.1640 C.3    13  LEU13       0.0284
     34  CG        -8.2140   35.0060   -8.1270 C.3    13  LEU13       0.0019
     35  CD1       -9.1020   34.5420   -6.9850 C.3    13  LEU13       0.0001
     36  CD2       -6.8380   35.4070   -7.6110 C.3    13  LEU13       0.0001
     37  N         -5.6270   35.2580  -10.6010 N.am   14  GLN14      -0.1979
     38  CA        -4.6260   36.3170  -10.6440 C.3    14  GLN14       0.1601
     39  C         -4.6710   37.0500  -11.9800 C.2    14  GLN14       0.2287
     40  O         -4.3020   38.2210  -12.0710 O.2    14  GLN14      -0.2864
     41  CB        -3.2290   35.7320  -10.4210 C.3    14  GLN14       0.0394
     42  CG        -3.0300   35.1140   -9.0460 C.3    14  GLN14       0.0908
     43  CD        -1.5780   34.7750   -8.7630 C.2    14  GLN14       0.2608
     44  OE1       -0.9570   33.9940   -9.4860 O.2    14  GLN14      -0.2717
     45  NE2       -1.0290   35.3640   -7.7060 N.am   14  GLN14      -0.0878
     46  N         -4.0060   42.3770   -7.3150 N.3    19  PRO19      -0.2116
     47  CA        -3.7600   41.6890   -6.0450 C.3    19  PRO19       0.1372
     48  C         -4.5560   42.2080   -4.8420 C.2    19  PRO19       0.2244
     49  O         -4.9670   41.4200   -3.9970 O.2    19  PRO19      -0.2868
     50  CB        -2.2450   41.8040   -5.8530 C.3    19  PRO19       0.0268
     51  CG        -1.8230   42.9370   -6.7210 C.3    19  PRO19       0.0207
     52  CD        -2.7840   42.9850   -7.8710 C.3    19  PRO19       0.0892
     53  N         -8.0730   40.7940   -5.1760 N.3    22  ALA22      -0.1231
     54  CA        -8.0150   39.3740   -4.8730 C.3    22  ALA22       0.1694
     55  C         -7.9130   39.1760   -3.3640 C.2    22  ALA22       0.2592
     56  O         -8.5390   38.2780   -2.8030 O.2    22  ALA22      -0.2718
     57  CB        -6.8140   38.7380   -5.5730 C.3    22  ALA22       0.0304
     58  N         -7.1260   40.0230   -2.7110 N.am   23  HIS23      -0.1976
     59  CA        -6.9530   39.9470   -1.2640 C.3    23  HIS23       0.1656
     60  C         -8.2850   40.1830   -0.5470 C.2    23  HIS23       0.2291
     61  O         -8.6880   39.3980    0.3180 O.2    23  HIS23      -0.2864
     62  CB        -5.9220   40.9880   -0.8140 C.3    23  HIS23       0.0771
     63  CG        -5.6430   40.9710    0.6570 C.ar   23  HIS23       0.0820
     64  ND1       -4.8840   41.9400    1.2780 N.ar   23  HIS23      -0.2267
     65  CD2       -6.0230   40.1100    1.6300 C.ar   23  HIS23       0.1154
     66  CE1       -4.8110   41.6770    2.5720 C.ar   23  HIS23       0.1986
     67  NE2       -5.4950   40.5730    2.8110 N.ar   23  HIS23      -0.2212
     68  N        -10.5420   37.2810   -1.0070 N.3    26  ALA26      -0.1245
     69  CA       -10.0950   36.1390   -0.2190 C.3    26  ALA26       0.1562
     70  C        -10.4780   36.3000    1.2490 C.2    26  ALA26       0.2260
     71  O        -10.8600   35.3340    1.9070 O.2    26  ALA26      -0.2867
     72  CB        -8.5860   35.9750   -0.3460 C.3    26  ALA26       0.0290
     73  N        -14.3110   35.5180    1.3770 N.3    29  PHE29      -0.1227
     74  CA       -14.5870   34.0890    1.2630 C.3    29  PHE29       0.1736
     75  C        -14.1700   33.3400    2.5190 C.2    29  PHE29       0.2596
     76  O        -14.8650   32.4280    2.9700 O.2    29  PHE29      -0.2718
     77  CB       -13.8450   33.4940    0.0650 C.3    29  PHE29       0.0547
     78  CG       -14.6490   33.4800   -1.2010 C.ar   29  PHE29      -0.0202
     79  CD1      -15.2280   34.6420   -1.6850 C.ar   29  PHE29      -0.0042
     80  CD2      -14.8170   32.3040   -1.9140 C.ar   29  PHE29      -0.0042
     81  CE1      -15.9610   34.6330   -2.8610 C.ar   29  PHE29      -0.0003
     82  CE2      -15.5490   32.2870   -3.0920 C.ar   29  PHE29      -0.0003
     83  CZ       -16.1210   33.4540   -3.5650 C.ar   29  PHE29      -0.0000
     84  N        -13.0250   33.7210    3.0740 N.am   30  THR30      -0.1953
     85  CA       -12.4970   33.0500    4.2530 C.3    30  THR30       0.1897
     86  C        -13.3930   33.3150    5.4540 C.2    30  THR30       0.2313
     87  O        -13.7170   32.4010    6.2110 O.2    30  THR30      -0.2863
     88  CB       -11.0710   33.5370    4.5790 C.3    30  THR30       0.1794
     89  OG1      -10.2200   33.3070    3.4510 O.3    30  THR30      -0.2208
     90  CG2      -10.5130   32.7880    5.7840 C.3    30  THR30       0.0378
     91  N        -16.3390   29.8040    3.1950 N.3    34  LEU34      -0.1231
     92  CA       -16.4080   29.1700    1.8740 C.3    34  LEU34       0.1693
     93  C        -15.0410   28.6880    1.4680 C.2    34  LEU34       0.2591
     94  O        -14.2090   29.4590    0.9860 O.2    34  LEU34      -0.2718
     95  CB       -16.8660   30.1490    0.8100 C.3    34  LEU34       0.0284
     96  CG       -17.8820   31.1880    1.2100 C.3    34  LEU34       0.0019
     97  CD1      -18.3440   31.9070   -0.0320 C.3    34  LEU34       0.0001
     98  CD2      -19.0430   30.5040    1.8760 C.3    34  LEU34       0.0001
     99  N        -14.8290   27.3990    1.6330 N.am   35  LEU35      -0.1980
    100  CA       -13.4940   26.8770    1.7500 C.3    35  LEU35       0.1596
    101  C        -13.6400   25.5150    2.3680 C.2    35  LEU35       0.2287
    102  O        -14.2360   25.3580    3.4400 O.2    35  LEU35      -0.2864
    103  CB       -12.6550   27.7760    2.6540 C.3    35  LEU35       0.0297
    104  CG       -11.4140   28.3770    1.9920 C.3    35  LEU35       0.0022
    105  CD1      -11.0360   29.6580    2.7030 C.3    35  LEU35       0.0001
    106  CD2      -10.2710   27.3800    2.0360 C.3    35  LEU35       0.0001
    107  N         -2.6000   39.6070    6.2950 N.3    65  PHE65      -0.1241
    108  CA        -3.6990   39.0260    5.5380 C.3    65  PHE65       0.1605
    109  C         -5.0350   39.4270    6.1560 C.2    65  PHE65       0.2264
    110  O         -5.9160   39.9390    5.4710 O.2    65  PHE65      -0.2867
    111  CB        -3.6050   37.5010    5.4870 C.3    65  PHE65       0.0534
    112  CG        -4.7960   36.8650    4.8400 C.ar   65  PHE65      -0.0203
    113  CD1       -4.9850   36.9450    3.4700 C.ar   65  PHE65      -0.0042
    114  CD2       -5.7640   36.2590    5.6090 C.ar   65  PHE65      -0.0042
    115  CE1       -6.1270   36.4330    2.8890 C.ar   65  PHE65      -0.0003
    116  CE2       -6.9020   35.7480    5.0370 C.ar   65  PHE65      -0.0003
    117  CZ        -7.0840   35.8360    3.6790 C.ar   65  PHE65      -0.0000
    118  N         -8.8940   26.7470    7.8520 N.3    78  MET78      -0.1245
    119  CA        -7.9490   26.5210    6.7620 C.3    78  MET78       0.1570
    120  C         -6.8080   25.6120    7.2200 C.2    78  MET78       0.2261
    121  O         -6.0940   25.0290    6.4000 O.2    78  MET78      -0.2867
    122  CB        -7.3880   27.8640    6.2820 C.3    78  MET78       0.0387
    123  CG        -6.8030   27.8470    4.8830 C.3    78  MET78       0.0595
    124  SD        -6.4830   29.5180    4.2640 S.3    78  MET78      -0.1393
    125  CE        -8.0670   30.2580    4.4580 C.3    78  MET78       0.0692
    126  N         -0.1230   47.2370   -4.0400 N.3   101  VAL101     -0.1245
    127  CA         0.3210   45.8480   -3.9260 C.3   101  VAL101      0.1561
    128  C          0.6070   45.3210   -5.3260 C.2   101  VAL101      0.2260
    129  O         -0.1300   45.6170   -6.2670 O.2   101  VAL101     -0.2867
    130  CB        -0.7610   44.9440   -3.2980 C.3   101  VAL101      0.0252
    131  CG1       -0.1360   43.6210   -2.8590 C.3   101  VAL101      0.0019
    132  CG2       -1.4230   45.6510   -2.1400 C.3   101  VAL101      0.0019
    133  N          2.2520   41.8990   -7.7510 N.3   103  ARG103     -0.1245
    134  CA         2.7240   40.5220   -7.8680 C.3   103  ARG103      0.1563
    135  C          3.9880   40.4390   -8.7140 C.2   103  ARG103      0.2260
    136  O          4.0900   41.0880   -9.7510 O.2   103  ARG103     -0.2867
    137  CB         1.6680   39.6340   -8.5210 C.3   103  ARG103      0.0307
    138  CG         0.3860   39.4650   -7.7510 C.3   103  ARG103      0.0489
    139  CD        -0.4980   38.4650   -8.4770 C.3   103  ARG103      0.2205
    140  NE        -1.8390   38.3980   -7.9200 N.pl3 103  ARG103     -0.0865
    141  CZ        -2.9200   38.8810   -8.5210 C.cat 103  ARG103      0.5346
    142  NH1       -2.8140   39.4740   -9.7020 N.pl3 103  ARG103      0.1354
    143  NH2       -4.1070   38.7600   -7.9470 N.pl3 103  ARG103      0.1354
    144  N          5.9000   39.1190   -3.7640 N.3   110  VAL110     -0.1245
    145  CA         4.9830   40.2470   -3.7610 C.3   110  VAL110      0.1561
    146  C          5.7160   41.4750   -3.2320 C.2   110  VAL110      0.2260
    147  O          6.5970   41.3600   -2.3840 O.2   110  VAL110     -0.2867
    148  CB         3.7430   39.9560   -2.8670 C.3   110  VAL110      0.0252
    149  CG1        2.9340   41.2340   -2.6420 C.3   110  VAL110      0.0019
    150  CG2        2.8620   38.9000   -3.5340 C.3   110  VAL110      0.0019
    151  N          4.5190   45.1080   -1.4520 N.3   112  ASN112     -0.1240
    152  CA         3.3780   45.8780   -0.9700 C.3   112  ASN112      0.1653
    153  C          3.8200   47.1490   -0.2640 C.2   112  ASN112      0.2266
    154  O          4.8660   47.1840    0.3920 O.2   112  ASN112     -0.2867
    155  CB         2.5170   45.0330   -0.0160 C.3   112  ASN112      0.1155
    156  CG         2.9850   45.1140    1.4290 C.2   112  ASN112      0.2627
    157  OD1        2.5600   45.9950    2.1820 O.2   112  ASN112     -0.2716
    158  ND2        3.8600   44.1910    1.8260 N.am  112  ASN112     -0.0877
    159  N          1.0950   49.0020    1.5380 N.3   114  TYR114     -0.1241
    160  CA        -0.2250   49.3390    2.0660 C.3   114  TYR114      0.1605
    161  C         -0.1860   50.5660    2.9650 C.2   114  TYR114      0.2264
    162  O         -1.0570   51.4380    2.8770 O.2   114  TYR114     -0.2867
    163  CB        -0.7980   48.1650    2.8570 C.3   114  TYR114      0.0534
    164  CG        -1.6520   47.2390    2.0360 C.ar  114  TYR114     -0.0201
    165  CD1       -1.2610   45.9290    1.8020 C.ar  114  TYR114     -0.0009
    166  CD2       -2.8600   47.6710    1.5020 C.ar  114  TYR114     -0.0009
    167  CE1       -2.0490   45.0710    1.0620 C.ar  114  TYR114      0.0417
    168  CE2       -3.6560   46.8220    0.7570 C.ar  114  TYR114      0.0417
    169  CZ        -3.2450   45.5230    0.5430 C.ar  114  TYR114      0.1957
    170  OH        -4.0330   44.6670   -0.1850 O.3   114  TYR114     -0.2866
    171  N          2.4440   33.9320    4.4560 N.3   323  TYR323     -0.1241
    172  CA         1.3560   34.6930    3.8540 C.3   323  TYR323      0.1605
    173  C          1.4820   34.5600    2.3390 C.2   323  TYR323      0.2264
    174  O          0.6040   33.9970    1.6860 O.2   323  TYR323     -0.2867
    175  CB         1.4350   36.1670    4.2990 C.3   323  TYR323      0.0534
    176  CG         0.3620   37.0990    3.7480 C.ar  323  TYR323     -0.0201
    177  CD1        0.3410   38.4460    4.1110 C.ar  323  TYR323     -0.0009
    178  CD2       -0.6020   36.6480    2.8490 C.ar  323  TYR323     -0.0009
    179  CE1       -0.5950   39.3150    3.5870 C.ar  323  TYR323      0.0417
    180  CE2       -1.5450   37.5160    2.3150 C.ar  323  TYR323      0.0417
    181  CZ        -1.5350   38.8440    2.6910 C.ar  323  TYR323      0.1957
    182  OH        -2.4510   39.7090    2.1500 O.3   323  TYR323     -0.2866
    183  N          0.4040   31.7460    0.0280 N.3   326  LEU326     -0.1231
    184  CA        -1.0430   31.5990   -0.1000 C.3   326  LEU326      0.1693
    185  C         -1.5330   32.2440   -1.3980 C.2   326  LEU326      0.2592
    186  O         -2.4510   31.7410   -2.0490 O.2   326  LEU326     -0.2718
    187  CB        -1.7250   32.2520    1.1110 C.3   326  LEU326      0.0284
    188  CG        -3.0820   31.7610    1.6120 C.3   326  LEU326      0.0019
    189  CD1       -3.0700   30.2500    1.7750 C.3   326  LEU326      0.0001
    190  CD2       -3.3870   32.4480    2.9440 C.3   326  LEU326      0.0001
    191  N         -0.9030   33.3490   -1.7870 N.am  327  THR327     -0.1953
    192  CA        -1.3470   34.0970   -2.9550 C.3   327  THR327      0.1897
    193  C         -1.0080   33.3710   -4.2520 C.2   327  THR327      0.2313
    194  O         -1.6280   33.6130   -5.2860 O.2   327  THR327     -0.2863
    195  CB        -0.7200   35.5120   -2.9880 C.3   327  THR327      0.1794
    196  OG1        0.6750   35.4170   -3.2950 O.3   327  THR327     -0.2208
    197  CG2       -0.8770   36.1870   -1.6360 C.3   327  THR327      0.0378
    198  N         -2.5610   29.0800   -2.9590 N.3   330  GLY330     -0.1210
    199  CA        -3.8970   29.0070   -2.3990 C.3   330  GLY330      0.1940
    200  C         -3.9620   28.1910   -1.1250 C.2   330  GLY330      0.2453
    201  O         -2.9450   27.6840   -0.6510 O.2   330  GLY330     -0.2732
    202  N         -5.1640   28.0280   -0.5560 N.am  331  PRO331     -0.2728
    203  CA        -5.3880   27.3410    0.7220 C.3   331  PRO331      0.1401
    204  C         -4.7410   25.9600    0.8730 C.2   331  PRO331      0.2269
    205  O         -4.3270   25.5890    1.9700 O.2   331  PRO331     -0.2865
    206  CB        -6.9120   27.2750    0.8300 C.3   331  PRO331      0.0296
    207  CG        -7.3850   28.4370    0.0180 C.3   331  PRO331      0.0237
    208  CD        -6.4220   28.5330   -1.1330 C.3   331  PRO331      0.0939
@<TRIPOS>BOND
     1    40    39    2
     2    39    38    1
     3    29    30    1
     4    13    14    1
     5    32    31    2
     6    31    30    1
     7    31    37   am
     8    38    37    1
     9    38    41    1
    10    30    33    1
    11    41    42    1
    12    16    15    2
    13    14    15    1
    14    14    17    1
    15    24    23    2
    16    23    22    1
    17    15    21   am
    18   136   135    2
    19   142   141    1
    20    44    43    2
    21    33    34    1
    22    21    22    1
    23    42    43    1
    24    17    18    1
    25    43    45   am
    26    22    25    1
    27   135   134    1
    28   137   134    1
    29   137   138    1
    30   141   143    1
    31   141   140    2
    32   139   140    1
    33   139   138    1
    34    18    20    1
    35    18    19    1
    36     4     3    2
    37    34    36    1
    38    34    35    1
    39    52    46    1
    40    52    51    1
    41   134   133    1
    42    25    26    1
    43     3     2    1
    44     1     2    1
    45    46    47    1
    46     2     5    1
    47    51    50    1
    48    26    27    1
    49   129   128    2
    50    47    50    1
    51    47    48    1
    52    27    28    1
    53     5     6    1
    54    57    54    1
    55   128   127    1
    56   194   193    2
    57    53    54    1
    58     6     7   ar
    59     6     8   ar
    60     7     9   ar
    61    54    55    1
    62    48    49    2
    63     8    10   ar
    64     9    11   ar
    65   193   192    1
    66   126   127    1
    67   127   130    1
    68    10    11   ar
    69    11    12    1
    70   144   145    1
    71   145   146    1
    72   145   148    1
    73    83    82   ar
    74    83    81   ar
    75   150   148    1
    76    55    56    2
    77    55    58   am
    78   130   131    1
    79   130   132    1
    80   196   195    1
    81   146   147    2
    82    82    80   ar
    83   195   192    1
    84   195   197    1
    85   198   199    1
    86   192   191    1
    87   148   149    1
    88    81    79   ar
    89    58    59    1
    90   199   200    1
    91   186   185    2
    92    80    78   ar
    93   191   185   am
    94    79    78   ar
    95   151   152    1
    96   185   184    1
    97    59    62    1
    98    59    60    1
    99    78    77    1
   100   208   202    1
   101   208   207    1
   102   200   201    2
   103   200   202   am
   104    68    69    1
   105   152   153    1
   106   152   155    1
   107    62    63    1
   108   202   203    1
   109    60    61    2
   110    72    69    1
   111   153   154    2
   112    69    70    1
   113   170   169    1
   114   184   183    1
   115   184   187    1
   116    97    96    1
   117   155   156    1
   118   207   206    1
   119    77    74    1
   120   169   168   ar
   121   169   167   ar
   122    63    64   ar
   123    63    65   ar
   124   203   206    1
   125   203   204    1
   126   168   166   ar
   127    95    96    1
   128    95    92    1
   129   204   205    2
   130    94    93    2
   131   167   165   ar
   132   187   188    1
   133    96    98    1
   134    70    71    2
   135    74    73    1
   136    74    75    1
   137    64    66   ar
   138   156   158   am
   139   156   157    2
   140    93    99   am
   141    93    92    1
   142   166   164   ar
   143   159   160    1
   144   188   189    1
   145   188   190    1
   146    65    67   ar
   147    99   100    1
   148   174   173    2
   149   100   101    1
   150   100   103    1
   151   165   164   ar
   152    92    91    1
   153   104   106    1
   154   104   103    1
   155   104   105    1
   156   164   163    1
   157   160   163    1
   158   160   161    1
   159   182   181    1
   160   180   181   ar
   161   180   178   ar
   162   173   172    1
   163   101   102    2
   164    75    76    2
   165    75    84   am
   166    66    67   ar
   167   181   179   ar
   168   178   176   ar
   169   162   161    2
   170   115   113   ar
   171   115   117   ar
   172    84    85    1
   173    89    88    1
   174   113   112   ar
   175   179   177   ar
   176   117   116   ar
   177   176   177   ar
   178   176   175    1
   179   172   175    1
   180   172   171    1
   181    85    88    1
   182    85    86    1
   183   124   125    1
   184   124   123    1
   185    88    90    1
   186   112   111    1
   187   112   114   ar
   188   123   122    1
   189   116   114   ar
   190    86    87    2
   191   110   109    2
   192   111   108    1
   193   108   109    1
   194   108   107    1
   195   122   119    1
   196   121   120    2
   197   119   120    1
   198   119   118    1
