@<TRIPOS>MOLECULE
tmp/3kvkA03.pdb
 181 171 0 0 0
SMALL
GASTEIGER

@<TRIPOS>ATOM
      1  N         -5.7100   23.8740   -7.4290 N.3     6  TYR6       -0.1241
      2  CA        -5.5170   25.2610   -7.0420 C.3     6  TYR6        0.1605
      3  C         -4.2420   25.8110   -7.6690 C.2     6  TYR6        0.2264
      4  O         -4.2250   26.9190   -8.1990 O.2     6  TYR6       -0.2867
      5  CB        -5.4410   25.3790   -5.5190 C.3     6  TYR6        0.0534
      6  CG        -6.7780   25.6010   -4.8520 C.ar    6  TYR6       -0.0201
      7  CD1       -7.6250   24.5360   -4.5670 C.ar    6  TYR6       -0.0009
      8  CD2       -7.1890   26.8780   -4.4910 C.ar    6  TYR6       -0.0009
      9  CE1       -8.8400   24.7400   -3.9380 C.ar    6  TYR6        0.0417
     10  CE2       -8.3990   27.0910   -3.8640 C.ar    6  TYR6        0.0417
     11  CZ        -9.2200   26.0210   -3.5890 C.ar    6  TYR6        0.1957
     12  OH       -10.4240   26.2370   -2.9590 O.3     6  TYR6       -0.2866
     13  N         -6.9340   27.0600  -10.6420 N.3    10  LEU10      -0.1231
     14  CA        -7.7740   28.0480   -9.9800 C.3    10  LEU10       0.1693
     15  C         -7.0150   29.3550   -9.7550 C.2    10  LEU10       0.2591
     16  O         -7.4530   30.4250  -10.1860 O.2    10  LEU10      -0.2718
     17  CB        -8.2670   27.5010   -8.6390 C.3    10  LEU10       0.0284
     18  CG        -9.6280   27.9870   -8.1380 C.3    10  LEU10       0.0019
     19  CD1       -9.9710   27.2640   -6.8550 C.3    10  LEU10       0.0001
     20  CD2       -9.6040   29.4740   -7.8920 C.3    10  LEU10       0.0001
     21  N         -5.8730   29.2560   -9.0810 N.am   11  MET11      -0.1979
     22  CA        -5.1100   30.4400   -8.6960 C.3    11  MET11       0.1605
     23  C         -4.6150   31.2410   -9.8970 C.2    11  MET11       0.2287
     24  O         -4.7720   32.4620   -9.9420 O.2    11  MET11      -0.2864
     25  CB        -3.9220   30.0440   -7.8130 C.3    11  MET11       0.0413
     26  CG        -4.3250   29.4110   -6.4950 C.3    11  MET11       0.0598
     27  SD        -5.4920   30.4270   -5.5710 S.3    11  MET11      -0.1393
     28  CE        -4.4770   31.8780   -5.2270 C.3    11  MET11       0.0692
     29  N         -7.5090   33.1000  -11.2390 N.3    14  LEU14      -0.1231
     30  CA        -7.9140   34.1800  -10.3480 C.3    14  LEU14       0.1693
     31  C         -6.9910   35.3830  -10.4980 C.2    14  LEU14       0.2591
     32  O         -7.4480   36.5240  -10.5320 O.2    14  LEU14      -0.2718
     33  CB        -7.8880   33.7060   -8.8940 C.3    14  LEU14       0.0284
     34  CG        -8.3220   34.7600   -7.8710 C.3    14  LEU14       0.0019
     35  CD1       -9.7670   35.1570   -8.1430 C.3    14  LEU14       0.0001
     36  CD2       -8.1760   34.2100   -6.4590 C.3    14  LEU14       0.0001
     37  N         -5.6920   35.1220  -10.5880 N.am   15  GLN15      -0.1979
     38  CA        -4.7080   36.1900  -10.7000 C.3    15  GLN15       0.1601
     39  C         -4.7910   36.8730  -12.0600 C.2    15  GLN15       0.2287
     40  O         -4.4220   38.0380  -12.2010 O.2    15  GLN15      -0.2864
     41  CB        -3.3000   35.6390  -10.4680 C.3    15  GLN15       0.0394
     42  CG        -3.0390   35.2330   -9.0210 C.3    15  GLN15       0.0908
     43  CD        -1.5760   34.9200   -8.7470 C.2    15  GLN15       0.2608
     44  OE1       -0.8920   34.3260   -9.5800 O.2    15  GLN15      -0.2717
     45  NE2       -1.0930   35.3200   -7.5740 N.am   15  GLN15      -0.0878
     46  N         -3.9530   42.3050   -7.4140 N.3    20  PRO20      -0.2116
     47  CA        -3.7000   41.6990   -6.1020 C.3    20  PRO20       0.1372
     48  C         -4.5180   42.2370   -4.9200 C.2    20  PRO20       0.2244
     49  O         -4.9470   41.4570   -4.0750 O.2    20  PRO20      -0.2868
     50  CB        -2.1880   41.8570   -5.9070 C.3    20  PRO20       0.0268
     51  CG        -1.7560   42.8780   -6.9050 C.3    20  PRO20       0.0207
     52  CD        -2.7270   42.8260   -8.0420 C.3    20  PRO20       0.0892
     53  N         -7.9950   40.7390   -5.1850 N.3    23  ALA23      -0.1231
     54  CA        -7.9360   39.3300   -4.8220 C.3    23  ALA23       0.1694
     55  C         -7.8740   39.1830   -3.3060 C.2    23  ALA23       0.2592
     56  O         -8.5310   38.3200   -2.7240 O.2    23  ALA23      -0.2718
     57  CB        -6.7130   38.6790   -5.4610 C.3    23  ALA23       0.0304
     58  N         -7.0790   40.0370   -2.6740 N.am   24  HIS24      -0.1976
     59  CA        -6.9010   40.0050   -1.2270 C.3    24  HIS24       0.1656
     60  C         -8.2330   40.2620   -0.5180 C.2    24  HIS24       0.2291
     61  O         -8.6240   39.5200    0.3910 O.2    24  HIS24      -0.2864
     62  CB        -5.8770   41.0710   -0.8230 C.3    24  HIS24       0.0771
     63  CG        -5.5910   41.1180    0.6450 C.ar   24  HIS24       0.0820
     64  ND1       -4.8890   42.1520    1.2290 N.ar   24  HIS24      -0.2267
     65  CD2       -5.8960   40.2580    1.6460 C.ar   24  HIS24       0.1154
     66  CE1       -4.7740   41.9240    2.5260 C.ar   24  HIS24       0.1986
     67  NE2       -5.3770   40.7830    2.8050 N.ar   24  HIS24      -0.2212
     68  N        -10.6040   37.4150   -1.0110 N.3    27  ALA27      -0.1245
     69  CA       -10.1790   36.2540   -0.2410 C.3    27  ALA27       0.1562
     70  C        -10.5510   36.3980    1.2330 C.2    27  ALA27       0.2260
     71  O        -10.9800   35.4360    1.8710 O.2    27  ALA27      -0.2867
     72  CB        -8.6760   36.0550   -0.3850 C.3    27  ALA27       0.0290
     73  N        -13.2400   33.9290    3.0450 N.3    31  THR31      -0.1218
     74  CA       -12.7410   33.1780    4.1850 C.3    31  THR31       0.1862
     75  C        -13.6290   33.4320    5.3940 C.2    31  THR31       0.2287
     76  O        -13.9930   32.5010    6.1070 O.2    31  THR31      -0.2866
     77  CB       -11.2860   33.5760    4.5160 C.3    31  THR31       0.1770
     78  OG1      -10.4480   33.2910    3.3890 O.3    31  THR31      -0.2211
     79  CG2      -10.7750   32.8000    5.7240 C.3    31  THR31       0.0375
     80  N        -14.6100   28.7090    2.0340 N.3    36  LEU36      -0.1245
     81  CA       -13.3970   28.0570    1.5570 C.3    36  LEU36       0.1561
     82  C        -13.2630   26.6470    2.1170 C.2    36  LEU36       0.2260
     83  O        -14.0110   26.2530    3.0140 O.2    36  LEU36      -0.2867
     84  CB       -12.1710   28.8900    1.9340 C.3    36  LEU36       0.0270
     85  CG       -11.9530   30.1440    1.0850 C.3    36  LEU36       0.0019
     86  CD1      -10.7450   30.9060    1.5970 C.3    36  LEU36       0.0001
     87  CD2      -11.7580   29.7440   -0.3720 C.3    36  LEU36       0.0001
     88  N         -2.7350   39.7060    6.3860 N.3    66  PHE66      -0.1241
     89  CA        -3.7930   39.1220    5.5780 C.3    66  PHE66       0.1605
     90  C         -5.1640   39.4940    6.1420 C.2    66  PHE66       0.2264
     91  O         -6.0150   40.0300    5.4320 O.2    66  PHE66      -0.2867
     92  CB        -3.6650   37.5980    5.5210 C.3    66  PHE66       0.0534
     93  CG        -4.7800   36.9360    4.7620 C.ar   66  PHE66      -0.0203
     94  CD1       -4.8060   36.9700    3.3770 C.ar   66  PHE66      -0.0042
     95  CD2       -5.8270   36.3300    5.4310 C.ar   66  PHE66      -0.0042
     96  CE1       -5.8630   36.4150    2.6720 C.ar   66  PHE66      -0.0003
     97  CE2       -6.8880   35.7740    4.7370 C.ar   66  PHE66      -0.0003
     98  CZ        -6.9070   35.8190    3.3550 C.ar   66  PHE66      -0.0000
     99  N         -9.1320   26.7300    7.9490 N.3    79  MET79      -0.1245
    100  CA        -8.2070   26.4860    6.8480 C.3    79  MET79       0.1570
    101  C         -7.0400   25.5960    7.2830 C.2    79  MET79       0.2261
    102  O         -6.3420   25.0250    6.4460 O.2    79  MET79      -0.2867
    103  CB        -7.6780   27.8280    6.3300 C.3    79  MET79       0.0387
    104  CG        -7.1130   27.7960    4.9280 C.3    79  MET79       0.0595
    105  SD        -6.8370   29.4640    4.2890 S.3    79  MET79      -0.1393
    106  CE        -8.5170   30.0780    4.1700 C.3    79  MET79       0.0692
    107  N         -0.2560   47.2120   -4.0720 N.3   102  VAL102     -0.1245
    108  CA         0.1500   45.8160   -3.9620 C.3   102  VAL102      0.1561
    109  C          0.4830   45.3080   -5.3550 C.2   102  VAL102      0.2260
    110  O         -0.2420   45.5750   -6.3120 O.2   102  VAL102     -0.2867
    111  CB        -0.9760   44.9350   -3.3700 C.3   102  VAL102      0.0252
    112  CG1       -0.4230   43.5670   -3.0090 C.3   102  VAL102      0.0019
    113  CG2       -1.5790   45.6040   -2.1430 C.3   102  VAL102      0.0019
    114  N          2.2580   42.0220   -7.8310 N.3   104  ARG104     -0.1245
    115  CA         2.6170   40.6190   -8.0100 C.3   104  ARG104      0.1563
    116  C          3.9120   40.4790   -8.8010 C.2   104  ARG104      0.2260
    117  O          4.0830   41.1410   -9.8210 O.2   104  ARG104     -0.2867
    118  CB         1.5170   39.9160   -8.7890 C.3   104  ARG104      0.0307
    119  CG         0.7400   38.9150   -8.0170 C.3   104  ARG104      0.0489
    120  CD        -0.3970   38.4100   -8.8760 C.3   104  ARG104      0.2205
    121  NE        -1.6440   38.4100   -8.1330 N.pl3 104  ARG104     -0.0865
    122  CZ        -2.8070   38.8070   -8.6280 C.cat 104  ARG104      0.5346
    123  NH1       -2.8850   39.2390   -9.8800 N.pl3 104  ARG104      0.1354
    124  NH2       -3.8920   38.7690   -7.8700 N.pl3 104  ARG104      0.1354
    125  N          5.7660   39.0120   -3.7130 N.3   111  VAL111     -0.1245
    126  CA         4.8600   40.1480   -3.7390 C.3   111  VAL111      0.1561
    127  C          5.5950   41.3840   -3.2310 C.2   111  VAL111      0.2260
    128  O          6.4950   41.2790   -2.4040 O.2   111  VAL111     -0.2867
    129  CB         3.6090   39.8730   -2.8570 C.3   111  VAL111      0.0252
    130  CG1        2.7960   41.1470   -2.6710 C.3   111  VAL111      0.0019
    131  CG2        2.7450   38.8020   -3.5180 C.3   111  VAL111      0.0019
    132  N          1.0410   48.9410    1.4840 N.3   115  TYR115     -0.1241
    133  CA        -0.2850   49.2580    2.0080 C.3   115  TYR115      0.1605
    134  C         -0.2720   50.4990    2.8940 C.2   115  TYR115      0.2264
    135  O         -1.1360   51.3640    2.7710 O.2   115  TYR115     -0.2867
    136  CB        -0.8330   48.0810    2.8100 C.3   115  TYR115      0.0534
    137  CG        -1.7900   47.1950    2.0470 C.ar  115  TYR115     -0.0201
    138  CD1       -1.5470   45.8330    1.9130 C.ar  115  TYR115     -0.0009
    139  CD2       -2.9620   47.7080    1.5050 C.ar  115  TYR115     -0.0009
    140  CE1       -2.4470   45.0050    1.2700 C.ar  115  TYR115      0.0417
    141  CE2       -3.8740   46.8810    0.8530 C.ar  115  TYR115      0.0417
    142  CZ        -3.6080   45.5340    0.7440 C.ar  115  TYR115      0.1957
    143  OH        -4.5060   44.7050    0.1160 O.3   115  TYR115     -0.2866
    144  N          2.4140   33.7420    4.3630 N.3   324  TYR324     -0.1241
    145  CA         1.3930   34.6170    3.8170 C.3   324  TYR324      0.1605
    146  C          1.4590   34.5080    2.2910 C.2   324  TYR324      0.2264
    147  O          0.5370   34.0000    1.6610 O.2   324  TYR324     -0.2867
    148  CB         1.6460   36.0560    4.2880 C.3   324  TYR324      0.0534
    149  CG         0.6000   37.0920    3.9030 C.ar  324  TYR324     -0.0201
    150  CD1        0.5800   38.3400    4.5140 C.ar  324  TYR324     -0.0009
    151  CD2       -0.3240   36.8460    2.8860 C.ar  324  TYR324     -0.0009
    152  CE1       -0.3220   39.3160    4.1320 C.ar  324  TYR324      0.0417
    153  CE2       -1.2310   37.8220    2.4950 C.ar  324  TYR324      0.0417
    154  CZ        -1.2210   39.0520    3.1160 C.ar  324  TYR324      0.1957
    155  OH        -2.1020   40.0260    2.7160 O.3   324  TYR324     -0.2866
    156  N          0.3100   31.5180    0.2320 N.3   327  LEU327     -0.1231
    157  CA        -1.1410   31.4130    0.1430 C.3   327  LEU327      0.1693
    158  C         -1.6850   32.1190   -1.1000 C.2   327  LEU327      0.2592
    159  O         -2.6580   31.6680   -1.7030 O.2   327  LEU327     -0.2718
    160  CB        -1.7750   32.0230    1.3930 C.3   327  LEU327      0.0284
    161  CG        -3.2730   31.8260    1.6130 C.3   327  LEU327      0.0019
    162  CD1       -3.5720   30.3490    1.8070 C.3   327  LEU327      0.0001
    163  CD2       -3.7010   32.6210    2.8400 C.3   327  LEU327      0.0001
    164  N         -1.0570   33.2250   -1.4890 N.am  328  THR328     -0.1953
    165  CA        -1.5620   34.0060   -2.6110 C.3   328  THR328      0.1897
    166  C         -1.2510   33.3410   -3.9490 C.2   328  THR328      0.2313
    167  O         -1.9050   33.6170   -4.9550 O.2   328  THR328     -0.2863
    168  CB        -0.9780   35.4390   -2.6150 C.3   328  THR328      0.1794
    169  OG1        0.4040   35.3990   -2.9880 O.3   328  THR328     -0.2208
    170  CG2       -1.0970   36.0530   -1.2270 C.3   328  THR328      0.0378
    171  N         -2.9080   29.0520   -2.9140 N.3   331  GLY331     -0.1210
    172  CA        -4.2220   28.9320   -2.3140 C.3   331  GLY331      0.1940
    173  C         -4.2260   28.0890   -1.0500 C.2   331  GLY331      0.2453
    174  O         -3.1880   27.5800   -0.6280 O.2   331  GLY331     -0.2732
    175  N         -5.4020   27.9100   -0.4310 N.am  332  PRO332     -0.2728
    176  CA        -5.5790   27.2280    0.8550 C.3   332  PRO332      0.1401
    177  C         -4.8890   25.8680    1.0000 C.2   332  PRO332      0.2269
    178  O         -4.4210   25.5210    2.0850 O.2   332  PRO332     -0.2865
    179  CB        -7.0980   27.1180    0.9920 C.3   332  PRO332      0.0296
    180  CG        -7.6110   28.2840    0.2100 C.3   332  PRO332      0.0237
    181  CD        -6.6850   28.3950   -0.9710 C.3   332  PRO332      0.0939
@<TRIPOS>BOND
     1    40    39    2
     2    39    38    1
     3    29    30    1
     4    38    37    1
     5    38    41    1
     6    13    14    1
     7    37    31   am
     8    32    31    2
     9    31    30    1
    10    41    42    1
    11    30    33    1
    12    16    15    2
    13    14    15    1
    14    14    17    1
    15    24    23    2
    16    23    22    1
    17   123   122    1
    18   117   116    2
    19    15    21   am
    20    44    43    2
    21    21    22    1
    22    42    43    1
    23    33    34    1
    24   120   121    1
    25   120   119    1
    26   116   115    1
    27   118   119    1
    28   118   115    1
    29    43    45   am
    30    22    25    1
    31    17    18    1
    32   122   121    2
    33   122   124    1
    34     4     3    2
    35    35    34    1
    36    18    20    1
    37    18    19    1
    38    52    46    1
    39    52    51    1
    40   115   114    1
    41    34    36    1
    42    25    26    1
    43     3     2    1
    44     1     2    1
    45    46    47    1
    46     2     5    1
    47    51    50    1
    48    26    27    1
    49   110   109    2
    50    47    50    1
    51    47    48    1
    52    27    28    1
    53     5     6    1
    54    57    54    1
    55   109   108    1
    56    53    54    1
    57   167   166    2
    58    48    49    2
    59     6     7   ar
    60     6     8   ar
    61    54    55    1
    62     7     9   ar
    63     8    10   ar
    64   107   108    1
    65   108   111    1
    66   166   165    1
    67     9    11   ar
    68    10    11   ar
    69   126   125    1
    70   126   127    1
    71   126   129    1
    72    11    12    1
    73   131   129    1
    74   111   112    1
    75   111   113    1
    76    55    56    2
    77    55    58   am
    78   127   128    2
    79   169   168    1
    80   171   172    1
    81   129   130    1
    82    58    59    1
    83   168   165    1
    84   168   170    1
    85   165   164    1
    86   172   173    1
    87   159   158    2
    88   164   158   am
    89    59    62    1
    90    59    60    1
    91   158   157    1
    92   173   174    2
    93   173   175   am
    94    68    69    1
    95   181   175    1
    96   181   180    1
    97    62    63    1
    98    60    61    2
    99   175   176    1
   100    72    69    1
   101    87    85    1
   102    69    70    1
   103   143   142    1
   104   157   156    1
   105   157   160    1
   106   180   179    1
   107    63    64   ar
   108    63    65   ar
   109   142   141   ar
   110   142   140   ar
   111   141   139   ar
   112   176   179    1
   113   176   177    1
   114   177   178    2
   115    85    86    1
   116    85    84    1
   117    64    66   ar
   118    70    71    2
   119   140   138   ar
   120   160   161    1
   121   132   133    1
   122   139   137   ar
   123    81    84    1
   124    81    80    1
   125    81    82    1
   126   161   162    1
   127   161   163    1
   128    65    67   ar
   129   147   146    2
   130   138   137   ar
   131   133   136    1
   132   133   134    1
   133   137   136    1
   134    82    83    2
   135   146   145    1
   136   153   151   ar
   137   153   154   ar
   138    66    67   ar
   139    96    98   ar
   140    96    94   ar
   141   155   154    1
   142   135   134    2
   143   151   149   ar
   144    73    74    1
   145   154   152   ar
   146    98    97   ar
   147    94    93   ar
   148    78    77    1
   149   145   148    1
   150   145   144    1
   151   149   148    1
   152   149   150   ar
   153   152   150   ar
   154   106   105    1
   155    74    77    1
   156    74    75    1
   157   105   104    1
   158    77    79    1
   159    97    95   ar
   160    93    95   ar
   161    93    92    1
   162   104   103    1
   163    75    76    2
   164    91    90    2
   165    92    89    1
   166    89    90    1
   167    89    88    1
   168   103   100    1
   169   102   101    2
   170   100   101    1
   171   100    99    1
