@<TRIPOS>MOLECULE
tmp/3kvlA03.pdb
 195 186 0 0 0
SMALL
GASTEIGER

@<TRIPOS>ATOM
      1  N         -5.5200   24.2540   -7.3980 N.3     2  TYR2       -0.1241
      2  CA        -5.3260   25.6480   -7.0140 C.3     2  TYR2        0.1605
      3  C         -4.0530   26.2130   -7.6320 C.2     2  TYR2        0.2264
      4  O         -4.0600   27.2960   -8.2160 O.2     2  TYR2       -0.2867
      5  CB        -5.2450   25.7750   -5.4910 C.3     2  TYR2        0.0534
      6  CG        -6.5800   25.9530   -4.8050 C.ar    2  TYR2       -0.0201
      7  CD1       -7.3490   24.8560   -4.4410 C.ar    2  TYR2       -0.0009
      8  CD2       -7.0590   27.2200   -4.4970 C.ar    2  TYR2       -0.0009
      9  CE1       -8.5560   25.0150   -3.7860 C.ar    2  TYR2        0.0417
     10  CE2       -8.2640   27.3890   -3.8430 C.ar    2  TYR2        0.0417
     11  CZ        -9.0080   26.2830   -3.4890 C.ar    2  TYR2        0.1957
     12  OH       -10.2050   26.4460   -2.8300 O.3     2  TYR2       -0.2866
     13  N         -6.8640   27.4010  -10.6120 N.3     6  LEU6       -0.1231
     14  CA        -7.7260   28.4170  -10.0110 C.3     6  LEU6        0.1693
     15  C         -6.9600   29.7060   -9.7240 C.2     6  LEU6        0.2591
     16  O         -7.3750   30.7870  -10.1420 O.2     6  LEU6       -0.2718
     17  CB        -8.3550   27.8960   -8.7140 C.3     6  LEU6        0.0284
     18  CG        -9.6540   28.5770   -8.2620 C.3     6  LEU6        0.0019
     19  CD1      -10.1650   27.8960   -7.0050 C.3     6  LEU6        0.0001
     20  CD2       -9.4270   30.0600   -8.0070 C.3     6  LEU6        0.0001
     21  N         -5.8440   29.5890   -9.0100 N.am    7  MET7       -0.1979
     22  CA        -5.0660   30.7610   -8.6260 C.3     7  MET7        0.1605
     23  C         -4.5430   31.5240   -9.8420 C.2     7  MET7        0.2287
     24  O         -4.6630   32.7460   -9.9120 O.2     7  MET7       -0.2864
     25  CB        -3.8980   30.3530   -7.7210 C.3     7  MET7        0.0413
     26  CG        -4.3280   29.7320   -6.4010 C.3     7  MET7        0.0598
     27  SD        -5.4180   30.8090   -5.4420 S.3     7  MET7       -0.1393
     28  CE        -4.3190   32.1920   -5.1090 C.3     7  MET7        0.0692
     29  N         -7.4780   33.2420  -11.3680 N.3    10  LEU10      -0.1231
     30  CA        -7.9310   34.3450  -10.5290 C.3    10  LEU10       0.1693
     31  C         -7.0070   35.5510  -10.6530 C.2    10  LEU10       0.2591
     32  O         -7.4640   36.6740  -10.8680 O.2    10  LEU10      -0.2718
     33  CB        -7.9920   33.9070   -9.0660 C.3    10  LEU10       0.0284
     34  CG        -8.1160   35.0500   -8.0570 C.3    10  LEU10       0.0019
     35  CD1       -9.3830   35.8400   -8.3280 C.3    10  LEU10       0.0001
     36  CD2       -8.1270   34.4890   -6.6510 C.3    10  LEU10       0.0001
     37  N         -5.7070   35.3110  -10.5160 N.am   11  GLN11      -0.1979
     38  CA        -4.7200   36.3840  -10.5620 C.3    11  GLN11       0.1601
     39  C         -4.7350   37.0920  -11.9130 C.2    11  GLN11       0.2287
     40  O         -4.3090   38.2410  -12.0270 O.2    11  GLN11      -0.2864
     41  CB        -3.3200   35.8280  -10.2880 C.3    11  GLN11       0.0394
     42  CG        -3.1630   35.2020   -8.9100 C.3    11  GLN11       0.0908
     43  CD        -1.7110   34.9790   -8.5290 C.2    11  GLN11       0.2608
     44  OE1       -0.8950   34.5660   -9.3540 O.2    11  GLN11      -0.2717
     45  NE2       -1.3810   35.2550   -7.2730 N.am   11  GLN11      -0.0878
     46  N         -4.0540   42.4380   -7.2480 N.3    16  PRO16      -0.2116
     47  CA        -3.7790   41.7410   -5.9870 C.3    16  PRO16       0.1372
     48  C         -4.5570   42.2450   -4.7690 C.2    16  PRO16       0.2244
     49  O         -4.9210   41.4520   -3.9020 O.2    16  PRO16      -0.2868
     50  CB        -2.2630   41.8770   -5.8140 C.3    16  PRO16       0.0268
     51  CG        -1.8720   43.0280   -6.6780 C.3    16  PRO16       0.0207
     52  CD        -2.8460   43.0580   -7.8210 C.3    16  PRO16       0.0892
     53  N         -8.0700   40.9130   -5.0620 N.3    19  ALA19      -0.1231
     54  CA        -8.0010   39.4840   -4.7950 C.3    19  ALA19       0.1694
     55  C         -7.8690   39.2350   -3.2950 C.2    19  ALA19       0.2592
     56  O         -8.4910   38.3270   -2.7510 O.2    19  ALA19      -0.2718
     57  CB        -6.8210   38.8690   -5.5390 C.3    19  ALA19       0.0304
     58  N         -7.0580   40.0520   -2.6320 N.am   20  HIS20      -0.1976
     59  CA        -6.8820   39.9490   -1.1870 C.3    20  HIS20       0.1656
     60  C         -8.2020   40.1940   -0.4550 C.2    20  HIS20       0.2291
     61  O         -8.5860   39.4270    0.4320 O.2    20  HIS20      -0.2864
     62  CB        -5.8360   40.9610   -0.7140 C.3    20  HIS20       0.0771
     63  CG        -5.5920   40.9300    0.7620 C.ar   20  HIS20       0.0820
     64  ND1       -4.9670   41.9570    1.4360 N.ar   20  HIS20      -0.2267
     65  CD2       -5.8940   39.9960    1.6950 C.ar   20  HIS20       0.1154
     66  CE1       -4.8970   41.6570    2.7210 C.ar   20  HIS20       0.1986
     67  NE2       -5.4530   40.4740    2.9040 N.ar   20  HIS20      -0.2212
     68  N        -10.4420   37.2950   -0.9120 N.3    23  ALA23      -0.1245
     69  CA        -9.9590   36.1490   -0.1540 C.3    23  ALA23       0.1562
     70  C        -10.3350   36.2720    1.3220 C.2    23  ALA23       0.2260
     71  O        -10.7070   35.2890    1.9590 O.2    23  ALA23      -0.2867
     72  CB        -8.4450   36.0280   -0.2970 C.3    23  ALA23       0.0290
     73  N        -14.1700   35.5720    1.5000 N.3    26  PHE26      -0.1227
     74  CA       -14.4490   34.1480    1.3350 C.3    26  PHE26       0.1736
     75  C        -14.0500   33.3560    2.5710 C.2    26  PHE26       0.2596
     76  O        -14.7480   32.4250    2.9780 O.2    26  PHE26      -0.2718
     77  CB       -13.6960   33.5930    0.1240 C.3    26  PHE26       0.0547
     78  CG       -14.5320   33.5010   -1.1190 C.ar   26  PHE26      -0.0202
     79  CD1      -14.9420   34.6450   -1.7830 C.ar   26  PHE26      -0.0042
     80  CD2      -14.9040   32.2660   -1.6260 C.ar   26  PHE26      -0.0042
     81  CE1      -15.7100   34.5620   -2.9330 C.ar   26  PHE26      -0.0003
     82  CE2      -15.6720   32.1740   -2.7760 C.ar   26  PHE26      -0.0003
     83  CZ       -16.0740   33.3250   -3.4300 C.ar   26  PHE26      -0.0000
     84  N        -12.9190   33.7270    3.1620 N.am   27  THR27      -0.1953
     85  CA       -12.4100   33.0260    4.3310 C.3    27  THR27       0.1897
     86  C        -13.2960   33.2910    5.5420 C.2    27  THR27       0.2313
     87  O        -13.6260   32.3720    6.2920 O.2    27  THR27      -0.2863
     88  CB       -10.9630   33.4670    4.6520 C.3    27  THR27       0.1794
     89  OG1      -10.1190   33.1840    3.5280 O.3    27  THR27      -0.2208
     90  CG2      -10.4330   32.7270    5.8800 C.3    27  THR27       0.0378
     91  N        -14.4740   28.0380    2.1810 N.3    32  LEU32      -0.1245
     92  CA       -13.4890   27.0220    1.8330 C.3    32  LEU32       0.1561
     93  C        -13.8460   25.7000    2.5080 C.2    32  LEU32       0.2260
     94  O        -14.5470   25.6800    3.5210 O.2    32  LEU32      -0.2867
     95  CB       -12.0930   27.4610    2.2910 C.3    32  LEU32       0.0270
     96  CG       -11.5610   28.8710    1.9940 C.3    32  LEU32       0.0019
     97  CD1      -12.5530   29.9340    2.4260 C.3    32  LEU32       0.0001
     98  CD2      -10.2540   29.0610    2.7420 C.3    32  LEU32       0.0001
     99  N         -2.4860   39.6030    6.3640 N.3    62  PHE62      -0.1241
    100  CA        -3.5760   38.9990    5.6130 C.3    62  PHE62       0.1605
    101  C         -4.9140   39.4020    6.2110 C.2    62  PHE62       0.2264
    102  O         -5.7990   39.8850    5.5040 O.2    62  PHE62      -0.2867
    103  CB        -3.4790   37.4760    5.5920 C.3    62  PHE62       0.0534
    104  CG        -4.6310   36.8260    4.8800 C.ar   62  PHE62      -0.0203
    105  CD1       -4.7340   36.8990    3.4990 C.ar   62  PHE62      -0.0042
    106  CD2       -5.6480   36.2110    5.5940 C.ar   62  PHE62      -0.0042
    107  CE1       -5.8370   36.3730    2.8400 C.ar   62  PHE62      -0.0003
    108  CE2       -6.7530   35.6820    4.9430 C.ar   62  PHE62      -0.0003
    109  CZ        -6.8460   35.7660    3.5640 C.ar   62  PHE62      -0.0000
    110  N         -8.7330   26.7130    7.9330 N.3    75  MET75      -0.1245
    111  CA        -7.8060   26.4920    6.8290 C.3    75  MET75       0.1570
    112  C         -6.6450   25.6050    7.2760 C.2    75  MET75       0.2261
    113  O         -5.9160   25.0500    6.4500 O.2    75  MET75      -0.2867
    114  CB        -7.2780   27.8400    6.3270 C.3    75  MET75       0.0387
    115  CG        -6.6840   27.8070    4.9320 C.3    75  MET75       0.0595
    116  SD        -6.3450   29.4600    4.2860 S.3    75  MET75      -0.1393
    117  CE        -7.8430   30.2800    4.6360 C.3    75  MET75       0.0692
    118  N         -0.0710   47.2880   -3.9300 N.3    98  VAL98      -0.1245
    119  CA         0.3190   45.8800   -3.8340 C.3    98  VAL98       0.1561
    120  C          0.6090   45.3570   -5.2440 C.2    98  VAL98       0.2260
    121  O         -0.1280   45.6480   -6.1790 O.2    98  VAL98      -0.2867
    122  CB        -0.8060   45.0120   -3.2330 C.3    98  VAL98       0.0252
    123  CG1       -0.2190   43.6980   -2.7310 C.3    98  VAL98       0.0019
    124  CG2       -1.5200   45.7660   -2.1300 C.3    98  VAL98       0.0019
    125  N          2.2460   41.9280   -7.6530 N.3   100  ARG100     -0.1245
    126  CA         2.7190   40.5540   -7.7660 C.3   100  ARG100      0.1563
    127  C          3.9680   40.4820   -8.6330 C.2   100  ARG100      0.2260
    128  O          4.0610   41.1670   -9.6480 O.2   100  ARG100     -0.2867
    129  CB         1.6540   39.6660   -8.4050 C.3   100  ARG100      0.0307
    130  CG         0.3560   39.5620   -7.6570 C.3   100  ARG100      0.0489
    131  CD        -0.4810   38.4730   -8.3090 C.3   100  ARG100      0.2205
    132  NE        -1.8550   38.4290   -7.8300 N.pl3 100  ARG100     -0.0865
    133  CZ        -2.8910   38.9450   -8.4800 C.cat 100  ARG100      0.5346
    134  NH1       -2.7110   39.5650   -9.6410 N.pl3 100  ARG100      0.1354
    135  NH2       -4.1120   38.8270   -7.9810 N.pl3 100  ARG100      0.1354
    136  N          5.9360   39.1550   -3.6820 N.3   107  VAL107     -0.1245
    137  CA         5.0240   40.2870   -3.6790 C.3   107  VAL107      0.1561
    138  C          5.7650   41.5140   -3.1640 C.2   107  VAL107      0.2260
    139  O          6.6690   41.4020   -2.3360 O.2   107  VAL107     -0.2867
    140  CB         3.7950   40.0030   -2.7740 C.3   107  VAL107      0.0252
    141  CG1        2.9940   41.2860   -2.5390 C.3   107  VAL107      0.0019
    142  CG2        2.9120   38.9410   -3.4290 C.3   107  VAL107      0.0019
    143  N          1.1610   49.0750    1.6400 N.3   111  TYR111     -0.1241
    144  CA        -0.1620   49.3970    2.1640 C.3   111  TYR111      0.1605
    145  C         -0.1320   50.6210    3.0660 C.2   111  TYR111      0.2264
    146  O         -1.0040   51.4910    2.9730 O.2   111  TYR111     -0.2867
    147  CB        -0.7300   48.2120    2.9480 C.3   111  TYR111      0.0534
    148  CG        -1.5970   47.2950    2.1260 C.ar  111  TYR111     -0.0201
    149  CD1       -1.2020   45.9930    1.8550 C.ar  111  TYR111     -0.0009
    150  CD2       -2.8170   47.7300    1.6230 C.ar  111  TYR111     -0.0009
    151  CE1       -1.9970   45.1480    1.1090 C.ar  111  TYR111      0.0417
    152  CE2       -3.6210   46.8920    0.8730 C.ar  111  TYR111      0.0417
    153  CZ        -3.2050   45.6010    0.6200 C.ar  111  TYR111      0.1957
    154  OH        -3.9980   44.7570   -0.1200 O.3   111  TYR111     -0.2866
    155  N          2.5360   33.9810    4.4860 N.3   320  TYR320     -0.1227
    156  CA         1.4650   34.7690    3.8910 C.3   320  TYR320      0.1736
    157  C          1.5660   34.6480    2.3730 C.2   320  TYR320      0.2596
    158  O          0.6640   34.1140    1.7240 O.2   320  TYR320     -0.2718
    159  CB         1.5890   36.2360    4.3460 C.3   320  TYR320      0.0548
    160  CG         0.5370   37.1990    3.8110 C.ar  320  TYR320     -0.0200
    161  CD1        0.5210   38.5260    4.2260 C.ar  320  TYR320     -0.0009
    162  CD2       -0.4050   36.7990    2.8680 C.ar  320  TYR320     -0.0009
    163  CE1       -0.3960   39.4270    3.7170 C.ar  320  TYR320      0.0417
    164  CE2       -1.3300   37.7010    2.3480 C.ar  320  TYR320      0.0417
    165  CZ        -1.3150   39.0130    2.7770 C.ar  320  TYR320      0.1957
    166  OH        -2.2030   39.9250    2.2520 O.3   320  TYR320     -0.2866
    167  N          2.6770   35.1140    1.8130 N.am  321  THR321     -0.1953
    168  CA         2.8020   35.2420    0.3630 C.3   321  THR321      0.1897
    169  C          2.5630   33.9280   -0.3930 C.2   321  THR321      0.2313
    170  O          1.9650   33.9280   -1.4740 O.2   321  THR321     -0.2863
    171  CB         4.1910   35.8240   -0.0070 C.3   321  THR321      0.1794
    172  OG1        4.2970   37.1510    0.5240 O.3   321  THR321     -0.2208
    173  CG2        4.3740   35.8790   -1.5210 C.3   321  THR321      0.0378
    174  N          0.4710   31.7580    0.1930 N.3   323  LEU323     -0.1231
    175  CA        -0.9760   31.5960    0.0910 C.3   323  LEU323      0.1693
    176  C         -1.4920   32.2820   -1.1690 C.2   323  LEU323      0.2592
    177  O         -2.4310   31.8060   -1.8140 O.2   323  LEU323     -0.2718
    178  CB        -1.6430   32.1940    1.3370 C.3   323  LEU323      0.0284
    179  CG        -3.1130   31.9080    1.6350 C.3   323  LEU323      0.0019
    180  CD1       -3.3390   30.4060    1.7570 C.3   323  LEU323      0.0001
    181  CD2       -3.5010   32.6170    2.9300 C.3   323  LEU323      0.0001
    182  N         -0.8600   33.3930   -1.5340 N.am  324  THR324     -0.1953
    183  CA        -1.3430   34.1970   -2.6440 C.3   324  THR324      0.1897
    184  C         -1.0000   33.5570   -3.9870 C.2   324  THR324      0.2313
    185  O         -1.6190   33.8670   -5.0010 O.2   324  THR324     -0.2863
    186  CB        -0.7690   35.6360   -2.5890 C.3   324  THR324      0.1794
    187  OG1        0.6120   35.6220   -2.9560 O.3   324  THR324     -0.2208
    188  CG2       -0.8990   36.2010   -1.1800 C.3   324  THR324      0.0378
    189  N         -5.0980   28.0790   -0.4700 N.3   328  PRO328     -0.2116
    190  CA        -5.3050   27.3740    0.7990 C.3   328  PRO328      0.1372
    191  C         -4.6500   25.9910    0.9380 C.2   328  PRO328      0.2244
    192  O         -4.2380   25.6110    2.0310 O.2   328  PRO328     -0.2868
    193  CB        -6.8280   27.3080    0.9220 C.3   328  PRO328      0.0268
    194  CG        -7.3010   28.5060    0.1540 C.3   328  PRO328      0.0207
    195  CD        -6.3620   28.6060   -1.0160 C.3   328  PRO328      0.0892
@<TRIPOS>BOND
     1    40    39    2
     2    39    38    1
     3    29    30    1
     4    32    31    2
     5    31    30    1
     6    31    37   am
     7    13    14    1
     8    38    37    1
     9    38    41    1
    10    30    33    1
    11    41    42    1
    12    16    15    2
    13    14    15    1
    14    14    17    1
    15    24    23    2
    16    23    22    1
    17    15    21   am
    18   128   127    2
    19   134   133    1
    20    44    43    2
    21    33    34    1
    22    21    22    1
    23    42    43    1
    24    17    18    1
    25   127   126    1
    26    22    25    1
    27    43    45   am
    28   133   135    1
    29   133   132    2
    30   129   126    1
    31   129   130    1
    32    35    34    1
    33   131   132    1
    34   131   130    1
    35    18    20    1
    36    18    19    1
    37     4     3    2
    38    34    36    1
    39    52    46    1
    40    52    51    1
    41   126   125    1
    42    25    26    1
    43     3     2    1
    44     1     2    1
    45    46    47    1
    46     2     5    1
    47    51    50    1
    48    26    27    1
    49   121   120    2
    50    47    50    1
    51    47    48    1
    52    57    54    1
    53     5     6    1
    54    27    28    1
    55   120   119    1
    56    53    54    1
    57   185   184    2
    58     6     8   ar
    59     6     7   ar
    60    54    55    1
    61    48    49    2
    62     8    10   ar
    63     7     9   ar
    64   184   183    1
    65   118   119    1
    66    10    11   ar
    67   119   122    1
    68     9    11   ar
    69   136   137    1
    70   137   138    1
    71   137   140    1
    72    11    12    1
    73    83    81   ar
    74    83    82   ar
    75   142   140    1
    76    55    56    2
    77    55    58   am
    78   122   123    1
    79   122   124    1
    80   138   139    2
    81   187   186    1
    82    81    79   ar
    83    82    80   ar
    84   140   141    1
    85   183   186    1
    86   183   182    1
    87    58    59    1
    88   186   188    1
    89   177   176    2
    90    79    78   ar
    91    80    78   ar
    92   182   176   am
    93   173   171    1
    94   170   169    2
    95    59    62    1
    96    59    60    1
    97   176   175    1
    98    78    77    1
    99   195   189    1
   100   195   194    1
   101    68    69    1
   102    62    63    1
   103   189   190    1
   104    60    61    2
   105   169   168    1
   106    72    69    1
   107    69    70    1
   108   154   153    1
   109   171   168    1
   110   171   172    1
   111   175   174    1
   112   175   178    1
   113    77    74    1
   114   194   193    1
   115   168   167    1
   116   153   152   ar
   117   153   151   ar
   118    63    64   ar
   119    63    65   ar
   120   190   193    1
   121   190   191    1
   122   152   150   ar
   123   191   192    2
   124   151   149   ar
   125    70    71    2
   126    74    73    1
   127    74    75    1
   128   178   179    1
   129    64    66   ar
   130   150   148   ar
   131   179   180    1
   132   179   181    1
   133   143   144    1
   134    65    67   ar
   135   158   157    2
   136   167   157   am
   137    92    91    1
   138    92    95    1
   139    92    93    1
   140   149   148   ar
   141    96    95    1
   142    96    97    1
   143    96    98    1
   144   148   147    1
   145   144   147    1
   146   144   145    1
   147   166   165    1
   148   164   165   ar
   149   164   162   ar
   150   157   156    1
   151    93    94    2
   152    75    76    2
   153    75    84   am
   154    66    67   ar
   155   165   163   ar
   156   107   105   ar
   157   107   109   ar
   158   162   160   ar
   159   146   145    2
   160    84    85    1
   161   105   104   ar
   162    89    88    1
   163   109   108   ar
   164   163   161   ar
   165   160   161   ar
   166   160   159    1
   167   156   159    1
   168   156   155    1
   169   116   117    1
   170   116   115    1
   171    85    88    1
   172    85    86    1
   173    88    90    1
   174   104   103    1
   175   104   106   ar
   176   115   114    1
   177   108   106   ar
   178   102   101    2
   179    86    87    2
   180   103   100    1
   181   100   101    1
   182   100    99    1
   183   114   111    1
   184   113   112    2
   185   111   112    1
   186   111   110    1
