@<TRIPOS>MOLECULE
tmp/3kvmA03.pdb
 203 195 0 0 0
SMALL
GASTEIGER

@<TRIPOS>ATOM
      1  N         23.4930   -6.8990  -27.7310 N.3     8  TYR8       -0.1241
      2  CA        24.6350   -7.6890  -27.2970 C.3     8  TYR8        0.1605
      3  C         24.5580   -9.0940  -27.8710 C.2     8  TYR8        0.2264
      4  O         25.5630   -9.6570  -28.2980 O.2     8  TYR8       -0.2867
      5  CB        24.6960   -7.7450  -25.7660 C.3     8  TYR8        0.0534
      6  CG        25.4740   -6.5990  -25.1560 C.ar    8  TYR8       -0.0201
      7  CD1       24.9400   -5.3150  -25.1150 C.ar    8  TYR8       -0.0009
      8  CD2       26.7530   -6.7950  -24.6430 C.ar    8  TYR8       -0.0009
      9  CE1       25.6570   -4.2550  -24.5850 C.ar    8  TYR8        0.0417
     10  CE2       27.4800   -5.7420  -24.1100 C.ar    8  TYR8        0.0417
     11  CZ        26.9250   -4.4730  -24.0860 C.ar    8  TYR8        0.1957
     12  OH        27.6400   -3.4170  -23.5780 O.3     8  TYR8       -0.2866
     13  N         26.9010   -7.3970  -30.8700 N.3    12  LEU12      -0.1231
     14  CA        28.1400   -7.1330  -30.1550 C.3    12  LEU12       0.1693
     15  C         28.9390   -8.4120  -29.8970 C.2    12  LEU12       0.2591
     16  O         30.0960   -8.5220  -30.3110 O.2    12  LEU12      -0.2718
     17  CB        27.8340   -6.4150  -28.8380 C.3    12  LEU12       0.0284
     18  CG        29.0030   -5.9870  -27.9490 C.3    12  LEU12       0.0019
     19  CD1       30.2300   -5.6800  -28.7850 C.3    12  LEU12       0.0001
     20  CD2       28.5840   -4.7710  -27.1450 C.3    12  LEU12       0.0001
     21  N         28.3230   -9.3830  -29.2300 N.am   13  MET13      -0.1979
     22  CA        29.0360  -10.6000  -28.8480 C.3    13  MET13       0.1605
     23  C         29.5020  -11.4240  -30.0500 C.2    13  MET13       0.2287
     24  O         30.6460  -11.8830  -30.0890 O.2    13  MET13      -0.2864
     25  CB        28.1650  -11.4630  -27.9260 C.3    13  MET13       0.0413
     26  CG        27.8330  -10.7950  -26.5980 C.3    13  MET13       0.0598
     27  SD        29.2930  -10.1520  -25.7450 S.3    13  MET13      -0.1393
     28  CE        30.1690  -11.6790  -25.3710 C.3    13  MET13       0.0692
     29  N         32.5690   -9.7990  -31.3180 N.3    16  LEU16      -0.1231
     30  CA        33.6910  -10.0710  -30.4230 C.3    16  LEU16       0.1693
     31  C         34.2770  -11.4520  -30.7000 C.2    16  LEU16       0.2591
     32  O         35.4930  -11.6130  -30.7840 O.2    16  LEU16      -0.2718
     33  CB        33.2430  -10.0020  -28.9600 C.3    16  LEU16       0.0284
     34  CG        34.2700  -10.4660  -27.9180 C.3    16  LEU16       0.0019
     35  CD1       35.3890   -9.4410  -27.7940 C.3    16  LEU16       0.0001
     36  CD2       33.5820  -10.6580  -26.5760 C.3    16  LEU16       0.0001
     37  N         33.4050  -12.4440  -30.8470 N.am   17  GLN17      -0.1979
     38  CA        33.8440  -13.8200  -31.0500 C.3    17  GLN17       0.1601
     39  C         34.4540  -14.0350  -32.4310 C.2    17  GLN17       0.2287
     40  O         35.3130  -14.8970  -32.6100 O.2    17  GLN17      -0.2864
     41  CB        32.6730  -14.7810  -30.8310 C.3    17  GLN17       0.0394
     42  CG        32.1310  -14.7410  -29.4050 C.3    17  GLN17       0.0908
     43  CD        31.2140  -15.9040  -29.0930 C.2    17  GLN17       0.2608
     44  OE1       30.5130  -16.4070  -29.9700 O.2    17  GLN17      -0.2717
     45  NE2       31.2170  -16.3400  -27.8370 N.am   17  GLN17      -0.0878
     46  N         38.6950  -17.6560  -27.9090 N.3    22  PRO22      -0.2116
     47  CA        38.0450  -17.7100  -26.5950 C.3    22  PRO22       0.1372
     48  C         38.8910  -17.1660  -25.4390 C.2    22  PRO22       0.2244
     49  O         38.4030  -16.3610  -24.6440 O.2    22  PRO22      -0.2868
     50  CB        37.7150  -19.1910  -26.4180 C.3    22  PRO22       0.0268
     51  CG        37.6110  -19.7190  -27.8130 C.3    22  PRO22       0.0207
     52  CD        38.6550  -18.9620  -28.5920 C.3    22  PRO22       0.0892
     53  N         39.3560  -13.3930  -25.6640 N.3    25  ALA25      -0.1231
     54  CA        38.1110  -12.7200  -25.3340 C.3    25  ALA25       0.1694
     55  C         37.9070  -12.7140  -23.8180 C.2    25  ALA25       0.2592
     56  O         37.5040  -11.7070  -23.2370 O.2    25  ALA25      -0.2718
     57  CB        36.9440  -13.4230  -26.0220 C.3    25  ALA25       0.0304
     58  N         38.1980  -13.8500  -23.1900 N.am   26  HIS26      -0.1976
     59  CA        38.1020  -13.9970  -21.7390 C.3    26  HIS26       0.1656
     60  C         38.9910  -12.9740  -21.0270 C.2    26  HIS26       0.2291
     61  O         38.5540  -12.3020  -20.0870 O.2    26  HIS26      -0.2864
     62  CB        38.5260  -15.4150  -21.3430 C.3    26  HIS26       0.0771
     63  CG        38.4280  -15.6960  -19.8760 C.ar   26  HIS26       0.0820
     64  ND1       38.9240  -16.8510  -19.3070 N.ar   26  HIS26      -0.2267
     65  CD2       37.8770  -14.9850  -18.8630 C.ar   26  HIS26       0.1154
     66  CE1       38.6810  -16.8380  -18.0080 C.ar   26  HIS26       0.1986
     67  NE2       38.0480  -15.7170  -17.7130 N.ar   26  HIS26      -0.2212
     68  N         37.6280   -9.4320  -21.5110 N.3    29  ALA29      -0.1245
     69  CA        36.4130   -9.2690  -20.7240 C.3    29  ALA29       0.1562
     70  C         36.7390   -9.0360  -19.2510 C.2    29  ALA29       0.2260
     71  O         36.1200   -8.1980  -18.5930 O.2    29  ALA29      -0.2867
     72  CB        35.5310  -10.5000  -20.8760 C.3    29  ALA29       0.0290
     73  N         37.9200   -5.3990  -19.0720 N.3    32  PHE32      -0.1227
     74  CA        36.8090   -4.4590  -19.1580 C.3    32  PHE32       0.1736
     75  C         35.9840   -4.4520  -17.8830 C.2    32  PHE32       0.2596
     76  O         35.5610   -3.3960  -17.4140 O.2    32  PHE32      -0.2718
     77  CB        35.9060   -4.8020  -20.3460 C.3    32  PHE32       0.0547
     78  CG        36.2470   -4.0480  -21.5980 C.ar   32  PHE32      -0.0202
     79  CD1       37.4820   -4.2050  -22.2030 C.ar   32  PHE32      -0.0042
     80  CD2       35.3390   -3.1660  -22.1610 C.ar   32  PHE32      -0.0042
     81  CE1       37.8090   -3.4960  -23.3480 C.ar   32  PHE32      -0.0003
     82  CE2       35.6580   -2.4540  -23.3040 C.ar   32  PHE32      -0.0003
     83  CZ        36.8980   -2.6200  -23.8990 C.ar   32  PHE32      -0.0000
     84  N         35.7530   -5.6360  -17.3260 N.am   33  THR33      -0.1953
     85  CA        34.9380   -5.7490  -16.1320 C.3    33  THR33       0.1897
     86  C         35.6200   -5.0410  -14.9640 C.2    33  THR33       0.2313
     87  O         34.9730   -4.3240  -14.2050 O.2    33  THR33      -0.2863
     88  CB        34.6870   -7.2320  -15.7620 C.3    33  THR33       0.1794
     89  OG1       34.0300   -7.8930  -16.8510 O.3    33  THR33      -0.2208
     90  CG2       33.8020   -7.3320  -14.5280 C.3    33  THR33       0.0378
     91  N         33.8110   -0.9870  -17.3990 N.3    37  LEU37      -0.1231
     92  CA        33.3440   -0.6990  -18.7310 C.3    37  LEU37       0.1693
     93  C         32.2340   -1.6640  -19.1260 C.2    37  LEU37       0.2592
     94  O         32.4030   -2.5280  -19.9760 O.2    37  LEU37      -0.2718
     95  CB        34.5140   -0.7480  -19.7130 C.3    37  LEU37       0.0284
     96  CG        35.6740    0.1680  -19.3160 C.3    37  LEU37       0.0019
     97  CD1       36.8860   -0.0120  -20.1860 C.3    37  LEU37       0.0001
     98  CD2       35.2390    1.5910  -19.3970 C.3    37  LEU37       0.0001
     99  N         31.0920   -1.4900  -18.4600 N.am   38  LEU38      -0.1966
    100  CA        29.9320   -2.3440  -18.6490 C.3    38  LEU38       0.1713
    101  C         28.7080   -1.5510  -19.1210 C.2    38  LEU38       0.2458
    102  O         28.6290   -0.3520  -18.9240 O.2    38  LEU38      -0.2730
    103  CB        29.5580   -3.0720  -17.3480 C.3    38  LEU38       0.0310
    104  CG        30.4540   -4.0860  -16.6310 C.3    38  LEU38       0.0022
    105  CD1       31.3810   -4.7040  -17.5810 C.3    38  LEU38       0.0001
    106  CD2       31.2860   -3.4720  -15.5830 C.3    38  LEU38       0.0001
    107  N         27.7070   -2.2350  -19.7160 N.am   39  PRO39      -0.2727
    108  CA        26.4200   -1.5850  -19.9850 C.3    39  PRO39       0.1402
    109  C         25.7250   -1.2330  -18.6800 C.2    39  PRO39       0.2269
    110  O         26.0430   -1.7980  -17.6370 O.2    39  PRO39      -0.2865
    111  CB        25.6610   -2.6350  -20.8010 C.3    39  PRO39       0.0296
    112  CG        26.2790   -3.9170  -20.4510 C.3    39  PRO39       0.0237
    113  CD        27.7220   -3.6230  -20.2100 C.3    39  PRO39       0.0939
    114  N         35.7570  -17.4420  -14.0830 N.3    68  PHE68      -0.1241
    115  CA        35.7720  -16.2520  -14.9140 C.3    68  PHE68       0.1605
    116  C         36.7860  -15.2630  -14.3670 C.2    68  PHE68       0.2264
    117  O         37.6950  -14.8210  -15.0790 O.2    68  PHE68      -0.2867
    118  CB        34.3900  -15.5980  -14.9660 C.3    68  PHE68       0.0534
    119  CG        34.3520  -14.3660  -15.8180 C.ar   68  PHE68      -0.0203
    120  CD1       34.4500  -14.4640  -17.1980 C.ar   68  PHE68      -0.0042
    121  CD2       34.2740  -13.1110  -15.2430 C.ar   68  PHE68      -0.0042
    122  CE1       34.4760  -13.3350  -17.9900 C.ar   68  PHE68      -0.0003
    123  CE2       34.3000  -11.9690  -16.0320 C.ar   68  PHE68      -0.0003
    124  CZ        34.4020  -12.0840  -17.4080 C.ar   68  PHE68      -0.0000
    125  N         27.7390   -5.6060  -12.5950 N.3    81  MET81      -0.1245
    126  CA        27.0570   -6.3200  -13.6660 C.3    81  MET81       0.1570
    127  C         25.6920   -6.8200  -13.1890 C.2    81  MET81       0.2261
    128  O         24.8240   -7.1460  -13.9970 O.2    81  MET81      -0.2867
    129  CB        27.9200   -7.5010  -14.1250 C.3    81  MET81       0.0387
    130  CG        27.7660   -7.8640  -15.5890 C.3    81  MET81       0.0595
    131  SD        28.9760   -9.0920  -16.1170 S.3    81  MET81      -0.1393
    132  CE        30.4480   -8.0840  -16.3420 C.3    81  MET81       0.0692
    133  N         40.9540  -23.2880  -24.5570 N.3   104  VAL104     -0.1245
    134  CA        39.5420  -22.9360  -24.4750 C.3   104  VAL104      0.1561
    135  C         38.9400  -22.9800  -25.8790 C.2   104  VAL104      0.2260
    136  O         39.5530  -22.5190  -26.8440 O.2   104  VAL104     -0.2867
    137  CB        39.3450  -21.5210  -23.8840 C.3   104  VAL104      0.0252
    138  CG1       37.8630  -21.2700  -23.6150 C.3   104  VAL104      0.0019
    139  CG2       40.1590  -21.3710  -22.6050 C.3   104  VAL104      0.0019
    140  N         35.1670  -22.8150  -28.3080 N.3   106  ARG106     -0.1245
    141  CA        33.7450  -22.5150  -28.4590 C.3   106  ARG106      0.1563
    142  C         33.0430  -23.6010  -29.2570 C.2   106  ARG106      0.2260
    143  O         33.5840  -24.1020  -30.2430 O.2   106  ARG106     -0.2867
    144  CB        33.5480  -21.1890  -29.1960 C.3   106  ARG106      0.0307
    145  CG        34.0050  -19.9790  -28.4440 C.3   106  ARG106      0.0489
    146  CD        33.8610  -18.7380  -29.2960 C.3   106  ARG106      0.2205
    147  NE        34.3860  -17.5690  -28.6060 N.pl3 106  ARG106     -0.0865
    148  CZ        35.2510  -16.7160  -29.1350 C.cat 106  ARG106      0.5346
    149  NH1       35.6920  -16.8980  -30.3740 N.pl3 106  ARG106      0.1354
    150  NH2       35.6730  -15.6820  -28.4240 N.pl3 106  ARG106      0.1354
    151  N         30.8920  -24.4560  -24.1930 N.3   113  VAL113     -0.1245
    152  CA        32.3290  -24.2410  -24.2100 C.3   113  VAL113      0.1561
    153  C         33.0290  -25.4970  -23.7000 C.2   113  VAL113      0.2260
    154  O         32.4930  -26.2280  -22.8710 O.2   113  VAL113     -0.2867
    155  CB        32.7190  -23.0100  -23.3300 C.3   113  VAL113      0.0252
    156  CG1       34.2340  -22.9340  -23.1550 C.3   113  VAL113      0.0019
    157  CG2       32.2190  -21.7220  -23.9910 C.3   113  VAL113      0.0019
    158  N         41.8560  -25.2850  -19.0390 N.3   117  TYR117     -0.1241
    159  CA        42.7800  -24.3230  -18.4480 C.3   117  TYR117      0.1605
    160  C         43.8460  -24.9690  -17.5680 C.2   117  TYR117      0.2264
    161  O         45.0270  -24.6350  -17.6670 O.2   117  TYR117     -0.2867
    162  CB        42.0080  -23.3030  -17.6210 C.3   117  TYR117      0.0534
    163  CG        41.6970  -22.0470  -18.3820 C.ar  117  TYR117     -0.0201
    164  CD1       40.3930  -21.5810  -18.4950 C.ar  117  TYR117     -0.0009
    165  CD2       42.7100  -21.3160  -18.9820 C.ar  117  TYR117     -0.0009
    166  CE1       40.1070  -20.4120  -19.1820 C.ar  117  TYR117      0.0417
    167  CE2       42.4360  -20.1530  -19.6730 C.ar  117  TYR117      0.0417
    168  CZ        41.1410  -19.7020  -19.7690 C.ar  117  TYR117      0.1957
    169  OH        40.8870  -18.5230  -20.4350 O.3   117  TYR117     -0.2866
    170  N         27.9600  -18.9490  -16.1200 N.3   326  TYR326     -0.1241
    171  CA        29.2320  -18.5030  -16.6490 C.3   326  TYR326      0.1605
    172  C         29.1180  -18.4980  -18.1720 C.2   326  TYR326      0.2264
    173  O         29.1670  -17.4400  -18.8030 O.2   326  TYR326     -0.2867
    174  CB        30.3440  -19.4500  -16.1710 C.3   326  TYR326      0.0534
    175  CG        31.7570  -19.0630  -16.5700 C.ar  326  TYR326     -0.0201
    176  CD1       32.8570  -19.6480  -15.9440 C.ar  326  TYR326     -0.0009
    177  CD2       31.9970  -18.1620  -17.6050 C.ar  326  TYR326     -0.0009
    178  CE1       34.1500  -19.3540  -16.3410 C.ar  326  TYR326      0.0417
    179  CE2       33.2890  -17.8620  -18.0090 C.ar  326  TYR326      0.0417
    180  CZ        34.3580  -18.4600  -17.3740 C.ar  326  TYR326      0.1957
    181  OH        35.6360  -18.1600  -17.7650 O.3   326  TYR326     -0.2866
    182  N         27.1550  -15.9960  -20.1560 N.3   329  LEU329     -0.1231
    183  CA        27.7580  -14.6690  -20.2070 C.3   329  LEU329      0.1693
    184  C         28.6380  -14.5090  -21.4480 C.2   329  LEU329      0.2592
    185  O         28.7090  -13.4260  -22.0310 O.2   329  LEU329     -0.2718
    186  CB        28.5920  -14.4310  -18.9470 C.3   329  LEU329      0.0284
    187  CG        29.2800  -13.0740  -18.8040 C.3   329  LEU329      0.0019
    188  CD1       28.2280  -11.9720  -18.6910 C.3   329  LEU329      0.0001
    189  CD2       30.1780  -13.0930  -17.5750 C.3   329  LEU329      0.0001
    190  N         29.2970  -15.5900  -21.8560 N.am  330  THR330     -0.1953
    191  CA        30.2170  -15.5280  -22.9880 C.3   330  THR330      0.1897
    192  C         29.4770  -15.3940  -24.3180 C.2   330  THR330      0.2313
    193  O         30.0310  -14.8960  -25.2980 O.2   330  THR330     -0.2863
    194  CB        31.1270  -16.7750  -23.0420 C.3   330  THR330      0.1794
    195  OG1       30.3560  -17.9280  -23.4060 O.3   330  THR330     -0.2208
    196  CG2       31.7660  -17.0190  -21.6800 C.3   330  THR330      0.0378
    197  N         27.0200   -9.1760  -20.6980 N.3   334  PRO334     -0.2116
    198  CA        26.5040   -8.6810  -19.4170 C.3   334  PRO334      0.1372
    199  C         24.9820   -8.5560  -19.2870 C.2   334  PRO334      0.2244
    200  O         24.4340   -8.7640  -18.2050 O.2   334  PRO334     -0.2868
    201  CB        27.2100   -7.3360  -19.2480 C.3   334  PRO334      0.0268
    202  CG        28.5030   -7.5220  -19.9700 C.3   334  PRO334      0.0207
    203  CD        28.1490   -8.3590  -21.1790 C.3   334  PRO334      0.0892
@<TRIPOS>BOND
     1    40    39    2
     2    39    38    1
     3    29    30    1
     4    38    37    1
     5    38    41    1
     6    13    14    1
     7    37    31   am
     8    41    42    1
     9    32    31    2
    10    31    30    1
    11    30    33    1
    12   149   148    1
    13    16    15    2
    14   143   142    2
    15    14    15    1
    16    14    17    1
    17    24    23    2
    18    23    22    1
    19    44    43    2
    20    15    21   am
    21    42    43    1
    22   146   147    1
    23   146   145    1
    24   142   141    1
    25    21    22    1
    26   144   141    1
    27   144   145    1
    28   148   147    2
    29   148   150    1
    30    43    45   am
    31    33    34    1
    32    22    25    1
    33    17    18    1
    34    19    18    1
    35    52    46    1
    36    52    51    1
    37   141   140    1
    38     4     3    2
    39    18    20    1
    40    25    26    1
    41    34    35    1
    42    34    36    1
    43    46    47    1
    44     3     2    1
    45    51    50    1
    46     1     2    1
    47     2     5    1
    48   136   135    2
    49    26    27    1
    50    47    50    1
    51    47    48    1
    52    57    54    1
    53   135   134    1
    54     5     6    1
    55    27    28    1
    56    53    54    1
    57    48    49    2
    58    54    55    1
    59   193   192    2
    60     6     7   ar
    61     6     8   ar
    62     7     9   ar
    63     8    10   ar
    64     9    11   ar
    65   133   134    1
    66   134   137    1
    67   192   191    1
    68   152   151    1
    69   152   153    1
    70   152   155    1
    71    10    11   ar
    72    11    12    1
    73   157   155    1
    74    83    81   ar
    75    83    82   ar
    76   137   138    1
    77   137   139    1
    78    55    56    2
    79    55    58   am
    80   153   154    2
    81   195   194    1
    82    81    79   ar
    83   155   156    1
    84    82    80   ar
    85    58    59    1
    86   194   191    1
    87   194   196    1
    88   191   190    1
    89    79    78   ar
    90    80    78   ar
    91   185   184    2
    92   190   184   am
    93    59    62    1
    94    59    60    1
    95    78    77    1
    96    68    69    1
    97   184   183    1
    98    62    63    1
    99   203   197    1
   100   203   202    1
   101    60    61    2
   102    72    69    1
   103   111   112    1
   104   111   108    1
   105    69    70    1
   106   197   198    1
   107   112   113    1
   108   169   168    1
   109    77    74    1
   110   113   107    1
   111   183   182    1
   112   183   186    1
   113    97    96    1
   114   108   107    1
   115   108   109    1
   116    94    93    2
   117   202   201    1
   118    63    64   ar
   119    63    65   ar
   120   168   167   ar
   121   168   166   ar
   122   107   101   am
   123    95    96    1
   124    95    92    1
   125   167   165   ar
   126   198   199    1
   127   198   201    1
   128    98    96    1
   129    64    66   ar
   130   199   200    2
   131    70    71    2
   132   166   164   ar
   133    74    73    1
   134    74    75    1
   135    93    92    1
   136    93    99   am
   137   101   102    2
   138   101   100    1
   139   158   159    1
   140   165   163   ar
   141   186   187    1
   142    65    67   ar
   143   187   188    1
   144   187   189    1
   145   173   172    2
   146    92    91    1
   147   109   110    2
   148   100    99    1
   149   100   103    1
   150   164   163   ar
   151   159   162    1
   152   159   160    1
   153   163   162    1
   154   172   171    1
   155   179   177   ar
   156   179   180   ar
   157    66    67   ar
   158   122   124   ar
   159   122   120   ar
   160    75    76    2
   161    75    84   am
   162   181   180    1
   163   161   160    2
   164   177   175   ar
   165   105   104    1
   166   124   123   ar
   167   180   178   ar
   168   103   104    1
   169    84    85    1
   170   120   119   ar
   171    89    88    1
   172   171   174    1
   173   171   170    1
   174   104   106    1
   175   175   174    1
   176   175   176   ar
   177   132   131    1
   178   178   176   ar
   179    85    88    1
   180    85    86    1
   181   131   130    1
   182   123   121   ar
   183   119   121   ar
   184   119   118    1
   185    88    90    1
   186   130   129    1
   187   117   116    2
   188   118   115    1
   189    86    87    2
   190   115   116    1
   191   115   114    1
   192   129   126    1
   193   128   127    2
   194   126   127    1
   195   126   125    1
