@<TRIPOS>MOLECULE
tmp/3kvnA00.pdb
 203 195 0 0 0
SMALL
GASTEIGER

@<TRIPOS>ATOM
      1  N         41.2960   27.1600   78.2390 N.3    19  ASP19      -0.1225
      2  CA        41.8200   27.0170   79.5840 C.3    19  ASP19       0.1805
      3  C         43.2880   26.5910   79.5600 C.2    19  ASP19       0.2598
      4  O         43.9910   26.8130   78.5730 O.2    19  ASP19      -0.2718
      5  CB        40.9750   25.9890   80.3370 C.3    19  ASP19       0.1424
      6  CG        40.9140   24.6520   79.6260 C.2    19  ASP19       0.3668
      7  OD1       41.7750   24.3890   78.7670 O.co2  19  ASP19      -0.2456
      8  OD2       40.0120   23.8510   79.9300 O.co2  19  ASP19      -0.2456
      9  N         43.7430   25.9790   80.6470 N.am   20  SER20      -0.1938
     10  CA        45.1430   25.5850   80.7790 C.3    20  SER20       0.2055
     11  C         45.6070   24.6050   79.6920 C.2    20  SER20       0.2642
     12  O         46.8000   24.4870   79.4280 O.2    20  SER20      -0.2714
     13  CB        45.4250   25.0070   82.1700 C.3    20  SER20       0.2130
     14  OG        44.5440   23.9350   82.4640 O.3    20  SER20      -0.2179
     15  N         44.6750   23.8890   79.0780 N.am   21  LEU21      -0.1977
     16  CA        45.0440   23.0190   77.9690 C.3    21  LEU21       0.1596
     17  C         45.6560   23.8250   76.8330 C.2    21  LEU21       0.2287
     18  O         46.5160   23.3380   76.1040 O.2    21  LEU21      -0.2864
     19  CB        43.8450   22.2340   77.4570 C.3    21  LEU21       0.0297
     20  CG        43.3080   21.1690   78.4110 C.3    21  LEU21       0.0022
     21  CD1       41.9730   20.6410   77.9370 C.3    21  LEU21       0.0001
     22  CD2       44.3210   20.0220   78.5560 C.3    21  LEU21       0.0001
     23  N         50.9870   25.1560   81.0190 N.3    40  PHE40      -0.1241
     24  CA        50.7350   23.9840   81.8550 C.3    40  PHE40       0.1605
     25  C         51.1490   22.6990   81.1740 C.2    40  PHE40       0.2264
     26  O         50.3140   21.9570   80.6390 O.2    40  PHE40      -0.2867
     27  CB        49.2870   23.9830   82.3110 C.3    40  PHE40       0.0534
     28  CG        48.9470   25.1910   83.1120 C.ar   40  PHE40      -0.0203
     29  CD1       48.6790   26.3970   82.4840 C.ar   40  PHE40      -0.0042
     30  CD2       48.9660   25.1470   84.5190 C.ar   40  PHE40      -0.0042
     31  CE1       48.3990   27.5340   83.2200 C.ar   40  PHE40      -0.0003
     32  CE2       48.6790   26.2700   85.2640 C.ar   40  PHE40      -0.0003
     33  CZ        48.3960   27.4820   84.6080 C.ar   40  PHE40      -0.0000
     34  N         44.7970   29.5920   81.8090 N.3    97  GLY97      -0.1210
     35  CA        44.7830   28.5800   82.8530 C.3    97  GLY97       0.1956
     36  C         43.7860   28.9160   83.9450 C.2    97  GLY97       0.2612
     37  O         43.7950   30.0260   84.4700 O.2    97  GLY97      -0.2717
     38  N         42.9110   27.9680   84.2700 N.am   98  GLY98      -0.1956
     39  CA        41.9250   28.1760   85.3170 C.3    98  GLY98       0.1869
     40  C         40.5010   28.4770   84.8640 C.2    98  GLY98       0.2309
     41  O         39.5570   28.2510   85.6240 O.2    98  GLY98      -0.2863
     42  N         36.8810   21.3300   81.7840 N.3   152  GLY152     -0.1210
     43  CA        37.6280   20.7280   82.8710 C.3   152  GLY152      0.1956
     44  C         37.5270   21.4770   84.1900 C.2   152  GLY152      0.2611
     45  O         37.2160   20.8780   85.2190 O.2   152  GLY152     -0.2717
     46  N         37.7670   22.7840   84.1660 N.am  153  ASN153     -0.1974
     47  CA        37.6610   23.5830   85.3810 C.3   153  ASN153      0.1688
     48  C         36.2630   23.6090   85.9790 C.2   153  ASN153      0.2292
     49  O         36.1140   23.7030   87.1950 O.2   153  ASN153     -0.2864
     50  CB        38.1740   24.9820   85.1300 C.3   153  ASN153      0.1181
     51  CG        39.6620   25.0110   84.9880 C.2   153  ASN153      0.2629
     52  OD1       40.3910   24.8680   85.9690 O.2   153  ASN153     -0.2716
     53  ND2       40.1310   25.1860   83.7660 N.am  153  ASN153     -0.0877
     54  N         36.5500   20.5760   88.0220 N.3   156  LEU156     -0.1245
     55  CA        37.4630   20.6800   89.1530 C.3   156  LEU156      0.1561
     56  C         36.8100   21.4530   90.2810 C.2   156  LEU156      0.2260
     57  O         36.9490   21.0940   91.4590 O.2   156  LEU156     -0.2867
     58  CB        38.7960   21.3280   88.7510 C.3   156  LEU156      0.0270
     59  CG        39.6640   20.4880   87.7960 C.3   156  LEU156      0.0019
     60  CD1       41.0770   21.0310   87.7330 C.3   156  LEU156      0.0001
     61  CD2       39.6880   18.9990   88.1940 C.3   156  LEU156      0.0001
     62  N         37.3890   20.8220   70.9960 N.3   191  TRP191     -0.1241
     63  CA        37.7050   19.5780   71.7190 C.3   191  TRP191      0.1605
     64  C         36.4430   18.9490   72.2920 C.2   191  TRP191      0.2264
     65  O         35.6240   19.6410   72.8930 O.2   191  TRP191     -0.2867
     66  CB        38.5820   19.8570   72.9390 C.3   191  TRP191      0.0550
     67  CG        40.0810   19.9670   72.7680 C.ar  191  TRP191      0.0003
     68  CD1       40.7620   20.6950   71.8420 C.ar  191  TRP191      0.0946
     69  CD2       41.0730   19.3820   73.6290 C.ar  191  TRP191      0.0152
     70  NE1       42.1230   20.5760   72.0510 N.ar  191  TRP191     -0.2442
     71  CE2       42.3340   19.7840   73.1390 C.ar  191  TRP191      0.0810
     72  CE3       41.0090   18.5680   74.7630 C.ar  191  TRP191      0.0012
     73  CZ2       43.5230   19.3840   73.7470 C.ar  191  TRP191      0.0191
     74  CZ3       42.1960   18.1700   75.3570 C.ar  191  TRP191      0.0001
     75  CH2       43.4350   18.5800   74.8490 C.ar  191  TRP191      0.0015
     76  N         35.5220   16.9070   75.4680 N.3   193  LEU193     -0.1231
     77  CA        36.1720   16.8670   76.7680 C.3   193  LEU193      0.1678
     78  C         36.8600   15.5230   76.9040 C.2   193  LEU193      0.2434
     79  O         36.2730   14.4850   76.5710 O.2   193  LEU193     -0.2733
     80  CB        35.1340   17.0380   77.8740 C.3   193  LEU193      0.0284
     81  CG        35.6800   17.3180   79.2650 C.3   193  LEU193      0.0019
     82  CD1       36.2820   18.7210   79.3270 C.3   193  LEU193      0.0001
     83  CD2       34.5770   17.1660   80.2690 C.3   193  LEU193      0.0001
     84  N         38.1170   15.5250   77.3640 N.am  194  PRO194     -0.2729
     85  CA        38.7530   14.2280   77.6400 C.3   194  PRO194      0.1401
     86  C         37.9500   13.4060   78.6650 C.2   194  PRO194      0.2269
     87  O         37.1520   13.9640   79.4280 O.2   194  PRO194     -0.2865
     88  CB        40.1150   14.6210   78.2210 C.3   194  PRO194      0.0296
     89  CG        40.3640   16.0230   77.7370 C.3   194  PRO194      0.0237
     90  CD        39.0020   16.6650   77.6650 C.3   194  PRO194      0.0939
     91  N         37.5150   12.2760   81.8890 N.3   196  LEU196     -0.1245
     92  CA        38.1210   12.7800   83.1190 C.3   196  LEU196      0.1561
     93  C         38.4340   11.7020   84.1520 C.2   196  LEU196      0.2260
     94  O         39.1950   11.9390   85.0940 O.2   196  LEU196     -0.2867
     95  CB        37.2540   13.8870   83.7290 C.3   196  LEU196      0.0270
     96  CG        37.2250   15.1280   82.8320 C.3   196  LEU196      0.0019
     97  CD1       36.4780   16.2620   83.5000 C.3   196  LEU196      0.0001
     98  CD2       38.6500   15.5580   82.4670 C.3   196  LEU196      0.0001
     99  N         42.4360   10.4080   84.0260 N.3   199  THR199     -0.1218
    100  CA        43.5240   11.3230   84.3560 C.3   199  THR199      0.1862
    101  C         44.1280   10.8920   85.6880 C.2   199  THR199      0.2287
    102  O         43.4650   10.2350   86.4830 O.2   199  THR199     -0.2866
    103  CB        43.0320   12.7690   84.5060 C.3   199  THR199      0.1770
    104  OG1       42.2650   12.8870   85.7060 O.3   199  THR199     -0.2211
    105  CG2       42.1680   13.1630   83.3340 C.3   199  THR199      0.0375
    106  N         39.1510   13.5800   71.2340 N.3   238  ILE238     -0.1245
    107  CA        40.2350   13.3310   72.1880 C.3   238  ILE238      0.1561
    108  C         40.0780   12.0110   72.9700 C.2   238  ILE238      0.2260
    109  O         41.0250   11.2380   73.0860 O.2   238  ILE238     -0.2867
    110  CB        40.3650   14.5300   73.1450 C.3   238  ILE238      0.0252
    111  CG1       40.7420   15.7780   72.3450 C.3   238  ILE238      0.0019
    112  CG2       41.3840   14.2490   74.2480 C.3   238  ILE238      0.0019
    113  CD1       42.1110   15.6640   71.6890 C.3   238  ILE238      0.0001
    114  N         41.0890    9.1540   70.6640 N.3   241  LEU241     -0.1231
    115  CA        42.5210    9.2110   70.4500 C.3   241  LEU241      0.1693
    116  C         43.2560    8.6290   71.6620 C.2   241  LEU241      0.2591
    117  O         44.1400    7.7860   71.5040 O.2   241  LEU241     -0.2718
    118  CB        42.9710   10.6520   70.1690 C.3   241  LEU241      0.0284
    119  CG        44.4240   10.7970   69.7110 C.3   241  LEU241      0.0019
    120  CD1       44.6240   10.1410   68.3480 C.3   241  LEU241      0.0001
    121  CD2       44.8940   12.2450   69.7060 C.3   241  LEU241      0.0001
    122  N         42.8780    9.0600   72.8700 N.am  242  LEU242     -0.1980
    123  CA        43.5140    8.5440   74.0840 C.3   242  LEU242      0.1596
    124  C         43.3640    7.0300   74.2190 C.2   242  LEU242      0.2287
    125  O         44.3400    6.3340   74.5060 O.2   242  LEU242     -0.2864
    126  CB        43.0170    9.2640   75.3460 C.3   242  LEU242      0.0297
    127  CG        43.6730    8.8580   76.6830 C.3   242  LEU242      0.0022
    128  CD1       43.6850    9.9920   77.7030 C.3   242  LEU242      0.0001
    129  CD2       42.9900    7.6540   77.2840 C.3   242  LEU242      0.0001
    130  N         52.4860    6.2190   69.6490 N.3   252  PHE252     -0.1241
    131  CA        52.3910    7.6370   69.9820 C.3   252  PHE252      0.1605
    132  C         53.7000    8.1530   70.5760 C.2   252  PHE252      0.2264
    133  O         53.7930    9.3140   70.9610 O.2   252  PHE252     -0.2867
    134  CB        51.2530    7.8810   70.9730 C.3   252  PHE252      0.0534
    135  CG        49.8850    7.8620   70.3540 C.ar  252  PHE252     -0.0203
    136  CD1       49.7050    7.4850   69.0330 C.ar  252  PHE252     -0.0042
    137  CD2       48.7730    8.2130   71.1020 C.ar  252  PHE252     -0.0042
    138  CE1       48.4360    7.4700   68.4640 C.ar  252  PHE252     -0.0003
    139  CE2       47.4970    8.1980   70.5450 C.ar  252  PHE252     -0.0003
    140  CZ        47.3310    7.8230   69.2200 C.ar  252  PHE252     -0.0000
    141  N         52.5520   10.6590   79.2140 N.3   289  LEU289     -0.1231
    142  CA        51.4070   11.3910   78.7110 C.3   289  LEU289      0.1693
    143  C         51.1000   12.6060   79.5810 C.2   289  LEU289      0.2592
    144  O         50.8870   13.7090   79.0660 O.2   289  LEU289     -0.2718
    145  CB        50.1930   10.4680   78.6560 C.3   289  LEU289      0.0284
    146  CG        48.9170   11.1110   78.1360 C.3   289  LEU289      0.0019
    147  CD1       49.1530   11.7560   76.7420 C.3   289  LEU289      0.0001
    148  CD2       47.8010   10.0700   78.1090 C.3   289  LEU289      0.0001
    149  N         51.0640   12.3990   80.8970 N.am  290  PHE290     -0.1976
    150  CA        50.6790   13.4610   81.8330 C.3   290  PHE290      0.1639
    151  C         51.8500   14.1330   82.5370 C.2   290  PHE290      0.2290
    152  O         52.7160   13.4780   83.1090 O.2   290  PHE290     -0.2864
    153  CB        49.6830   12.9360   82.8490 C.3   290  PHE290      0.0560
    154  CG        48.3340   12.6700   82.2680 C.ar  290  PHE290     -0.0200
    155  CD1       47.4240   13.7130   82.0900 C.ar  290  PHE290     -0.0042
    156  CD2       47.9700   11.3820   81.8830 C.ar  290  PHE290     -0.0042
    157  CE1       46.1600   13.4740   81.5340 C.ar  290  PHE290     -0.0003
    158  CE2       46.7020   11.1310   81.3380 C.ar  290  PHE290     -0.0003
    159  CZ        45.7940   12.1820   81.1650 C.ar  290  PHE290     -0.0000
    160  N         46.4320   16.5140   85.3830 N.3   294  VAL294     -0.1231
    161  CA        45.5290   16.6390   84.2410 C.3   294  VAL294      0.1692
    162  C         46.1940   17.1420   82.9600 C.2   294  VAL294      0.2592
    163  O         45.6570   16.9510   81.8770 O.2   294  VAL294     -0.2718
    164  CB        44.3210   17.5650   84.5440 C.3   294  VAL294      0.0266
    165  CG1       43.4510   16.9650   85.6300 C.3   294  VAL294      0.0020
    166  CG2       44.8010   18.9530   84.9210 C.3   294  VAL294      0.0020
    167  N         47.3500   17.7860   83.0780 N.am  295  HIS295     -0.1962
    168  CA        47.9890   18.4260   81.9290 C.3   295  HIS295      0.1772
    169  C         49.0080   17.5660   81.1830 C.2   295  HIS295      0.2462
    170  O         49.9320   16.9970   81.7880 O.2   295  HIS295     -0.2730
    171  CB        48.6460   19.7460   82.3410 C.3   295  HIS295      0.0785
    172  CG        47.6830   20.7260   82.9090 C.ar  295  HIS295      0.0821
    173  ND1       47.6730   21.0830   84.2440 N.ar  295  HIS295     -0.2267
    174  CD2       46.6650   21.4050   82.3350 C.ar  295  HIS295      0.1154
    175  CE1       46.7050   21.9470   84.4570 C.ar  295  HIS295      0.1986
    176  NE2       46.0730   22.1600   83.3130 N.ar  295  HIS295     -0.2212
    177  N         48.8610   17.5020   79.8510 N.am  296  PRO296     -0.2727
    178  CA        49.6880   16.6530   78.9800 C.3   296  PRO296      0.1402
    179  C         51.1360   17.1270   78.8720 C.2   296  PRO296      0.2269
    180  O         51.4120   18.3260   78.8870 O.2   296  PRO296     -0.2865
    181  CB        49.0030   16.7690   77.6030 C.3   296  PRO296      0.0296
    182  CG        47.6410   17.3510   77.8830 C.3   296  PRO296      0.0237
    183  CD        47.7990   18.2000   79.1070 C.3   296  PRO296      0.0939
    184  N         52.0250   14.6010   74.6050 N.3   300  GLY300     -0.1225
    185  CA        50.5880   14.8170   74.4870 C.3   300  GLY300      0.1811
    186  C         50.2560   16.0590   73.6780 C.2   300  GLY300      0.2280
    187  O         49.3050   16.0870   72.9090 O.2   300  GLY300     -0.2866
    188  N         50.7950   15.2670   69.9850 N.3   303  LEU303     -0.1231
    189  CA        49.6910   14.4170   69.5680 C.3   303  LEU303      0.1693
    190  C         48.4590   15.2210   69.2370 C.2   303  LEU303      0.2591
    191  O         47.8100   14.9800   68.2280 O.2   303  LEU303     -0.2718
    192  CB        49.3600   13.4260   70.6720 C.3   303  LEU303      0.0284
    193  CG        49.8480   11.9890   70.5280 C.3   303  LEU303      0.0019
    194  CD1       51.0880   11.9020   69.6660 C.3   303  LEU303      0.0001
    195  CD2       50.0820   11.3920   71.9240 C.3   303  LEU303      0.0001
    196  N         48.1240   16.1700   70.1020 N.am  304  ILE304     -0.1980
    197  CA        46.9280   16.9650   69.8970 C.3   304  ILE304      0.1595
    198  C         47.1060   17.8210   68.6480 C.2   304  ILE304      0.2287
    199  O         46.2150   17.8950   67.8050 O.2   304  ILE304     -0.2864
    200  CB        46.6250   17.8350   71.1260 C.3   304  ILE304      0.0276
    201  CG1       46.1690   16.9490   72.2870 C.3   304  ILE304      0.0022
    202  CG2       45.5680   18.8790   70.8050 C.3   304  ILE304      0.0022
    203  CD1       46.3760   17.5830   73.6480 C.3   304  ILE304      0.0001
@<TRIPOS>BOND
     1   199   198    2
     2   191   190    2
     3   120   119    1
     4   138   136   ar
     5   138   140   ar
     6   198   197    1
     7   136   135   ar
     8   140   139   ar
     9   190   189    1
    10   190   196   am
    11   189   188    1
    12   189   192    1
    13   130   131    1
    14   194   193    1
    15   121   119    1
    16   119   118    1
    17   197   196    1
    18   197   200    1
    19   131   132    1
    20   131   134    1
    21   118   115    1
    22   135   134    1
    23   135   137   ar
    24   115   114    1
    25   115   116    1
    26   193   192    1
    27   193   195    1
    28   139   137   ar
    29   132   133    2
    30   202   200    1
    31    62    63    1
    32   200   201    1
    33   106   107    1
    34   117   116    2
    35   116   122   am
    36   113   111    1
    37    63    64    1
    38    63    66    1
    39    68    70   ar
    40    68    67   ar
    41    70    71   ar
    42   107   108    1
    43   107   110    1
    44   201   203    1
    45    64    65    2
    46   111   110    1
    47    67    66    1
    48    67    69   ar
    49   122   123    1
    50   187   186    2
    51   108   109    2
    52    71    69   ar
    53    71    73   ar
    54   110   112    1
    55    69    72   ar
    56   186   185    1
    57    73    75   ar
    58   123   124    1
    59   123   126    1
    60   124   125    2
    61   185   184    1
    62    72    74   ar
    63    75    74   ar
    64   126   127    1
    65    76    77    1
    66    18    17    2
    67    79    78    2
    68   127   129    1
    69   127   128    1
    70   147   146    1
    71    77    78    1
    72    77    80    1
    73    17    16    1
    74    78    84   am
    75    84    85    1
    76    84    90    1
    77    19    16    1
    78    19    20    1
    79   181   182    1
    80   181   178    1
    81    85    88    1
    82    85    86    1
    83    90    89    1
    84    89    88    1
    85    80    81    1
    86   182   183    1
    87    21    20    1
    88    16    15    1
    89   148   146    1
    90   146   145    1
    91     1     2    1
    92    20    22    1
    93     4     3    2
    94   145   142    1
    95    86    87    2
    96   142   141    1
    97   142   143    1
    98     7     6   ar
    99   179   180    2
   100   179   178    1
   101   178   177    1
   102   144   143    2
   103    15    11   am
   104   183   177    1
   105    81    82    1
   106    81    83    1
   107    12    11    2
   108     3     2    1
   109     3     9   am
   110   143   149   am
   111     2     5    1
   112     6     8   ar
   113     6     5    1
   114    11    10    1
   115   177   169   am
   116    26    25    2
   117     9    10    1
   118    10    13    1
   119   149   150    1
   120    23    24    1
   121   159   158   ar
   122   159   157   ar
   123    25    24    1
   124   169   170    2
   125   169   168    1
   126   158   156   ar
   127   157   155   ar
   128    42    43    1
   129    34    35    1
   130   150   151    1
   131   150   153    1
   132    24    27    1
   133   163   162    2
   134   156   154   ar
   135    91    92    1
   136   168   171    1
   137   168   167    1
   138   155   154   ar
   139    13    14    1
   140   154   153    1
   141    27    28    1
   142   174   172   ar
   143   174   176   ar
   144   171   172    1
   145    98    96    1
   146    29    28   ar
   147    29    31   ar
   148   151   152    2
   149    96    97    1
   150    96    95    1
   151    35    36    1
   152    43    44    1
   153   172   173   ar
   154   162   167   am
   155   162   161    1
   156    28    30   ar
   157    92    95    1
   158    92    93    1
   159    31    33   ar
   160   176   175   ar
   161   105   103    1
   162    53    51   am
   163    36    38   am
   164    36    37    2
   165    99   100    1
   166    93    94    2
   167    46    44   am
   168    46    47    1
   169    44    45    2
   170   161   164    1
   171   161   160    1
   172   173   175   ar
   173    38    39    1
   174   100   103    1
   175   100   101    1
   176   103   104    1
   177    30    32   ar
   178   164   166    1
   179   164   165    1
   180    33    32   ar
   181    40    39    1
   182    40    41    2
   183    51    50    1
   184    51    52    2
   185    50    47    1
   186    47    48    1
   187   101   102    2
   188    48    49    2
   189    60    59    1
   190    59    61    1
   191    59    58    1
   192    54    55    1
   193    58    55    1
   194    55    56    1
   195    56    57    2
