@<TRIPOS>MOLECULE
tmp/3kvrB00.pdb
 108 101 0 0 0
SMALL
GASTEIGER

@<TRIPOS>ATOM
      1  N          3.3390   43.2870 -148.4240 N.3   124  THR124     -0.1203
      2  CA         4.6910   43.5820 -148.8100 C.3   124  THR124      0.1994
      3  C          5.5230   42.3760 -148.4600 C.2   124  THR124      0.2619
      4  O          5.0790   41.5390 -147.7310 O.2   124  THR124     -0.2717
      5  CB         5.1910   44.8660 -148.1190 C.3   124  THR124      0.1784
      6  OG1        5.2890   44.6190 -146.7280 O.3   124  THR124     -0.2211
      7  CG2        4.1610   45.9830 -148.2940 C.3   124  THR124      0.0376
      8  N          6.7060   42.2470 -149.0220 N.am  125  SER125     -0.1937
      9  CA         7.4420   41.0360 -148.8310 C.3   125  SER125      0.2055
     10  C          8.8580   41.3450 -149.2680 C.2   125  SER125      0.2643
     11  O          9.1100   42.4760 -149.7190 O.2   125  SER125     -0.2714
     12  CB         6.8140   39.9390 -149.6570 C.3   125  SER125      0.2130
     13  OG         6.9580   40.1760 -151.0290 O.3   125  SER125     -0.2179
     14  N          9.7760   40.3890 -149.0670 N.am  126  GLY126     -0.1954
     15  CA        11.1450   40.4910 -149.4820 C.3   126  GLY126      0.1869
     16  C         11.1840   39.6020 -150.6850 C.2   126  GLY126      0.2309
     17  O         10.6730   38.4540 -150.6100 O.2   126  GLY126     -0.2863
     18  N         10.7690   38.2870 -138.6990 N.3   196  PHE196     -0.1241
     19  CA        11.2200   39.1140 -139.8090 C.3   196  PHE196      0.1605
     20  C         12.7140   39.0390 -139.8830 C.2   196  PHE196      0.2264
     21  O         13.2880   39.1580 -140.9630 O.2   196  PHE196     -0.2867
     22  CB        10.8210   40.5510 -139.5270 C.3   196  PHE196      0.0534
     23  CG        11.1620   41.5000 -140.5920 C.ar  196  PHE196     -0.0203
     24  CD1       12.3880   42.2100 -140.5510 C.ar  196  PHE196     -0.0042
     25  CD2       10.2210   41.7550 -141.6530 C.ar  196  PHE196     -0.0042
     26  CE1       12.7210   43.1720 -141.5390 C.ar  196  PHE196     -0.0003
     27  CE2       10.5120   42.6910 -142.7070 C.ar  196  PHE196     -0.0003
     28  CZ        11.7680   43.4160 -142.6530 C.ar  196  PHE196     -0.0000
     29  N         14.0180   35.2620 -141.3610 N.3   200  GLN200     -0.1245
     30  CA        14.1110   35.4310 -142.8070 C.3   200  GLN200      0.1566
     31  C         15.5500   35.5210 -143.2940 C.2   200  GLN200      0.2260
     32  O         15.8290   36.0260 -144.3680 O.2   200  GLN200     -0.2867
     33  CB        13.2750   36.6170 -143.2560 C.3   200  GLN200      0.0367
     34  CG        11.8460   36.4190 -142.9260 C.3   200  GLN200      0.0905
     35  CD        10.9970   37.5210 -143.4100 C.2   200  GLN200      0.2608
     36  OE1       11.4270   38.3640 -144.2080 O.2   200  GLN200     -0.2717
     37  NE2        9.7600   37.5450 -142.9270 N.am  200  GLN200     -0.0878
     38  N         17.8990   37.3880 -142.1600 N.3   202  ARG202     -0.1245
     39  CA        18.5650   38.6650 -142.0240 C.3   202  ARG202      0.1563
     40  C         19.8080   38.6650 -141.1120 C.2   202  ARG202      0.2260
     41  O         19.9330   37.8380 -140.2020 O.2   202  ARG202     -0.2867
     42  CB        17.6330   39.7610 -141.5720 C.3   202  ARG202      0.0307
     43  CG        16.6210   40.1700 -142.5890 C.3   202  ARG202      0.0489
     44  CD        15.7250   41.2570 -142.0290 C.3   202  ARG202      0.2205
     45  NE        15.2530   42.0470 -143.1420 N.pl3 202  ARG202     -0.0865
     46  CZ        14.2100   41.7150 -143.9010 C.cat 202  ARG202      0.5346
     47  NH1       13.4690   40.6390 -143.6150 N.pl3 202  ARG202      0.1354
     48  NH2       13.9010   42.4570 -144.9590 N.pl3 202  ARG202      0.1354
     49  N          9.1310   36.5200 -149.5880 N.3   230  ILE230     -0.1231
     50  CA         9.0870   36.0930 -148.2130 C.3   230  ILE230      0.1692
     51  C          8.2720   37.0580 -147.4340 C.2   230  ILE230      0.2592
     52  O          8.5480   38.2860 -147.4610 O.2   230  ILE230     -0.2718
     53  CB        10.4570   36.1130 -147.6270 C.3   230  ILE230      0.0266
     54  CG1       11.4200   35.3420 -148.5520 C.3   230  ILE230      0.0019
     55  CG2       10.4510   35.5810 -146.1930 C.3   230  ILE230      0.0020
     56  CD1       12.8260   35.1800 -147.9690 C.3   230  ILE230      0.0001
     57  N          7.2920   36.5320 -146.6980 N.am  231  GLU231     -0.1966
     58  CA         6.5770   37.3700 -145.8080 C.3   231  GLU231      0.1733
     59  C          6.0400   36.6550 -144.5600 C.2   231  GLU231      0.2616
     60  O          6.6280   35.6720 -144.1330 O.2   231  GLU231     -0.2715
     61  CB         5.5500   38.1190 -146.6050 C.3   231  GLU231      0.0429
     62  CG         4.8340   37.2630 -147.5180 C.3   231  GLU231      0.1163
     63  CD         3.7690   36.4430 -146.7920 C.2   231  GLU231      0.3649
     64  OE1        4.0220   35.2600 -146.4910 O.co2 231  GLU231     -0.2457
     65  OE2        2.6700   36.9510 -146.4720 O.co2 231  GLU231     -0.2457
     66  N          4.9570   37.1480 -143.9390 N.am  232  MET232     -0.1977
     67  CA         4.6100   36.6870 -142.6030 C.3   232  MET232      0.1605
     68  C          3.1880   36.3510 -142.4060 C.2   232  MET232      0.2287
     69  O          2.8130   35.9800 -141.3090 O.2   232  MET232     -0.2864
     70  CB         4.9980   37.7050 -141.5770 C.3   232  MET232      0.0413
     71  CG         6.4620   37.8410 -141.5370 C.3   232  MET232      0.0598
     72  SD         6.9970   39.1340 -140.4350 S.3   232  MET232     -0.1393
     73  CE         7.2730   38.1310 -138.9670 C.3   232  MET232      0.0692
     74  N          9.7840   44.5650 -151.4890 N.3   255  LEU255     -0.1231
     75  CA        10.3820   45.8460 -151.0920 C.3   255  LEU255      0.1693
     76  C         11.8860   45.8800 -151.3730 C.2   255  LEU255      0.2591
     77  O         12.4610   46.9560 -151.3610 O.2   255  LEU255     -0.2718
     78  CB        10.0870   46.2200 -149.6380 C.3   255  LEU255      0.0284
     79  CG         8.6180   46.4220 -149.2860 C.3   255  LEU255      0.0019
     80  CD1        8.4420   46.7310 -147.8260 C.3   255  LEU255      0.0001
     81  CD2        7.8060   47.4260 -150.1590 C.3   255  LEU255      0.0001
     82  N         12.5170   44.7370 -151.6850 N.am  256  LEU256     -0.1980
     83  CA        13.9230   44.7420 -151.9790 C.3   256  LEU256      0.1596
     84  C         14.1750   43.3410 -152.3090 C.2   256  LEU256      0.2287
     85  O         13.3230   42.4640 -152.0330 O.2   256  LEU256     -0.2864
     86  CB        14.7410   45.0960 -150.7270 C.3   256  LEU256      0.0297
     87  CG        14.8860   44.0000 -149.6110 C.3   256  LEU256      0.0022
     88  CD1       16.0130   44.2560 -148.5820 C.3   256  LEU256      0.0001
     89  CD2       13.5640   43.5970 -148.8920 C.3   256  LEU256      0.0001
     90  N         16.1910   40.2160 -151.5130 N.3   258  ARG258     -0.1245
     91  CA        16.9510   39.6880 -150.3570 C.3   258  ARG258      0.1563
     92  C         18.3350   39.1060 -150.7120 C.2   258  ARG258      0.2260
     93  O         19.2030   39.0300 -149.8090 O.2   258  ARG258     -0.2867
     94  CB        16.1190   38.7770 -149.4680 C.3   258  ARG258      0.0307
     95  CG        15.0290   39.5500 -148.7090 C.3   258  ARG258      0.0489
     96  CD        15.5060   40.4370 -147.4700 C.3   258  ARG258      0.2205
     97  NE        16.5510   39.7680 -146.7210 N.pl3 258  ARG258     -0.0865
     98  CZ        16.3900   38.5900 -146.1160 C.cat 258  ARG258      0.5346
     99  NH1       17.4100   38.0190 -145.4670 N.pl3 258  ARG258      0.1354
    100  NH2       15.1920   37.9820 -146.1270 N.pl3 258  ARG258      0.1354
    101  N         15.7610   47.8830 -145.5510 N.3   264  ILE264     -0.1245
    102  CA        14.8770   48.5200 -146.5140 C.3   264  ILE264      0.1561
    103  C         15.2790   49.9740 -146.6390 C.2   264  ILE264      0.2260
    104  O         14.8330   50.7920 -145.8830 O.2   264  ILE264     -0.2867
    105  CB        13.3740   48.4830 -146.0320 C.3   264  ILE264      0.0252
    106  CG1       13.0380   47.1970 -145.2760 C.3   264  ILE264      0.0019
    107  CG2       12.4680   48.6250 -147.1270 C.3   264  ILE264      0.0019
    108  CD1       12.7190   46.0570 -146.0960 C.3   264  ILE264      0.0001
@<TRIPOS>BOND
     1    84    85    2
     2    84    83    1
     3    83    82    1
     4    83    86    1
     5    82    76   am
     6    90    91    1
     7    74    75    1
     8    76    77    2
     9    76    75    1
    10    75    78    1
    11    13    12    1
    12    86    87    1
    13    92    91    1
    14    92    93    2
    15    16    17    2
    16    16    15    1
    17    91    94    1
    18    81    79    1
    19    11    10    2
    20    12     9    1
    21    78    79    1
    22    87    89    1
    23    87    88    1
    24    49    50    1
    25    15    14    1
    26    94    95    1
    27    79    80    1
    28    10    14   am
    29    10     9    1
    30     8     9    1
    31     8     3   am
    32     2     3    1
    33     2     1    1
    34     2     5    1
    35    95    96    1
    36    54    56    1
    37    54    53    1
    38     3     4    2
    39     7     5    1
    40    50    53    1
    41    50    51    1
    42     5     6    1
    43    53    55    1
    44    62    63    1
    45    62    61    1
    46    96    97    1
    47    52    51    2
    48    51    57   am
    49   107   105    1
    50    63    64   ar
    51    63    65   ar
    52    97    98    2
    53    57    58    1
    54   103   102    1
    55   103   104    2
    56    61    58    1
    57   102   105    1
    58   102   101    1
    59   100    98    1
    60    98    99    1
    61   108   106    1
    62   105   106    1
    63    58    59    1
    64    48    46    1
    65    59    60    2
    66    59    66   am
    67    32    31    2
    68    36    35    2
    69    66    67    1
    70    46    47    1
    71    46    45    2
    72    35    37   am
    73    35    34    1
    74    31    30    1
    75    33    34    1
    76    33    30    1
    77    45    44    1
    78    30    29    1
    79    27    28   ar
    80    27    25   ar
    81    28    26   ar
    82    67    68    1
    83    67    70    1
    84    43    44    1
    85    43    42    1
    86    68    69    2
    87    38    39    1
    88    39    42    1
    89    39    40    1
    90    25    23   ar
    91    70    71    1
    92    26    24   ar
    93    71    72    1
    94    40    41    2
    95    21    20    2
    96    23    24   ar
    97    23    22    1
    98    72    73    1
    99    20    19    1
   100    19    22    1
   101    19    18    1
