@<TRIPOS>MOLECULE
tmp/3kvrB01.pdb
 108 102 0 0 0
SMALL
GASTEIGER

@<TRIPOS>ATOM
      1  N         -1.5470   44.6830 -143.9900 N.3    46  GLY46      -0.1225
      2  CA        -1.0710   44.9600 -142.6350 C.3    46  GLY46       0.1811
      3  C         -1.5040   46.3330 -142.0780 C.2    46  GLY46       0.2280
      4  O         -2.0800   46.4720 -140.9800 O.2    46  GLY46      -0.2866
      5  N         -4.8210   44.0570 -140.8200 N.3    91  HIS91      -0.1226
      6  CA        -4.5770   42.8770 -139.9840 C.3    91  HIS91       0.1752
      7  C         -3.2460   42.8740 -139.1410 C.2    91  HIS91       0.2597
      8  O         -2.9170   41.8590 -138.5080 O.2    91  HIS91      -0.2718
      9  CB        -4.6460   41.6290 -140.8780 C.3    91  HIS91       0.0759
     10  CG        -3.5250   41.5330 -141.8700 C.ar   91  HIS91       0.0818
     11  ND1       -3.7280   41.3590 -143.2300 N.ar   91  HIS91      -0.2268
     12  CD2       -2.1880   41.5680 -141.7000 C.ar   91  HIS91       0.1154
     13  CE1       -2.5640   41.2790 -143.8490 C.ar   91  HIS91       0.1986
     14  NE2       -1.6160   41.4160 -142.9430 N.ar   91  HIS91      -0.2212
     15  N         -2.4690   43.9610 -139.1520 N.am   92  GLY92      -0.1942
     16  CA        -1.2150   43.9680 -138.3770 C.3    92  GLY92       0.2014
     17  C         -0.2080   42.9910 -138.9240 C.2    92  GLY92       0.2639
     18  O         -0.3070   42.6140 -140.0600 O.2    92  GLY92      -0.2714
     19  N          0.7840   42.5860 -138.1540 N.am   93  MET93      -0.1963
     20  CA         1.8600   41.7540 -138.6940 C.3    93  MET93       0.1736
     21  C          1.9420   40.4300 -138.0000 C.2    93  MET93       0.2617
     22  O          1.9360   40.3530 -136.7780 O.2    93  MET93      -0.2715
     23  CB         3.1770   42.4710 -138.4840 C.3    93  MET93       0.0427
     24  CG         3.1200   43.8710 -139.0380 C.3    93  MET93       0.0599
     25  SD         4.6910   44.6760 -139.3580 S.3    93  MET93      -0.1393
     26  CE         4.9200   45.1510 -137.6140 C.3    93  MET93       0.0692
     27  N          2.0540   39.3810 -138.7820 N.am   94  GLY94      -0.1955
     28  CA         2.4020   38.0490 -138.2840 C.3    94  GLY94       0.1869
     29  C          1.1620   37.1740 -138.3210 C.2    94  GLY94       0.2309
     30  O         -0.0040   37.6150 -138.1860 O.2    94  GLY94      -0.2863
     31  N         -5.2810   39.0930 -149.9010 N.3   121  ARG121     -0.1245
     32  CA        -4.3670   39.8590 -149.1540 C.3   121  ARG121      0.1563
     33  C         -3.5210   40.7370 -150.0990 C.2   121  ARG121      0.2260
     34  O         -2.9700   40.2310 -151.0610 O.2   121  ARG121     -0.2867
     35  CB        -3.5120   38.9050 -148.3260 C.3   121  ARG121      0.0307
     36  CG        -2.2210   39.4660 -147.9670 C.3   121  ARG121      0.0489
     37  CD        -1.5240   38.7930 -146.8100 C.3   121  ARG121      0.2205
     38  NE        -0.7370   39.9060 -146.2610 N.pl3 121  ARG121     -0.0865
     39  CZ         0.5530   39.9930 -146.3340 C.cat 121  ARG121      0.5346
     40  NH1        1.2260   39.0250 -146.8660 N.pl3 121  ARG121      0.1354
     41  NH2        1.1400   41.0400 -145.8670 N.pl3 121  ARG121      0.1354
     42  N          3.3390   43.2870 -148.4240 N.3   124  THR124     -0.1203
     43  CA         4.6910   43.5820 -148.8100 C.3   124  THR124      0.1994
     44  C          5.5230   42.3760 -148.4600 C.2   124  THR124      0.2618
     45  O          5.0790   41.5390 -147.7310 O.2   124  THR124     -0.2717
     46  CB         5.1910   44.8660 -148.1190 C.3   124  THR124      0.1784
     47  OG1        5.2890   44.6190 -146.7280 O.3   124  THR124     -0.2211
     48  CG2        4.1610   45.9830 -148.2940 C.3   124  THR124      0.0376
     49  N          6.7060   42.2470 -149.0220 N.am  125  SER125     -0.1951
     50  CA         7.4420   41.0360 -148.8310 C.3   125  SER125      0.1924
     51  C          8.8580   41.3450 -149.2680 C.2   125  SER125      0.2314
     52  O          9.1100   42.4760 -149.7190 O.2   125  SER125     -0.2863
     53  CB         6.8140   39.9390 -149.6570 C.3   125  SER125      0.2116
     54  OG         6.9580   40.1760 -151.0290 O.3   125  SER125     -0.2180
     55  N         10.7690   38.2870 -138.6990 N.3   196  PHE196     -0.1241
     56  CA        11.2200   39.1140 -139.8090 C.3   196  PHE196      0.1605
     57  C         12.7140   39.0390 -139.8830 C.2   196  PHE196      0.2264
     58  O         13.2880   39.1580 -140.9630 O.2   196  PHE196     -0.2867
     59  CB        10.8210   40.5510 -139.5270 C.3   196  PHE196      0.0534
     60  CG        11.1620   41.5000 -140.5920 C.ar  196  PHE196     -0.0203
     61  CD1       12.3880   42.2100 -140.5510 C.ar  196  PHE196     -0.0042
     62  CD2       10.2210   41.7550 -141.6530 C.ar  196  PHE196     -0.0042
     63  CE1       12.7210   43.1720 -141.5390 C.ar  196  PHE196     -0.0003
     64  CE2       10.5120   42.6910 -142.7070 C.ar  196  PHE196     -0.0003
     65  CZ        11.7680   43.4160 -142.6530 C.ar  196  PHE196     -0.0000
     66  N         14.0180   35.2620 -141.3610 N.3   200  GLN200     -0.1245
     67  CA        14.1110   35.4310 -142.8070 C.3   200  GLN200      0.1566
     68  C         15.5500   35.5210 -143.2940 C.2   200  GLN200      0.2260
     69  O         15.8290   36.0260 -144.3680 O.2   200  GLN200     -0.2867
     70  CB        13.2750   36.6170 -143.2560 C.3   200  GLN200      0.0367
     71  CG        11.8460   36.4190 -142.9260 C.3   200  GLN200      0.0905
     72  CD        10.9970   37.5210 -143.4100 C.2   200  GLN200      0.2608
     73  OE1       11.4270   38.3640 -144.2080 O.2   200  GLN200     -0.2717
     74  NE2        9.7600   37.5450 -142.9270 N.am  200  GLN200     -0.0878
     75  N          7.2920   36.5320 -146.6980 N.3   231  GLU231     -0.1231
     76  CA         6.5770   37.3700 -145.8080 C.3   231  GLU231      0.1699
     77  C          6.0400   36.6550 -144.5600 C.2   231  GLU231      0.2592
     78  O          6.6280   35.6720 -144.1330 O.2   231  GLU231     -0.2718
     79  CB         5.5500   38.1190 -146.6050 C.3   231  GLU231      0.0402
     80  CG         4.8340   37.2630 -147.5180 C.3   231  GLU231      0.1161
     81  CD         3.7690   36.4430 -146.7920 C.2   231  GLU231      0.3649
     82  OE1        4.0220   35.2600 -146.4910 O.co2 231  GLU231     -0.2457
     83  OE2        2.6700   36.9510 -146.4720 O.co2 231  GLU231     -0.2457
     84  N          4.9570   37.1480 -143.9390 N.am  232  MET232     -0.1965
     85  CA         4.6100   36.6870 -142.6030 C.3   232  MET232      0.1736
     86  C          3.1880   36.3510 -142.4060 C.2   232  MET232      0.2616
     87  O          2.8130   35.9800 -141.3090 O.2   232  MET232     -0.2715
     88  CB         4.9980   37.7050 -141.5770 C.3   232  MET232      0.0427
     89  CG         6.4620   37.8410 -141.5370 C.3   232  MET232      0.0599
     90  SD         6.9970   39.1340 -140.4350 S.3   232  MET232     -0.1393
     91  CE         7.2730   38.1310 -138.9670 C.3   232  MET232      0.0692
     92  N          2.3810   36.4200 -143.4750 N.am  233  GLU233     -0.1977
     93  CA         0.9700   36.0650 -143.3200 C.3   233  GLU233      0.1602
     94  C          0.3460   34.9850 -144.2010 C.2   233  GLU233      0.2287
     95  O         -0.7890   34.5790 -143.9410 O.2   233  GLU233     -0.2864
     96  CB         0.1210   37.3190 -143.4210 C.3   233  GLU233      0.0415
     97  CG         0.3390   38.2250 -142.2290 C.3   233  GLU233      0.1163
     98  CD         1.4160   39.1810 -142.5850 C.2   233  GLU233      0.3649
     99  OE1        1.7240   39.1730 -143.8060 O.co2 233  GLU233     -0.2457
    100  OE2        1.9950   39.8450 -141.6890 O.co2 233  GLU233     -0.2457
    101  N          9.7840   44.5650 -151.4890 N.3   255  LEU255     -0.1245
    102  CA        10.3820   45.8460 -151.0920 C.3   255  LEU255      0.1561
    103  C         11.8860   45.8800 -151.3730 C.2   255  LEU255      0.2260
    104  O         12.4610   46.9560 -151.3610 O.2   255  LEU255     -0.2867
    105  CB        10.0870   46.2200 -149.6380 C.3   255  LEU255      0.0270
    106  CG         8.6180   46.4220 -149.2860 C.3   255  LEU255      0.0019
    107  CD1        8.4420   46.7310 -147.8260 C.3   255  LEU255      0.0001
    108  CD2        7.8060   47.4260 -150.1590 C.3   255  LEU255      0.0001
@<TRIPOS>BOND
     1   101   102    1
     2   103   104    2
     3   103   102    1
     4   102   105    1
     5    34    33    2
     6    54    53    1
     7   108   106    1
     8    33    32    1
     9    31    32    1
    10    52    51    2
    11    53    50    1
    12   105   106    1
    13   106   107    1
    14    51    50    1
    15    32    35    1
    16    49    50    1
    17    49    44   am
    18    43    44    1
    19    43    42    1
    20    43    46    1
    21    44    45    2
    22    35    36    1
    23    48    46    1
    24    46    47    1
    25    36    37    1
    26    80    81    1
    27    80    79    1
    28    40    39    1
    29    37    38    1
    30    81    82   ar
    31    81    83   ar
    32    75    76    1
    33    79    76    1
    34    39    38    2
    35    39    41    1
    36    76    77    1
    37    77    78    2
    38    77    84   am
    39    69    68    2
    40    73    72    2
    41    94    95    2
    42    94    93    1
    43     1     2    1
    44    84    85    1
    45    13    11   ar
    46    13    14   ar
    47    99    98   ar
    48    92    93    1
    49    92    86   am
    50    96    93    1
    51    96    97    1
    52    72    74   am
    53    72    71    1
    54    68    67    1
    55    70    71    1
    56    70    67    1
    57    11    10   ar
    58    14    12   ar
    59    67    66    1
    60    64    65   ar
    61    64    62   ar
    62    65    63   ar
    63     2     3    1
    64    85    86    1
    65    85    88    1
    66    98    97    1
    67    98   100   ar
    68    86    87    2
    69     3     4    2
    70    10    12   ar
    71    10     9    1
    72    62    60   ar
    73    88    89    1
    74    63    61   ar
    75    89    90    1
    76    58    57    2
    77     9     6    1
    78     5     6    1
    79    60    61   ar
    80    60    59    1
    81    90    91    1
    82    18    17    2
    83     6     7    1
    84    57    56    1
    85    56    59    1
    86    56    55    1
    87    25    24    1
    88    25    26    1
    89    15     7   am
    90    15    16    1
    91     7     8    2
    92    24    23    1
    93    17    16    1
    94    17    19   am
    95    27    28    1
    96    27    21   am
    97    20    23    1
    98    20    19    1
    99    20    21    1
   100    29    28    1
   101    29    30    2
   102    21    22    2
