@<TRIPOS>MOLECULE
tmp/3kvuD00.pdb
 85 84 0 0 0
SMALL
GASTEIGER

@<TRIPOS>ATOM
      1  N         16.9750   34.9740   31.3510 N.3    19  VAL19      -0.1245
      2  CA        18.1130   34.6560   32.1730 C.3    19  VAL19       0.1561
      3  C         18.8600   35.9070   32.7610 C.2    19  VAL19       0.2260
      4  O         19.2330   35.9600   33.8800 O.2    19  VAL19      -0.2867
      5  CB        19.0800   33.8440   31.2950 C.3    19  VAL19       0.0252
      6  CG1       20.3360   33.5740   31.9270 C.3    19  VAL19       0.0019
      7  CG2       18.4620   32.6250   30.7230 C.3    19  VAL19       0.0019
      8  N         25.5780   35.6570   32.4360 N.3    29  PHE29      -0.1241
      9  CA        24.1610   35.5970   32.0630 C.3    29  PHE29       0.1605
     10  C         23.8280   36.7610   31.1670 C.2    29  PHE29       0.2264
     11  O         22.8890   36.7040   30.3590 O.2    29  PHE29      -0.2867
     12  CB        23.2260   35.6550   33.2780 C.3    29  PHE29       0.0534
     13  CG        23.1810   34.4260   34.1290 C.ar   29  PHE29      -0.0203
     14  CD1       22.6570   34.5010   35.4230 C.ar   29  PHE29      -0.0042
     15  CD2       23.6610   33.2140   33.6950 C.ar   29  PHE29      -0.0042
     16  CE1       22.6020   33.3770   36.2760 C.ar   29  PHE29      -0.0003
     17  CE2       23.6440   32.0510   34.5830 C.ar   29  PHE29      -0.0003
     18  CZ        23.1220   32.1470   35.8540 C.ar   29  PHE29      -0.0000
     19  N         23.4270   35.4990   27.6780 N.3    32  PHE32      -0.1241
     20  CA        22.5630   34.3630   27.4290 C.3    32  PHE32       0.1605
     21  C         21.3940   34.7120   26.4720 C.2    32  PHE32       0.2264
     22  O         20.9150   35.8880   26.3870 O.2    32  PHE32      -0.2867
     23  CB        22.0430   33.8050   28.7960 C.3    32  PHE32       0.0534
     24  CG        22.9030   32.6770   29.3740 C.ar   32  PHE32      -0.0203
     25  CD1       22.3390   31.4520   29.7060 C.ar   32  PHE32      -0.0042
     26  CD2       24.2370   32.8600   29.6190 C.ar   32  PHE32      -0.0042
     27  CE1       23.1190   30.4340   30.2590 C.ar   32  PHE32      -0.0003
     28  CE2       25.0020   31.8730   30.1730 C.ar   32  PHE32      -0.0003
     29  CZ        24.4160   30.6280   30.4770 C.ar   32  PHE32      -0.0000
     30  N         15.6070   33.8180   26.6770 N.3    35  VAL35      -0.1231
     31  CA        14.5980   32.8070   27.0150 C.3    35  VAL35       0.1692
     32  C         14.3440   32.8270   28.5360 C.2    35  VAL35       0.2592
     33  O         15.1780   33.3370   29.3350 O.2    35  VAL35      -0.2718
     34  CB        15.1050   31.4000   26.5840 C.3    35  VAL35       0.0266
     35  CG1       15.4140   31.4270   25.0940 C.3    35  VAL35       0.0020
     36  CG2       16.3900   31.1310   27.2510 C.3    35  VAL35       0.0020
     37  N         13.1780   32.3180   28.8910 N.am   36  PHE36      -0.1962
     38  CA        12.6460   32.1050   30.2680 C.3    36  PHE36       0.1771
     39  C         13.6570   31.2730   31.0930 C.2    36  PHE36       0.2619
     40  O         13.9510   30.1240   30.7520 O.2    36  PHE36      -0.2715
     41  CB        11.3310   31.3610   30.0790 C.3    36  PHE36       0.0574
     42  CG        10.4390   31.2920   31.2750 C.ar   36  PHE36      -0.0200
     43  CD1        9.7680   30.0810   31.5570 C.ar   36  PHE36      -0.0042
     44  CD2       10.2660   32.3600   32.1160 C.ar   36  PHE36      -0.0042
     45  CE1        8.8840   30.0260   32.6440 C.ar   36  PHE36      -0.0003
     46  CE2        9.4220   32.2860   33.2060 C.ar   36  PHE36      -0.0003
     47  CZ         8.7370   31.1070   33.4670 C.ar   36  PHE36      -0.0000
     48  N         14.1610   31.8450   32.1890 N.am   37  ALA37      -0.1963
     49  CA        15.2830   31.3290   32.9700 C.3    37  ALA37       0.1728
     50  C         14.7180   30.1280   33.7240 C.2    37  ALA37       0.2616
     51  O         13.5850   30.2060   34.1410 O.2    37  ALA37      -0.2715
     52  CB        15.6330   32.4150   34.0090 C.3    37  ALA37       0.0334
     53  N         15.4910   29.0240   33.8820 N.am   38  SER38      -0.1950
     54  CA        15.1200   27.9780   34.8110 C.3    38  SER38       0.1924
     55  C         14.7080   28.4320   36.2170 C.2    38  SER38       0.2314
     56  O         13.6860   27.9700   36.7190 O.2    38  SER38      -0.2863
     57  CB        16.2430   26.9500   34.9110 C.3    38  SER38       0.2116
     58  OG        16.3260   26.2650   33.6270 O.3    38  SER38      -0.2180
     59  N         14.0100   20.9420   32.1290 N.3    72  HIS72      -0.1226
     60  CA        13.6980   22.1780   31.3960 C.3    72  HIS72       0.1752
     61  C         14.0990   21.7800   29.9660 C.2    72  HIS72       0.2597
     62  O         15.2770   21.7000   29.6190 O.2    72  HIS72      -0.2718
     63  CB        14.4640   23.4120   31.9580 C.3    72  HIS72       0.0759
     64  CG        13.9070   24.7310   31.4570 C.ar   72  HIS72       0.0818
     65  ND1       14.3330   25.9680   31.9170 N.ar   72  HIS72      -0.2268
     66  CD2       12.9820   24.9970   30.4920 C.ar   72  HIS72       0.1154
     67  CE1       13.6700   26.9280   31.2870 C.ar   72  HIS72       0.1986
     68  NE2       12.8350   26.3690   30.4300 N.ar   72  HIS72      -0.2212
     69  N         13.0940   21.3480   29.1970 N.am   73  THR73      -0.1939
     70  CA        13.3100   20.5740   27.9780 C.3    73  THR73       0.2028
     71  C         13.1630   21.3350   26.6920 C.2    73  THR73       0.2642
     72  O         13.5940   20.8670   25.6050 O.2    73  THR73      -0.2714
     73  CB        12.3740   19.4050   27.9050 C.3    73  THR73       0.1808
     74  OG1       11.0130   19.8520   28.0490 O.3    73  THR73      -0.2208
     75  CG2       12.6400   18.3590   29.0310 C.3    73  THR73       0.0379
     76  N         12.5570   22.5080   26.7480 N.am   74  ALA74      -0.1963
     77  CA        12.4270   23.3270   25.5140 C.3    74  ALA74       0.1728
     78  C         12.5210   24.7390   26.0110 C.2    74  ALA74       0.2616
     79  O         12.2520   24.9200   27.1990 O.2    74  ALA74      -0.2715
     80  CB        11.0650   23.1100   24.8800 C.3    74  ALA74       0.0334
     81  N         12.9530   25.7220   25.2100 N.am   75  ALA75      -0.1977
     82  CA        13.1690   27.1050   25.7370 C.3    75  ALA75       0.1597
     83  C         11.9980   27.9820   25.3190 C.2    75  ALA75       0.2287
     84  O         11.4380   27.7840   24.1930 O.2    75  ALA75      -0.2864
     85  CB        14.4750   27.6940   25.1610 C.3    75  ALA75       0.0319
@<TRIPOS>BOND
     1    84    83    2
     2    80    77    1
     3    35    34    1
     4    85    82    1
     5    81    82    1
     6    81    78   am
     7    83    82    1
     8    77    78    1
     9    77    76    1
    10    72    71    2
    11    78    79    2
    12    22    21    2
    13    21    20    1
    14    34    31    1
    15    34    36    1
    16    30    31    1
    17    71    76   am
    18    71    70    1
    19    31    32    1
    20    20    19    1
    21    20    23    1
    22    73    70    1
    23    73    74    1
    24    73    75    1
    25    70    69    1
    26    32    37   am
    27    32    33    2
    28    23    24    1
    29    37    38    1
    30    69    61   am
    31    24    26   ar
    32    24    25   ar
    33    62    61    2
    34    26    28   ar
    35    25    27   ar
    36    61    60    1
    37    41    38    1
    38    41    42    1
    39    28    29   ar
    40    27    29   ar
    41    38    39    1
    42    11    10    2
    43    68    66   ar
    44    68    67   ar
    45    66    64   ar
    46     7     5    1
    47    40    39    2
    48    39    48   am
    49    10     9    1
    50    42    43   ar
    51    42    44   ar
    52    67    65   ar
    53     5     6    1
    54     5     2    1
    55     1     2    1
    56    60    63    1
    57    60    59    1
    58    64    65   ar
    59    64    63    1
    60    43    45   ar
    61     9     8    1
    62     9    12    1
    63    44    46   ar
    64     2     3    1
    65    48    49    1
    66    45    47   ar
    67     3     4    2
    68    49    50    1
    69    49    52    1
    70    46    47   ar
    71    12    13    1
    72    58    57    1
    73    15    13   ar
    74    15    17   ar
    75    50    53   am
    76    50    51    2
    77    53    54    1
    78    13    14   ar
    79    17    18   ar
    80    54    57    1
    81    54    55    1
    82    14    16   ar
    83    18    16   ar
    84    55    56    2
