@<TRIPOS>MOLECULE
tmp/3kvuB01.pdb
 100 99 0 0 0
SMALL
GASTEIGER

@<TRIPOS>ATOM
      1  N          3.6420    6.4590   -1.2010 N.3    19  VAL19      -0.1245
      2  CA         4.8520    6.1970   -0.5140 C.3    19  VAL19       0.1561
      3  C          5.6550    7.3750    0.0300 C.2    19  VAL19       0.2260
      4  O          6.1510    7.3090    1.1180 O.2    19  VAL19      -0.2867
      5  CB         5.7060    5.3410   -1.4460 C.3    19  VAL19       0.0252
      6  CG1        6.4150    4.3380   -0.6580 C.3    19  VAL19       0.0019
      7  CG2        4.7430    4.6530   -2.5300 C.3    19  VAL19       0.0019
      8  N         12.3140    7.1420   -0.3110 N.3    29  PHE29      -0.1241
      9  CA        10.9170    6.9980   -0.6870 C.3    29  PHE29       0.1605
     10  C         10.5870    8.1210   -1.6100 C.2    29  PHE29       0.2264
     11  O          9.5940    8.0430   -2.2910 O.2    29  PHE29      -0.2867
     12  CB         9.9530    7.1050    0.5240 C.3    29  PHE29       0.0534
     13  CG         9.8150    5.8390    1.3440 C.ar   29  PHE29      -0.0203
     14  CD1        9.4500    5.9170    2.6920 C.ar   29  PHE29      -0.0042
     15  CD2       10.0480    4.5970    0.8040 C.ar   29  PHE29      -0.0042
     16  CE1        9.3200    4.7790    3.4730 C.ar   29  PHE29      -0.0003
     17  CE2        9.9240    3.4400    1.5860 C.ar   29  PHE29      -0.0003
     18  CZ         9.5470    3.5430    2.9260 C.ar   29  PHE29      -0.0000
     19  N          9.9210    6.8980   -5.2990 N.3    32  PHE32      -0.1228
     20  CA         9.0960    5.7650   -5.5890 C.3    32  PHE32       0.1721
     21  C          8.0100    6.0020   -6.6900 C.2    32  PHE32       0.2437
     22  O          7.6720    7.1030   -7.0070 O.2    32  PHE32      -0.2733
     23  CB         8.5270    5.2070   -4.2540 C.3    32  PHE32       0.0547
     24  CG         9.4130    4.2180   -3.5710 C.ar   32  PHE32      -0.0202
     25  CD1        8.9250    2.9660   -3.2190 C.ar   32  PHE32      -0.0042
     26  CD2       10.7160    4.5410   -3.2430 C.ar   32  PHE32      -0.0042
     27  CE1        9.7130    2.0260   -2.5780 C.ar   32  PHE32      -0.0003
     28  CE2       11.5230    3.6250   -2.6020 C.ar   32  PHE32      -0.0003
     29  CZ        11.0280    2.3380   -2.2750 C.ar   32  PHE32      -0.0000
     30  N          7.4490    4.9260   -7.2420 N.am   33  PRO33      -0.2729
     31  CA         6.2530    5.0840   -8.0770 C.3    33  PRO33       0.1401
     32  C          5.1440    5.8100   -7.2640 C.2    33  PRO33       0.2269
     33  O          4.9400    5.5050   -6.0470 O.2    33  PRO33      -0.2865
     34  CB         5.8460    3.6600   -8.3960 C.3    33  PRO33       0.0296
     35  CG         7.0520    2.8750   -8.2550 C.3    33  PRO33       0.0237
     36  CD         7.8030    3.5080   -7.0920 C.3    33  PRO33       0.0939
     37  N          2.3070    5.5800   -6.3670 N.3    35  VAL35      -0.1231
     38  CA         1.2890    4.5720   -6.1150 C.3    35  VAL35       0.1692
     39  C          0.9050    4.4920   -4.5750 C.2    35  VAL35       0.2592
     40  O          1.6620    4.9380   -3.7250 O.2    35  VAL35      -0.2718
     41  CB         1.6210    3.1440   -6.7000 C.3    35  VAL35       0.0266
     42  CG1        2.1820    3.2450   -8.1440 C.3    35  VAL35       0.0020
     43  CG2        2.5880    2.3140   -5.8200 C.3    35  VAL35       0.0020
     44  N         -0.2600    3.9360   -4.2610 N.am   36  PHE36      -0.1962
     45  CA        -0.8070    3.8950   -2.9030 C.3    36  PHE36       0.1771
     46  C          0.0880    3.0810   -1.9610 C.2    36  PHE36       0.2619
     47  O          0.2960    1.8790   -2.1670 O.2    36  PHE36      -0.2715
     48  CB        -2.1920    3.3070   -3.0130 C.3    36  PHE36       0.0574
     49  CG        -3.0580    3.4140   -1.7510 C.ar   36  PHE36      -0.0200
     50  CD1       -3.7350    2.3000   -1.2970 C.ar   36  PHE36      -0.0042
     51  CD2       -3.2470    4.6280   -1.0810 C.ar   36  PHE36      -0.0042
     52  CE1       -4.5870    2.3810   -0.1680 C.ar   36  PHE36      -0.0003
     53  CE2       -4.1080    4.6960    0.0520 C.ar   36  PHE36      -0.0003
     54  CZ        -4.7450    3.5710    0.4810 C.ar   36  PHE36      -0.0000
     55  N          0.6250    3.7410   -0.9300 N.am   37  ALA37      -0.1963
     56  CA         1.6700    3.1230   -0.0760 C.3    37  ALA37       0.1728
     57  C          1.1440    1.9230    0.6790 C.2    37  ALA37       0.2616
     58  O          0.0150    1.9350    1.1400 O.2    37  ALA37      -0.2715
     59  CB         2.2390    4.1180    0.8670 C.3    37  ALA37       0.0334
     60  N          1.9390    0.8870    0.8310 N.am   38  SER38      -0.1950
     61  CA         1.5190   -0.2160    1.6780 C.3    38  SER38       0.1924
     62  C          1.0960    0.2500    3.1560 C.2    38  SER38       0.2314
     63  O          0.0940   -0.2060    3.6840 O.2    38  SER38      -0.2863
     64  CB         2.5540   -1.3850    1.5910 C.3    38  SER38       0.2116
     65  OG         2.5980   -2.2330    2.7630 O.3    38  SER38      -0.2180
     66  N          0.1560   -7.3630   -1.1020 N.3    72  HIS72      -0.1226
     67  CA        -0.1250   -6.1810   -1.8370 C.3    72  HIS72       0.1752
     68  C          0.2610   -6.5080   -3.2900 C.2    72  HIS72       0.2597
     69  O          1.4650   -6.5880   -3.6550 O.2    72  HIS72      -0.2718
     70  CB         0.6360   -5.0010   -1.2100 C.3    72  HIS72       0.0759
     71  CG         0.1530   -3.6840   -1.6970 C.ar   72  HIS72       0.0818
     72  ND1        0.5690   -2.4870   -1.1520 N.ar   72  HIS72      -0.2268
     73  CD2       -0.7480   -3.3660   -2.6710 C.ar   72  HIS72       0.1154
     74  CE1       -0.0440   -1.4830   -1.7800 C.ar   72  HIS72       0.1986
     75  NE2       -0.8640   -1.9920   -2.6890 N.ar   72  HIS72      -0.2212
     76  N         -0.7510   -6.7850   -4.0990 N.am   73  THR73      -0.1939
     77  CA        -0.5190   -7.5630   -5.2990 C.3    73  THR73       0.2028
     78  C         -0.7530   -6.7370   -6.5660 C.2    73  THR73       0.2642
     79  O         -0.4200   -7.1560   -7.6280 O.2    73  THR73      -0.2714
     80  CB        -1.2540   -8.9320   -5.2680 C.3    73  THR73       0.1808
     81  OG1       -2.6620   -8.7520   -5.3820 O.3    73  THR73      -0.2208
     82  CG2       -1.0530   -9.6390   -3.9780 C.3    73  THR73       0.0379
     83  N         -1.2550   -5.5120   -6.4450 N.am   74  ALA74      -0.1963
     84  CA        -1.2940   -4.5820   -7.5820 C.3    74  ALA74       0.1728
     85  C         -1.1210   -3.1920   -7.0620 C.2    74  ALA74       0.2616
     86  O         -1.4600   -2.8750   -5.9070 O.2    74  ALA74      -0.2715
     87  CB        -2.6420   -4.7070   -8.4030 C.3    74  ALA74       0.0334
     88  N         -0.5820   -2.3280   -7.8710 N.am   75  ALA75      -0.1977
     89  CA        -0.4090   -1.0180   -7.4120 C.3    75  ALA75       0.1597
     90  C         -1.5780   -0.2160   -7.8730 C.2    75  ALA75       0.2287
     91  O         -2.1570   -0.4550   -8.9670 O.2    75  ALA75      -0.2864
     92  CB         0.9310   -0.3940   -7.9550 C.3    75  ALA75       0.0319
     93  N         -8.2020   -4.0780  -10.3330 N.3   107  ASP107     -0.1239
     94  CA        -7.4980   -5.2360   -9.8420 C.3   107  ASP107      0.1674
     95  C         -7.8360   -5.5950   -8.3750 C.2   107  ASP107      0.2266
     96  O         -8.1480   -4.6980   -7.5690 O.2   107  ASP107     -0.2867
     97  CB        -5.9810   -4.9670   -9.9310 C.3   107  ASP107      0.1410
     98  CG        -5.4950   -4.8490  -11.3450 C.2   107  ASP107      0.3668
     99  OD1       -5.4480   -5.8950  -12.0420 O.co2 107  ASP107     -0.2456
    100  OD2       -5.1840   -3.7220  -11.7730 O.co2 107  ASP107     -0.2456
@<TRIPOS>BOND
     1    99    98   ar
     2   100    98   ar
     3    98    97    1
     4    93    94    1
     5    97    94    1
     6    94    95    1
     7    91    90    2
     8    87    84    1
     9    34    35    1
    10    34    31    1
    11    95    96    2
    12    35    36    1
    13    42    41    1
    14    31    32    1
    15    31    30    1
    16    92    89    1
    17    90    89    1
    18    88    89    1
    19    88    85   am
    20    79    78    2
    21    84    85    1
    22    84    83    1
    23    32    33    2
    24    30    36    1
    25    30    21   am
    26    85    86    2
    27    22    21    2
    28    41    38    1
    29    41    43    1
    30    21    20    1
    31    78    83   am
    32    78    77    1
    33    37    38    1
    34    38    39    1
    35    20    19    1
    36    20    23    1
    37    81    80    1
    38    77    80    1
    39    77    76    1
    40    80    82    1
    41    39    44   am
    42    39    40    2
    43    44    45    1
    44    23    24    1
    45    76    68   am
    46    69    68    2
    47    24    26   ar
    48    24    25   ar
    49    68    67    1
    50    26    28   ar
    51    25    27   ar
    52    48    45    1
    53    48    49    1
    54    45    46    1
    55    75    73   ar
    56    75    74   ar
    57    73    71   ar
    58    28    29   ar
    59    27    29   ar
    60     7     5    1
    61    11    10    2
    62    47    46    2
    63    46    55   am
    64    67    70    1
    65    67    66    1
    66    74    72   ar
    67    49    50   ar
    68    49    51   ar
    69    71    70    1
    70    71    72   ar
    71    10     9    1
    72     5     6    1
    73     5     2    1
    74    50    52   ar
    75     1     2    1
    76    51    53   ar
    77    55    56    1
    78     9     8    1
    79     9    12    1
    80     2     3    1
    81    52    54   ar
    82    56    57    1
    83    56    59    1
    84     3     4    2
    85    53    54   ar
    86    12    13    1
    87    57    60   am
    88    57    58    2
    89    15    13   ar
    90    15    17   ar
    91    60    61    1
    92    13    14   ar
    93    17    18   ar
    94    64    61    1
    95    64    65    1
    96    61    62    1
    97    14    16   ar
    98    18    16   ar
    99    62    63    2
