@<TRIPOS>MOLECULE
tmp/3kvuA01.pdb
 129 124 0 0 0
SMALL
GASTEIGER

@<TRIPOS>ATOM
      1  N          9.4340   -1.3440    6.3800 N.3    46  GLU46      -0.1245
      2  CA         9.7570   -1.1430    4.9410 C.3    46  GLU46       0.1567
      3  C         10.9590   -0.2310    4.5950 C.2    46  GLU46       0.2260
      4  O         11.8150   -0.6310    3.8020 O.2    46  GLU46      -0.2867
      5  CB         8.5060   -0.6480    4.2150 C.3    46  GLU46       0.0388
      6  CG         7.3530   -1.4700    4.5840 C.3    46  GLU46       0.1160
      7  CD         6.1440   -1.2090    3.7600 C.2    46  GLU46       0.3649
      8  OE1        6.0060   -0.0530    3.2660 O.co2  46  GLU46      -0.2457
      9  OE2        5.3330   -2.1850    3.6430 O.co2  46  GLU46      -0.2457
     10  N          9.1970   -2.4870   -4.5850 N.3    64  LEU64      -0.1231
     11  CA         7.8640   -2.2560   -3.9680 C.3    64  LEU64       0.1693
     12  C          7.6400   -3.3570   -2.9130 C.2    64  LEU64       0.2593
     13  O          8.0660   -4.4720   -3.0950 O.2    64  LEU64      -0.2718
     14  CB         6.7620   -2.3030   -5.0650 C.3    64  LEU64       0.0284
     15  CG         6.8830   -1.3010   -6.2570 C.3    64  LEU64       0.0019
     16  CD1        5.8050   -1.4880   -7.2990 C.3    64  LEU64       0.0001
     17  CD2        6.9370    0.1850   -5.8680 C.3    64  LEU64       0.0001
     18  N          6.9670   -3.0400   -1.8080 N.am   65  GLY65      -0.1942
     19  CA         6.4890   -4.1120   -0.8780 C.3    65  GLY65       0.2014
     20  C          5.3380   -4.9400   -1.3590 C.2    65  GLY65       0.2639
     21  O          4.3800   -4.4350   -1.8610 O.2    65  GLY65      -0.2714
     22  N          5.4320   -6.2380   -1.2300 N.am   66  THR66      -0.1950
     23  CA         4.4620   -7.0790   -1.7980 C.3    66  THR66       0.1897
     24  C          3.7360   -7.8140   -0.7120 C.2    66  THR66       0.2313
     25  O          2.6300   -8.2450   -0.9560 O.2    66  THR66      -0.2863
     26  CB         5.1100   -8.0050   -2.8030 C.3    66  THR66       0.1794
     27  OG1        6.3020   -8.5070   -2.2270 O.3    66  THR66      -0.2208
     28  CG2        5.5430   -7.2160   -4.0360 C.3    66  THR66       0.0378
     29  N         13.3240  -12.0180   -8.3190 N.3    94  ARG94      -0.1231
     30  CA        13.0880  -10.6290   -8.0370 C.3    94  ARG94       0.1694
     31  C         12.5820  -10.4000   -6.5880 C.2    94  ARG94       0.2591
     32  O         12.3130   -9.2390   -6.2120 O.2    94  ARG94      -0.2718
     33  CB        12.0850  -10.0430   -9.0480 C.3    94  ARG94       0.0321
     34  CG        12.3200  -10.4420  -10.5000 C.3    94  ARG94       0.0489
     35  CD        11.4100   -9.6760  -11.4440 C.3    94  ARG94       0.2205
     36  NE        11.7380   -8.2510  -11.4680 N.pl3  94  ARG94      -0.0865
     37  CZ        12.7950   -7.7300  -12.0870 C.cat  94  ARG94       0.5346
     38  NH1       13.6400   -8.5120  -12.7510 N.pl3  94  ARG94       0.1354
     39  NH2       13.0220   -6.4230  -12.0240 N.pl3  94  ARG94       0.1354
     40  N         12.4890  -11.4740   -5.8000 N.am   95  ARG95      -0.1980
     41  CA        11.7420  -11.4360   -4.5250 C.3    95  ARG95       0.1597
     42  C         12.6270  -11.6170   -3.3010 C.2    95  ARG95       0.2287
     43  O         13.2360  -12.6540   -3.1410 O.2    95  ARG95      -0.2864
     44  CB        10.6830  -12.5500   -4.4360 C.3    95  ARG95       0.0334
     45  CG         9.3690  -12.4000   -5.2410 C.3    95  ARG95       0.0492
     46  CD         8.9370  -10.9660   -5.5880 C.3    95  ARG95       0.2205
     47  NE         7.6320  -10.7320   -5.0120 N.pl3  95  ARG95      -0.0865
     48  CZ         6.4390  -10.8280   -5.5930 C.cat  95  ARG95       0.5346
     49  NH1        6.2840  -11.0790   -6.9010 N.pl3  95  ARG95       0.1354
     50  NH2        5.3680  -10.6100   -4.8150 N.pl3  95  ARG95       0.1354
     51  N          9.6210   -7.8650   -0.5020 N.3   116  ARG116     -0.1231
     52  CA         9.6840   -6.8310   -1.5400 C.3   116  ARG116      0.1694
     53  C          9.9580   -7.4200   -2.9150 C.2   116  ARG116      0.2592
     54  O         10.4440   -8.5430   -3.0320 O.2   116  ARG116     -0.2718
     55  CB        10.6390   -5.6440   -1.2480 C.3   116  ARG116      0.0321
     56  CG        10.6770   -5.1940    0.1850 C.3   116  ARG116      0.0489
     57  CD        11.5240   -3.9700    0.3610 C.3   116  ARG116      0.2205
     58  NE        11.1740   -2.8450   -0.5070 N.pl3 116  ARG116     -0.0865
     59  CZ        10.1210   -2.0290   -0.3750 C.cat 116  ARG116      0.5346
     60  NH1        9.2370   -2.1720    0.6210 N.pl3 116  ARG116      0.1354
     61  NH2        9.9520   -1.0190   -1.2300 N.pl3 116  ARG116      0.1354
     62  N          9.5800   -6.6900   -3.9570 N.am  117  ALA117     -0.1966
     63  CA         9.8450   -7.1700   -5.3160 C.3   117  ALA117      0.1728
     64  C         10.7580   -6.1770   -6.0040 C.2   117  ALA117      0.2616
     65  O         10.4830   -4.9630   -5.9590 O.2   117  ALA117     -0.2715
     66  CB         8.5540   -7.3110   -6.0920 C.3   117  ALA117      0.0334
     67  N         11.8610   -6.6570   -6.6100 N.am  118  VAL118     -0.1963
     68  CA        12.7180   -5.6960   -7.3080 C.3   118  VAL118      0.1727
     69  C         12.0450   -5.3510   -8.6400 C.2   118  VAL118      0.2616
     70  O         11.6100   -6.2520   -9.3490 O.2   118  VAL118     -0.2715
     71  CB        14.1210   -6.2420   -7.5690 C.3   118  VAL118      0.0290
     72  CG1       14.8610   -5.2900   -8.4270 C.3   118  VAL118      0.0023
     73  CG2       14.8490   -6.4480   -6.2920 C.3   118  VAL118      0.0023
     74  N         11.9620   -4.0810   -8.9710 N.am  119  ILE119     -0.1963
     75  CA        11.3540   -3.7100  -10.2330 C.3   119  ILE119      0.1727
     76  C         12.2670   -2.8150  -11.0830 C.2   119  ILE119      0.2616
     77  O         13.2280   -2.2570  -10.5670 O.2   119  ILE119     -0.2715
     78  CB        10.0700   -2.9260  -10.0280 C.3   119  ILE119      0.0290
     79  CG1       10.3470   -1.7110   -9.1010 C.3   119  ILE119      0.0022
     80  CG2        8.9330   -3.9300   -9.6780 C.3   119  ILE119      0.0023
     81  CD1        9.4370   -0.4380   -9.3050 C.3   119  ILE119      0.0001
     82  N         11.8920   -2.6670  -12.3590 N.am  120  HIS120     -0.1973
     83  CA        12.4210   -1.6020  -13.2160 C.3   120  HIS120      0.1656
     84  C         11.5730   -0.3280  -13.2080 C.2   120  HIS120      0.2291
     85  O         10.4250   -0.2890  -13.6840 O.2   120  HIS120     -0.2864
     86  CB        12.6000   -2.2010  -14.6190 C.3   120  HIS120      0.0771
     87  CG        13.7160   -3.2000  -14.7100 C.ar  120  HIS120      0.0820
     88  ND1       13.5070   -4.5680  -14.8060 N.ar  120  HIS120     -0.2267
     89  CD2       15.0580   -3.0220  -14.7360 C.ar  120  HIS120      0.1154
     90  CE1       14.6750   -5.1790  -14.8620 C.ar  120  HIS120      0.1986
     91  NE2       15.6280   -4.2670  -14.8000 N.ar  120  HIS120     -0.2212
     92  N          9.9880    1.4890  -16.5110 N.3   123  LYS123     -0.1231
     93  CA         8.9520    0.5840  -17.0100 C.3   123  LYS123      0.1693
     94  C          7.7230    0.5450  -16.0790 C.2   123  LYS123      0.2592
     95  O          6.5880    0.7380  -16.5170 O.2   123  LYS123     -0.2718
     96  CB         9.5510   -0.8080  -17.1660 C.3   123  LYS123      0.0285
     97  CG         8.6190   -1.8540  -17.6660 C.3   123  LYS123      0.0035
     98  CD         9.0410   -3.1430  -17.0540 C.3   123  LYS123      0.0206
     99  CE        10.3800   -3.5300  -17.5630 C.3   123  LYS123      0.1093
    100  NZ        10.6200   -2.9520  -18.9250 N.3   123  LYS123     -0.1314
    101  N          7.9490    0.3020  -14.7970 N.am  124  PHE124     -0.1976
    102  CA         6.8650    0.2890  -13.8360 C.3   124  PHE124      0.1639
    103  C          6.1000    1.6390  -13.7420 C.2   124  PHE124      0.2290
    104  O          4.8440    1.6390  -13.7120 O.2   124  PHE124     -0.2864
    105  CB         7.3520   -0.2510  -12.4640 C.3   124  PHE124      0.0560
    106  CG         6.2210   -0.4230  -11.4820 C.ar  124  PHE124     -0.0200
    107  CD1        5.5670   -1.6320  -11.4030 C.ar  124  PHE124     -0.0042
    108  CD2        5.7590    0.6800  -10.7310 C.ar  124  PHE124     -0.0042
    109  CE1        4.4740   -1.7970  -10.5300 C.ar  124  PHE124     -0.0003
    110  CE2        4.6780    0.5620   -9.8530 C.ar  124  PHE124     -0.0003
    111  CZ         4.0200   -0.7040   -9.7510 C.ar  124  PHE124     -0.0000
    112  N          3.4980    1.8920  -16.6370 N.3   127  LYS127     -0.1245
    113  CA         2.3210    1.0760  -16.2770 C.3   127  LYS127      0.1561
    114  C          1.3530    1.8040  -15.3250 C.2   127  LYS127      0.2260
    115  O          0.1040    1.7980  -15.5420 O.2   127  LYS127     -0.2867
    116  CB         2.7510   -0.2690  -15.6370 C.3   127  LYS127      0.0271
    117  CG         3.0320   -1.4980  -16.5840 C.3   127  LYS127      0.0035
    118  CD         1.9330   -2.6100  -16.2990 C.3   127  LYS127      0.0206
    119  CE         1.9370   -3.8860  -17.2630 C.3   127  LYS127      0.1093
    120  NZ         1.4030   -3.7350  -18.6740 N.3   127  LYS127     -0.1314
    121  N         -2.6300    3.1900  -15.9150 N.3   131  LYS131     -0.1245
    122  CA        -3.6820    2.7830  -15.0400 C.3   131  LYS131      0.1561
    123  C         -4.3170    3.9090  -14.2670 C.2   131  LYS131      0.2260
    124  O         -5.2560    3.6970  -13.5830 O.2   131  LYS131     -0.2867
    125  CB        -3.1860    1.7000  -14.0890 C.3   131  LYS131      0.0271
    126  CG        -4.2490    1.0850  -13.2280 C.3   131  LYS131      0.0035
    127  CD        -3.7070    0.1320  -12.2010 C.3   131  LYS131      0.0206
    128  CE        -4.6820   -0.1510  -11.0790 C.3   131  LYS131      0.1093
    129  NZ        -4.5150   -1.5010  -10.5490 N.3   131  LYS131     -0.1314
@<TRIPOS>BOND
     1   100    99    1
     2   120   119    1
     3    97    96    1
     4    97    98    1
     5    99    98    1
     6   119   118    1
     7    96    93    1
     8    93    92    1
     9    93    94    1
    10   112   113    1
    11   117   118    1
    12   117   116    1
    13    95    94    2
    14   113   116    1
    15   113   114    1
    16    94   101   am
    17   121   122    1
    18   115   114    2
    19   122   123    1
    20   122   125    1
    21    90    88   ar
    22    90    91   ar
    23    88    87   ar
    24    91    89   ar
    25   101   102    1
    26    89    87   ar
    27    87    86    1
    28    86    83    1
    29   123   124    2
    30   125   126    1
    31   102   103    1
    32   102   105    1
    33   103   104    2
    34    85    84    2
    35   126   127    1
    36    83    84    1
    37    83    82    1
    38    38    37    1
    39   105   106    1
    40    82    76   am
    41   127   128    1
    42    37    39    1
    43    37    36    2
    44   106   107   ar
    45   106   108   ar
    46    36    35    1
    47    35    34    1
    48   107   109   ar
    49    76    77    2
    50    76    75    1
    51   128   129    1
    52   108   110   ar
    53   109   111   ar
    54    34    33    1
    55    75    78    1
    56    75    74    1
    57    78    80    1
    58    78    79    1
    59   110   111   ar
    60    70    69    2
    61    81    79    1
    62    33    30    1
    63    74    69   am
    64    69    68    1
    65    72    71    1
    66    29    30    1
    67    30    31    1
    68    71    68    1
    69    71    73    1
    70    68    67    1
    71    16    15    1
    72    49    48    1
    73    67    64   am
    74    31    32    2
    75    31    40   am
    76    15    17    1
    77    15    14    1
    78    66    63    1
    79    64    65    2
    80    64    63    1
    81    40    41    1
    82    48    47    2
    83    48    50    1
    84    46    45    1
    85    46    47    1
    86    63    62    1
    87    45    44    1
    88    14    11    1
    89    10    11    1
    90    41    44    1
    91    41    42    1
    92    28    26    1
    93    11    12    1
    94    62    53   am
    95    42    43    2
    96    13    12    2
    97    54    53    2
    98    53    52    1
    99    12    18   am
   100    26    27    1
   101    26    23    1
   102    21    20    2
   103    18    19    1
   104    23    22    1
   105    23    24    1
   106    52    55    1
   107    52    51    1
   108    20    22   am
   109    20    19    1
   110    55    56    1
   111    61    59    1
   112    25    24    2
   113    58    59    2
   114    58    57    1
   115    59    60    1
   116    56    57    1
   117     8     7   ar
   118     9     7   ar
   119     7     6    1
   120     4     3    2
   121     5     6    1
   122     5     2    1
   123     3     2    1
   124     2     1    1
