@<TRIPOS>MOLECULE
tmp/3kvuC00.pdb
 91 86 0 0 0
SMALL
GASTEIGER

@<TRIPOS>ATOM
      1  N         23.0910   27.5760   39.2280 N.3    46  GLU46      -0.1245
      2  CA        23.4940   27.4670   37.8440 C.3    46  GLU46       0.1567
      3  C         24.6790   28.3430   37.4910 C.2    46  GLU46       0.2260
      4  O         25.4680   28.0360   36.6070 O.2    46  GLU46      -0.2867
      5  CB        22.3810   27.8300   36.9090 C.3    46  GLU46       0.0388
      6  CG        21.0780   27.2060   37.0770 C.3    46  GLU46       0.1160
      7  CD        20.1800   27.5760   35.8980 C.2    46  GLU46       0.3649
      8  OE1       20.6220   27.7070   34.6710 O.co2  46  GLU46      -0.2457
      9  OE2       18.9950   27.7700   36.2290 O.co2  46  GLU46      -0.2457
     10  N         25.7410   27.1570   26.9900 N.3    63  SER63      -0.1202
     11  CA        25.0840   26.0590   27.6500 C.3    63  SER63       0.2020
     12  C         23.7490   26.5300   28.2400 C.2    63  SER63       0.2619
     13  O         23.5410   27.7550   28.4950 O.2    63  SER63      -0.2717
     14  CB        25.9750   25.4940   28.7390 C.3    63  SER63       0.2103
     15  OG        25.9890   26.3880   29.8290 O.3    63  SER63      -0.2182
     16  N         22.8490   25.5680   28.4010 N.am   64  LEU64      -0.1965
     17  CA        21.4890   25.7530   28.8820 C.3    64  LEU64       0.1728
     18  C         21.2980   24.7530   29.9940 C.2    64  LEU64       0.2617
     19  O         21.6920   23.6010   29.7900 O.2    64  LEU64      -0.2715
     20  CB        20.4550   25.3860   27.7800 C.3    64  LEU64       0.0311
     21  CG        20.4170   26.2410   26.5260 C.3    64  LEU64       0.0022
     22  CD1       19.4190   25.7950   25.4940 C.3    64  LEU64       0.0001
     23  CD2       20.1530   27.6630   26.9980 C.3    64  LEU64       0.0001
     24  N         20.6720   25.1520   31.0970 N.am   65  GLY65      -0.1940
     25  CA        20.2620   24.2200   32.1470 C.3    65  GLY65       0.2014
     26  C         19.0970   23.3900   31.5820 C.2    65  GLY65       0.2639
     27  O         18.1140   23.9410   30.9820 O.2    65  GLY65      -0.2714
     28  N         19.2210   22.0670   31.7400 N.am   66  THR66      -0.1950
     29  CA        18.2520   21.1170   31.2970 C.3    66  THR66       0.1897
     30  C         17.6090   20.2970   32.4170 C.2    66  THR66       0.2313
     31  O         16.6350   19.6590   32.1510 O.2    66  THR66      -0.2863
     32  CB        18.8450   20.1310   30.2950 C.3    66  THR66       0.1794
     33  OG1       20.0150   19.5470   30.8570 O.3    66  THR66      -0.2208
     34  CG2       19.2380   20.8900   28.9490 C.3    66  THR66       0.0378
     35  N         27.4540   16.0840   24.9610 N.3    94  ARG94      -0.1231
     36  CA        27.2010   17.5230   25.2400 C.3    94  ARG94       0.1694
     37  C         26.5070   17.7890   26.6170 C.2    94  ARG94       0.2591
     38  O         26.2200   18.9400   26.9660 O.2    94  ARG94      -0.2718
     39  CB        26.3020   18.0470   24.1170 C.3    94  ARG94       0.0321
     40  CG        24.8400   17.7310   24.3880 C.3    94  ARG94       0.0489
     41  CD        23.8050   17.9570   23.3320 C.3    94  ARG94       0.2205
     42  NE        22.8490   16.8320   23.3610 N.pl3  94  ARG94      -0.0865
     43  CZ        23.1930   15.5220   23.4400 C.cat  94  ARG94       0.5346
     44  NH1       22.2380   14.5880   23.4430 N.pl3  94  ARG94       0.1354
     45  NH2       24.4760   15.1330   23.5410 N.pl3  94  ARG94       0.1354
     46  N         26.2730   16.7200   27.3920 N.am   95  ARG95      -0.1980
     47  CA        25.4480   16.7770   28.6410 C.3    95  ARG95       0.1597
     48  C         26.3250   16.6610   29.8920 C.2    95  ARG95       0.2287
     49  O         26.9920   15.6400   30.0920 O.2    95  ARG95      -0.2864
     50  CB        24.4230   15.6250   28.6200 C.3    95  ARG95       0.0334
     51  CG        22.9600   15.8980   28.9800 C.3    95  ARG95       0.0492
     52  CD        22.2780   17.3010   28.5770 C.3    95  ARG95       0.2205
     53  NE        21.4110   17.2350   27.3910 N.pl3  95  ARG95      -0.0865
     54  CZ        20.0700   17.2070   27.3750 C.cat  95  ARG95       0.5346
     55  NH1       19.3490   17.2320   28.4830 N.pl3  95  ARG95       0.1354
     56  NH2       19.4320   17.1600   26.2050 N.pl3  95  ARG95       0.1354
     57  N         23.3350   20.5230   32.5430 N.3   116  ARG116     -0.1231
     58  CA        23.3630   21.4880   31.4530 C.3   116  ARG116      0.1694
     59  C         23.6970   20.8100   30.1670 C.2   116  ARG116      0.2591
     60  O         24.3320   19.6960   30.1880 O.2   116  ARG116     -0.2718
     61  CB        24.4640   22.5010   31.7610 C.3   116  ARG116      0.0321
     62  CG        24.2270   23.1390   33.1100 C.3   116  ARG116      0.0489
     63  CD        25.1500   24.3850   33.3080 C.3   116  ARG116      0.2205
     64  NE        24.7890   25.3980   32.3530 N.pl3 116  ARG116     -0.0865
     65  CZ        23.7520   26.2330   32.4610 C.cat 116  ARG116      0.5346
     66  NH1       22.9370   26.2240   33.4810 N.pl3 116  ARG116      0.1354
     67  NH2       23.5360   27.1230   31.5100 N.pl3 116  ARG116      0.1354
     68  N         23.2840   21.4210   29.0660 N.am  117  ALA117     -0.1980
     69  CA        23.6700   21.0000   27.7350 C.3   117  ALA117      0.1597
     70  C         24.5150   22.0490   27.0040 C.2   117  ALA117      0.2287
     71  O         24.2430   23.2750   27.0940 O.2   117  ALA117     -0.2864
     72  CB        22.4330   20.5380   26.9340 C.3   117  ALA117      0.0319
     73  N         25.6490   24.0730   23.9210 N.3   119  ILE119     -0.1245
     74  CA        24.9640   24.3580   22.6960 C.3   119  ILE119      0.1561
     75  C         25.8680   25.3000   21.8950 C.2   119  ILE119      0.2260
     76  O         26.7740   25.9250   22.4460 O.2   119  ILE119     -0.2867
     77  CB        23.6380   25.0780   22.9620 C.3   119  ILE119      0.0252
     78  CG1       23.8850   26.3460   23.7930 C.3   119  ILE119      0.0019
     79  CG2       22.5580   24.1360   23.5960 C.3   119  ILE119      0.0019
     80  CD1       22.8220   27.2680   23.6540 C.3   119  ILE119      0.0001
     81  N         21.3010   28.1930   18.1670 N.3   124  PHE124     -0.1241
     82  CA        20.1770   28.1850   19.1980 C.3   124  PHE124      0.1605
     83  C         19.3580   29.5110   19.2260 C.2   124  PHE124      0.2264
     84  O         18.1390   29.4720   19.3080 O.2   124  PHE124     -0.2867
     85  CB        20.7350   27.9430   20.5900 C.3   124  PHE124      0.0534
     86  CG        19.6870   27.9480   21.6330 C.ar  124  PHE124     -0.0203
     87  CD1       18.8210   26.8600   21.7700 C.ar  124  PHE124     -0.0042
     88  CD2       19.5050   29.0470   22.4630 C.ar  124  PHE124     -0.0042
     89  CE1       17.7860   26.8410   22.7760 C.ar  124  PHE124     -0.0003
     90  CE2       18.5060   29.0540   23.4940 C.ar  124  PHE124     -0.0003
     91  CZ        17.6320   27.9730   23.6170 C.ar  124  PHE124     -0.0000
@<TRIPOS>BOND
     1    81    82    1
     2    82    83    1
     3    82    85    1
     4    83    84    2
     5    85    86    1
     6    86    87   ar
     7    86    88   ar
     8    87    89   ar
     9    75    76    2
    10    75    74    1
    11    88    90   ar
    12    74    77    1
    13    74    73    1
    14    89    91   ar
    15    77    79    1
    16    77    78    1
    17    41    42    1
    18    41    40    1
    19    42    43    2
    20    43    44    1
    21    43    45    1
    22    90    91   ar
    23    80    78    1
    24    39    40    1
    25    39    36    1
    26    35    36    1
    27    36    37    1
    28    22    21    1
    29    56    54    1
    30    21    23    1
    31    21    20    1
    32    37    38    2
    33    37    46   am
    34    72    69    1
    35    10    11    1
    36    70    71    2
    37    70    69    1
    38    54    53    2
    39    54    55    1
    40    53    52    1
    41    46    47    1
    42    11    12    1
    43    11    14    1
    44    69    68    1
    45    20    17    1
    46    12    16   am
    47    12    13    2
    48    16    17    1
    49    52    51    1
    50    50    47    1
    51    50    51    1
    52    47    48    1
    53    14    15    1
    54    17    18    1
    55    34    32    1
    56    68    59   am
    57    19    18    2
    58    48    49    2
    59    18    24   am
    60    59    60    2
    61    59    58    1
    62    32    33    1
    63    32    29    1
    64    27    26    2
    65    24    25    1
    66    29    28    1
    67    29    30    1
    68    58    61    1
    69    58    57    1
    70    67    65    1
    71    26    28   am
    72    26    25    1
    73    61    62    1
    74    31    30    2
    75    64    65    2
    76    64    63    1
    77    65    66    1
    78    62    63    1
    79     8     7   ar
    80     7     9   ar
    81     7     6    1
    82     4     3    2
    83     5     6    1
    84     5     2    1
    85     3     2    1
    86     2     1    1
