@<TRIPOS>MOLECULE
tmp/3kvuA00.pdb
 85 84 0 0 0
SMALL
GASTEIGER

@<TRIPOS>ATOM
      1  N         -1.5290    7.9570   14.9080 N.3    19  VAL19      -0.1245
      2  CA        -2.7610    7.4880   14.2830 C.3    19  VAL19       0.1561
      3  C         -3.5700    8.5270   13.5210 C.2    19  VAL19       0.2260
      4  O         -3.9810    8.2930   12.4570 O.2    19  VAL19      -0.2867
      5  CB        -3.6900    6.8610   15.3220 C.3    19  VAL19       0.0252
      6  CG1       -4.9650    6.4900   14.7110 C.3    19  VAL19       0.0019
      7  CG2       -3.0650    5.7060   15.9890 C.3    19  VAL19       0.0019
      8  N        -10.3830    7.8820   13.6250 N.3    29  PHE29      -0.1241
      9  CA        -8.9710    8.0070   14.0310 C.3    29  PHE29       0.1605
     10  C         -8.7210    9.3150   14.7370 C.2    29  PHE29       0.2264
     11  O         -7.8030    9.3730   15.5310 O.2    29  PHE29      -0.2867
     12  CB        -7.9130    7.8820   12.9090 C.3    29  PHE29       0.0534
     13  CG        -7.7790    6.5300   12.3470 C.ar   29  PHE29      -0.0203
     14  CD1       -8.2290    5.4500   13.0060 C.ar   29  PHE29      -0.0042
     15  CD2       -7.1770    6.3430   11.0930 C.ar   29  PHE29      -0.0042
     16  CE1       -8.1310    4.1790   12.4480 C.ar   29  PHE29      -0.0003
     17  CE2       -7.0700    5.0720   10.5170 C.ar   29  PHE29      -0.0003
     18  CZ        -7.5260    3.9860   11.1890 C.ar   29  PHE29      -0.0000
     19  N         -8.2890    9.0400   18.5790 N.3    32  PHE32      -0.1241
     20  CA        -7.4040    7.9800   19.0460 C.3    32  PHE32       0.1605
     21  C         -6.3220    8.5650   19.9790 C.2    32  PHE32       0.2264
     22  O         -6.0570    9.7440   19.8980 O.2    32  PHE32      -0.2867
     23  CB        -6.7510    7.3050   17.8390 C.3    32  PHE32       0.0534
     24  CG        -7.3620    5.9590   17.4630 C.ar   32  PHE32      -0.0203
     25  CD1       -8.6780    5.8600   17.0680 C.ar   32  PHE32      -0.0042
     26  CD2       -6.5700    4.8030   17.4440 C.ar   32  PHE32      -0.0042
     27  CE1       -9.2180    4.6170   16.7140 C.ar   32  PHE32      -0.0003
     28  CE2       -7.0900    3.5750   17.1270 C.ar   32  PHE32      -0.0003
     29  CZ        -8.4310    3.4850   16.7440 C.ar   32  PHE32      -0.0000
     30  N         -0.3850    7.8970   19.7160 N.3    35  VAL35      -0.1231
     31  CA         0.6790    6.9270   19.6210 C.3    35  VAL35       0.1692
     32  C          0.9690    6.6990   18.1290 C.2    35  VAL35       0.2592
     33  O          0.1560    7.0880   17.2840 O.2    35  VAL35      -0.2718
     34  CB         0.4050    5.6190   20.3630 C.3    35  VAL35       0.0266
     35  CG1        0.2580    5.9240   21.8560 C.3    35  VAL35       0.0020
     36  CG2       -0.8450    4.8560   19.7880 C.3    35  VAL35       0.0020
     37  N          2.1830    6.1780   17.8660 N.am   36  PHE36      -0.1962
     38  CA         2.6920    5.7010   16.5860 C.3    36  PHE36       0.1771
     39  C          1.7320    4.7070   15.8910 C.2    36  PHE36       0.2619
     40  O          1.5050    3.5700   16.3520 O.2    36  PHE36      -0.2715
     41  CB         4.0580    5.0160   16.8530 C.3    36  PHE36       0.0574
     42  CG         5.0030    4.8990   15.6250 C.ar   36  PHE36      -0.0200
     43  CD1        5.1030    5.9090   14.6640 C.ar   36  PHE36      -0.0042
     44  CD2        5.8460    3.7930   15.5060 C.ar   36  PHE36      -0.0042
     45  CE1        5.9980    5.7800   13.5430 C.ar   36  PHE36      -0.0003
     46  CE2        6.7240    3.6750   14.3970 C.ar   36  PHE36      -0.0003
     47  CZ         6.7840    4.6970   13.4190 C.ar   36  PHE36      -0.0000
     48  N          1.1960    5.1260   14.7510 N.am   37  ALA37      -0.1963
     49  CA         0.2500    4.3030   14.0300 C.3    37  ALA37       0.1728
     50  C          0.8490    2.9380   13.4890 C.2    37  ALA37       0.2616
     51  O          2.0400    2.8700   13.1460 O.2    37  ALA37      -0.2715
     52  CB        -0.3160    5.1370   12.9710 C.3    37  ALA37       0.0334
     53  N          0.0720    1.8670   13.3750 N.am   38  SER38      -0.1950
     54  CA         0.5840    0.6380   12.7210 C.3    38  SER38       0.1924
     55  C          1.0690    0.8650   11.2780 C.2    38  SER38       0.2314
     56  O          2.0380    0.2650   10.8550 O.2    38  SER38      -0.2863
     57  CB        -0.4160   -0.5080   12.7340 C.3    38  SER38       0.2116
     58  OG        -0.5630   -1.0180   14.0650 O.3    38  SER38      -0.2180
     59  N          1.9180   -5.6520   16.3900 N.3    72  HIS72      -0.1226
     60  CA         2.1840   -4.4000   16.9630 C.3    72  HIS72       0.1752
     61  C          1.8100   -4.6780   18.4700 C.2    72  HIS72       0.2597
     62  O          0.6350   -4.6470   18.8890 O.2    72  HIS72      -0.2718
     63  CB         1.3320   -3.3480   16.2900 C.3    72  HIS72       0.0759
     64  CG         1.8270   -1.9630   16.5410 C.ar   72  HIS72       0.0818
     65  ND1        1.3470   -0.8650   15.8650 N.ar   72  HIS72      -0.2268
     66  CD2        2.8090   -1.5090   17.3640 C.ar   72  HIS72       0.1154
     67  CE1        1.9610    0.2220   16.3090 C.ar   72  HIS72       0.1986
     68  NE2        2.8500   -0.1480   17.2260 N.ar   72  HIS72      -0.2212
     69  N          2.8230   -5.0050   19.2610 N.am   73  THR73      -0.1939
     70  CA         2.6190   -5.4960   20.6180 C.3    73  THR73       0.2028
     71  C          2.8220   -4.5620   21.8040 C.2    73  THR73       0.2642
     72  O          2.5720   -4.9690   22.9390 O.2    73  THR73      -0.2714
     73  CB         3.4130   -6.7670   20.8110 C.3    73  THR73       0.1808
     74  OG1        4.8070   -6.4680   20.6640 O.3    73  THR73      -0.2208
     75  CG2        3.0200   -7.6540   19.7290 C.3    73  THR73       0.0379
     76  N          3.2330   -3.3250   21.5360 N.am   74  ALA74      -0.1963
     77  CA         3.2990   -2.2950   22.5410 C.3    74  ALA74       0.1728
     78  C          3.2470   -0.9880   21.8020 C.2    74  ALA74       0.2616
     79  O          3.3790   -0.9480   20.5840 O.2    74  ALA74      -0.2715
     80  CB         4.5840   -2.4250   23.3780 C.3    74  ALA74       0.0334
     81  N          3.0650    0.0960   22.5210 N.am   75  ALA75      -0.1977
     82  CA         2.6360    1.3130   21.9250 C.3    75  ALA75       0.1597
     83  C          3.6170    2.4960   22.1860 C.2    75  ALA75       0.2287
     84  O          4.3210    2.5080   23.2220 O.2    75  ALA75      -0.2864
     85  CB         1.2150    1.6050   22.4200 C.3    75  ALA75       0.0319
@<TRIPOS>BOND
     1    17    15   ar
     2    17    18   ar
     3    56    55    2
     4    15    13   ar
     5    18    16   ar
     6    55    54    1
     7    13    12    1
     8    13    14   ar
     9    16    14   ar
    10     4     3    2
    11    54    57    1
    12    54    53    1
    13    57    58    1
    14    12     9    1
    15    52    49    1
    16    51    50    2
    17    53    50   am
    18    47    45   ar
    19    47    46   ar
    20    50    49    1
    21     3     2    1
    22    45    43   ar
    23     8     9    1
    24    49    48    1
    25     9    10    1
    26     2     1    1
    27     2     5    1
    28    46    44   ar
    29    43    42   ar
    30     6     5    1
    31    10    11    2
    32    48    39   am
    33     5     7    1
    34    44    42   ar
    35    42    41    1
    36    65    67   ar
    37    65    64   ar
    38    39    40    2
    39    39    38    1
    40    63    64    1
    41    63    60    1
    42    67    68   ar
    43    59    60    1
    44    64    66   ar
    45    38    41    1
    46    38    37    1
    47    27    29   ar
    48    27    25   ar
    49    29    28   ar
    50    60    61    1
    51    25    24   ar
    52    28    26   ar
    53    68    66   ar
    54    33    32    2
    55    26    24   ar
    56    24    23    1
    57    23    20    1
    58    37    32   am
    59    32    31    1
    60    61    62    2
    61    61    69   am
    62    19    20    1
    63    20    21    1
    64    69    70    1
    65    31    30    1
    66    31    34    1
    67    75    73    1
    68    36    34    1
    69    22    21    2
    70    34    35    1
    71    79    78    2
    72    70    73    1
    73    70    71    1
    74    74    73    1
    75    76    71   am
    76    76    77    1
    77    78    81   am
    78    78    77    1
    79    71    72    2
    80    82    83    1
    81    82    85    1
    82    82    81    1
    83    83    84    2
    84    77    80    1
