@<TRIPOS>MOLECULE
tmp/3kvvC01.pdb
 86 80 0 0 0
SMALL
GASTEIGER

@<TRIPOS>ATOM
      1  N        126.3620   33.8330  -67.5240 N.3    23  GLY23      -0.1225
      2  CA       127.4260   32.8520  -67.6790 C.3    23  GLY23       0.1811
      3  C        128.7330   33.4800  -68.1490 C.2    23  GLY23       0.2280
      4  O        129.8050   33.1450  -67.6570 O.2    23  GLY23      -0.2866
      5  N        130.7790   31.7710  -65.2450 N.3    65  GLY65      -0.1210
      6  CA       131.4060   30.8510  -66.1810 C.3    65  GLY65       0.1956
      7  C        130.4170   29.7870  -66.6330 C.2    65  GLY65       0.2611
      8  O        129.2490   29.8090  -66.2570 O.2    65  GLY65      -0.2717
      9  N        130.8790   28.8510  -67.4520 N.am   66  ILE66      -0.1979
     10  CA       130.0270   27.7500  -67.9010 C.3    66  ILE66       0.1595
     11  C        130.0390   26.5860  -66.9140 C.2    66  ILE66       0.2287
     12  O        131.1030   26.1780  -66.4360 O.2    66  ILE66      -0.2864
     13  CB       130.4960   27.2330  -69.2650 C.3    66  ILE66       0.0276
     14  CG1      130.1640   28.2480  -70.3610 C.3    66  ILE66       0.0022
     15  CG2      129.8900   25.8520  -69.5560 C.3    66  ILE66       0.0022
     16  CD1      130.9040   27.9900  -71.6850 C.3    66  ILE66       0.0001
     17  N        119.6310   34.4480  -62.8880 N.3    88  ARG88      -0.1245
     18  CA       120.4790   34.0450  -63.9930 C.3    88  ARG88       0.1563
     19  C        119.8670   34.5500  -65.2870 C.2    88  ARG88       0.2260
     20  O        118.6530   34.4660  -65.4860 O.2    88  ARG88      -0.2867
     21  CB       120.6810   32.5230  -64.0430 C.3    88  ARG88       0.0307
     22  CG       121.6260   32.1010  -65.1800 C.3    88  ARG88       0.0489
     23  CD       122.0760   30.6450  -65.0800 C.3    88  ARG88       0.2205
     24  NE       121.9290   29.9940  -66.3770 N.pl3  88  ARG88      -0.0865
     25  CZ       122.6590   30.2940  -67.4400 C.cat  88  ARG88       0.5346
     26  NH1      123.6160   31.2210  -67.3510 N.pl3  88  ARG88       0.1354
     27  NH2      122.4370   29.6660  -68.5850 N.pl3  88  ARG88       0.1354
     28  N        121.9290   32.1420  -72.3680 N.3    91  THR91      -0.1203
     29  CA       121.5940   31.7870  -73.7470 C.3    91  THR91       0.1994
     30  C        121.2820   30.3110  -73.7630 C.2    91  THR91       0.2618
     31  O        121.7600   29.5610  -72.8950 O.2    91  THR91      -0.2717
     32  CB       122.7700   32.0220  -74.7020 C.3    91  THR91       0.1784
     33  OG1      123.9220   31.3070  -74.2220 O.3    91  THR91      -0.2211
     34  CG2      123.0910   33.5080  -74.8010 C.3    91  THR91       0.0376
     35  N        120.4770   29.8870  -74.7370 N.am   92  THR92      -0.1952
     36  CA       119.9640   28.5230  -74.7440 C.3    92  THR92       0.1897
     37  C        119.6120   28.0200  -76.1410 C.2    92  THR92       0.2313
     38  O        119.3460   28.8010  -77.0490 O.2    92  THR92      -0.2863
     39  CB       118.6850   28.4100  -73.8980 C.3    92  THR92       0.1794
     40  OG1      117.7590   29.4410  -74.3010 O.3    92  THR92      -0.2208
     41  CG2      119.0010   28.5680  -72.4290 C.3    92  THR92       0.0378
     42  N        127.7490   20.3420  -73.1690 N.3   159  PHE159     -0.1241
     43  CA       127.1560   20.9990  -74.3350 C.3   159  PHE159      0.1605
     44  C        126.8470   19.9680  -75.4170 C.2   159  PHE159      0.2264
     45  O        125.8780   20.1170  -76.1680 O.2   159  PHE159     -0.2867
     46  CB       128.1180   22.0570  -74.8880 C.3   159  PHE159      0.0534
     47  CG       127.5400   22.8850  -76.0080 C.ar  159  PHE159     -0.0203
     48  CD1      126.7540   23.9910  -75.7270 C.ar  159  PHE159     -0.0042
     49  CD2      127.7990   22.5690  -77.3410 C.ar  159  PHE159     -0.0042
     50  CE1      126.2290   24.7720  -76.7590 C.ar  159  PHE159     -0.0003
     51  CE2      127.2600   23.3460  -78.3850 C.ar  159  PHE159     -0.0003
     52  CZ       126.4830   24.4440  -78.0850 C.ar  159  PHE159     -0.0000
     53  N        120.2580   24.2460  -71.2630 N.3   193  GLU193     -0.1231
     54  CA       121.3830   25.1360  -70.9470 C.3   193  GLU193      0.1699
     55  C        122.2070   24.4140  -69.8930 C.2   193  GLU193      0.2592
     56  O        122.0020   23.2130  -69.6920 O.2   193  GLU193     -0.2718
     57  CB       120.9200   26.5320  -70.5080 C.3   193  GLU193      0.0402
     58  CG       119.9150   26.5440  -69.3750 C.3   193  GLU193      0.1161
     59  CD       120.5310   26.2910  -68.0160 C.2   193  GLU193      0.3649
     60  OE1      121.2630   27.1700  -67.5150 O.co2 193  GLU193     -0.2457
     61  OE2      120.2600   25.2200  -67.4310 O.co2 193  GLU193     -0.2457
     62  N        123.1470   25.0970  -69.2370 N.am  194  MET194     -0.1965
     63  CA       124.1430   24.3440  -68.4590 C.3   194  MET194      0.1736
     64  C        124.3950   24.7610  -67.0030 C.2   194  MET194      0.2616
     65  O        125.3050   24.2160  -66.3750 O.2   194  MET194     -0.2715
     66  CB       125.4750   24.2610  -69.2220 C.3   194  MET194      0.0427
     67  CG       125.3510   23.5730  -70.5730 C.3   194  MET194      0.0599
     68  SD       126.8680   23.6420  -71.5380 S.3   194  MET194     -0.1393
     69  CE       127.9590   22.7350  -70.4350 C.3   194  MET194      0.0692
     70  N        123.6070   25.6860  -66.4530 N.am  195  GLU195     -0.1977
     71  CA       123.8470   26.1260  -65.0700 C.3   195  GLU195      0.1602
     72  C        122.6220   26.1090  -64.1460 C.2   195  GLU195      0.2287
     73  O        122.7710   26.1450  -62.9220 O.2   195  GLU195     -0.2864
     74  CB       124.4430   27.5440  -65.0330 C.3   195  GLU195      0.0415
     75  CG       125.8060   27.7000  -65.6720 C.3   195  GLU195      0.1163
     76  CD       125.7430   27.7240  -67.1930 C.2   195  GLU195      0.3649
     77  OE1      124.7490   28.2400  -67.7560 O.co2 195  GLU195     -0.2457
     78  OE2      126.6880   27.2140  -67.8170 O.co2 195  GLU195     -0.2457
     79  N        119.0780   31.2850  -78.6680 N.3   217  ILE217     -0.1245
     80  CA       120.0190   31.5910  -79.7550 C.3   217  ILE217      0.1561
     81  C        120.1610   30.4750  -80.7910 C.2   217  ILE217      0.2260
     82  O        120.7860   30.6620  -81.8340 O.2   217  ILE217     -0.2867
     83  CB       121.4200   31.9570  -79.2390 C.3   217  ILE217      0.0252
     84  CG1      122.0550   30.7550  -78.5240 C.3   217  ILE217      0.0019
     85  CG2      121.3530   33.1760  -78.3500 C.3   217  ILE217      0.0019
     86  CD1      123.5670   30.8700  -78.3400 C.3   217  ILE217      0.0001
@<TRIPOS>BOND
     1    82    81    2
     2    81    80    1
     3    80    83    1
     4    80    79    1
     5    83    84    1
     6    83    85    1
     7    84    86    1
     8    51    52   ar
     9    51    49   ar
    10    52    50   ar
    11    49    47   ar
    12    38    37    2
    13    50    48   ar
    14    45    44    2
    15    37    36    1
    16    47    48   ar
    17    47    46    1
    18    44    43    1
    19    46    43    1
    20    34    32    1
    21    36    35    1
    22    36    39    1
    23    35    30   am
    24    32    33    1
    25    32    29    1
    26    43    42    1
    27    40    39    1
    28    39    41    1
    29    30    29    1
    30    30    31    2
    31    29    28    1
    32    16    14    1
    33    68    67    1
    34    68    69    1
    35    53    54    1
    36    54    57    1
    37    54    55    1
    38    67    66    1
    39    57    58    1
    40    14    13    1
    41    55    56    2
    42    55    62   am
    43    15    13    1
    44    58    59    1
    45    13    10    1
    46    62    63    1
    47    66    63    1
    48    27    25    1
    49    63    64    1
    50     3     2    1
    51     3     4    2
    52    59    60   ar
    53    59    61   ar
    54    10     9    1
    55    10    11    1
    56    78    76   ar
    57    77    76   ar
    58     2     1    1
    59     9     7   am
    60    25    26    1
    61    25    24    2
    62    76    75    1
    63    64    70   am
    64    64    65    2
    65    11    12    2
    66     7     8    2
    67     7     6    1
    68    70    71    1
    69    24    23    1
    70     6     5    1
    71    75    74    1
    72    20    19    2
    73    19    18    1
    74    22    23    1
    75    22    21    1
    76    71    74    1
    77    71    72    1
    78    72    73    2
    79    21    18    1
    80    18    17    1
