@<TRIPOS>MOLECULE
tmp/3kvvC00.pdb
 104 99 0 0 0
SMALL
GASTEIGER

@<TRIPOS>ATOM
      1  N        121.9290   32.1420  -72.3680 N.3    91  THR91      -0.1203
      2  CA       121.5940   31.7870  -73.7470 C.3    91  THR91       0.1994
      3  C        121.2820   30.3110  -73.7630 C.2    91  THR91       0.2619
      4  O        121.7600   29.5610  -72.8950 O.2    91  THR91      -0.2717
      5  CB       122.7700   32.0220  -74.7020 C.3    91  THR91       0.1784
      6  OG1      123.9220   31.3070  -74.2220 O.3    91  THR91      -0.2211
      7  CG2      123.0910   33.5080  -74.8010 C.3    91  THR91       0.0376
      8  N        120.4770   29.8870  -74.7370 N.am   92  THR92      -0.1938
      9  CA       119.9640   28.5230  -74.7440 C.3    92  THR92       0.2028
     10  C        119.6120   28.0200  -76.1410 C.2    92  THR92       0.2642
     11  O        119.3460   28.8010  -77.0490 O.2    92  THR92      -0.2714
     12  CB       118.6850   28.4100  -73.8980 C.3    92  THR92       0.1808
     13  OG1      117.7590   29.4410  -74.3010 O.3    92  THR92      -0.2208
     14  CG2      119.0010   28.5680  -72.4290 C.3    92  THR92       0.0379
     15  N        119.6010   26.7020  -76.2950 N.am   93  GLY93      -0.1954
     16  CA       119.0680   26.1050  -77.5030 C.3    93  GLY93       0.1869
     17  C        117.6760   25.5960  -77.2010 C.2    93  GLY93       0.2309
     18  O        117.5330   24.7330  -76.3540 O.2    93  GLY93      -0.2863
     19  N        127.7490   20.3420  -73.1690 N.3   159  PHE159     -0.1241
     20  CA       127.1560   20.9990  -74.3350 C.3   159  PHE159      0.1605
     21  C        126.8470   19.9680  -75.4170 C.2   159  PHE159      0.2264
     22  O        125.8780   20.1170  -76.1680 O.2   159  PHE159     -0.2867
     23  CB       128.1180   22.0570  -74.8880 C.3   159  PHE159      0.0534
     24  CG       127.5400   22.8850  -76.0080 C.ar  159  PHE159     -0.0203
     25  CD1      126.7540   23.9910  -75.7270 C.ar  159  PHE159     -0.0042
     26  CD2      127.7990   22.5690  -77.3410 C.ar  159  PHE159     -0.0042
     27  CE1      126.2290   24.7720  -76.7590 C.ar  159  PHE159     -0.0003
     28  CE2      127.2600   23.3460  -78.3850 C.ar  159  PHE159     -0.0003
     29  CZ       126.4830   24.4440  -78.0850 C.ar  159  PHE159     -0.0000
     30  N        123.4080   17.0310  -74.4610 N.3   163  GLN163     -0.1245
     31  CA       122.3550   17.6700  -75.2560 C.3   163  GLN163      0.1566
     32  C        122.1050   16.8730  -76.5270 C.2   163  GLN163      0.2260
     33  O        121.4920   17.3520  -77.4840 O.2   163  GLN163     -0.2867
     34  CB       122.7160   19.1360  -75.5280 C.3   163  GLN163      0.0367
     35  CG       122.9660   19.8700  -74.2060 C.3   163  GLN163      0.0905
     36  CD       123.1370   21.3740  -74.3610 C.2   163  GLN163      0.2608
     37  OE1      122.6630   21.9860  -75.3310 O.2   163  GLN163     -0.2717
     38  NE2      123.8100   21.9850  -73.3820 N.am  163  GLN163     -0.0878
     39  N        123.9760   15.9450  -79.0010 N.3   165  ARG165     -0.1245
     40  CA       124.6090   16.3440  -80.2540 C.3   165  ARG165      0.1563
     41  C        125.4940   15.2160  -80.7840 C.2   165  ARG165      0.2260
     42  O        126.2910   14.6490  -80.0380 O.2   165  ARG165     -0.2867
     43  CB       125.4710   17.5820  -80.0310 C.3   165  ARG165      0.0307
     44  CG       124.6840   18.8330  -79.6530 C.3   165  ARG165      0.0489
     45  CD       125.5690   20.0510  -79.7520 C.3   165  ARG165      0.2205
     46  NE       124.7930   21.2310  -80.1070 N.pl3 165  ARG165     -0.0865
     47  CZ       124.1370   21.9680  -79.2190 C.cat 165  ARG165      0.5346
     48  NH1      124.1850   21.6490  -77.9230 N.pl3 165  ARG165      0.1354
     49  NH2      123.4360   23.0170  -79.6230 N.pl3 165  ARG165      0.1354
     50  N        117.6670   23.4740  -73.5750 N.3   192  TYR192     -0.1227
     51  CA       118.8450   23.0520  -72.8370 C.3   192  TYR192      0.1736
     52  C        119.6800   24.2630  -72.4570 C.2   192  TYR192      0.2595
     53  O        119.8420   25.1750  -73.2620 O.2   192  TYR192     -0.2718
     54  CB       119.7730   22.2460  -73.7460 C.3   192  TYR192      0.0548
     55  CG       119.4180   20.8030  -74.0180 C.ar  192  TYR192     -0.0200
     56  CD1      119.0680   20.3960  -75.2990 C.ar  192  TYR192     -0.0009
     57  CD2      119.4830   19.8440  -73.0180 C.ar  192  TYR192     -0.0009
     58  CE1      118.7660   19.0780  -75.5720 C.ar  192  TYR192      0.0417
     59  CE2      119.1850   18.5100  -73.2800 C.ar  192  TYR192      0.0417
     60  CZ       118.8400   18.1350  -74.5770 C.ar  192  TYR192      0.1957
     61  OH       118.5310   16.8270  -74.8830 O.3   192  TYR192     -0.2866
     62  N        120.2580   24.2460  -71.2630 N.am  193  GLU193     -0.1965
     63  CA       121.3830   25.1360  -70.9470 C.3   193  GLU193      0.1733
     64  C        122.2070   24.4140  -69.8930 C.2   193  GLU193      0.2616
     65  O        122.0020   23.2130  -69.6920 O.2   193  GLU193     -0.2715
     66  CB       120.9200   26.5320  -70.5080 C.3   193  GLU193      0.0429
     67  CG       119.9150   26.5440  -69.3750 C.3   193  GLU193      0.1163
     68  CD       120.5310   26.2910  -68.0160 C.2   193  GLU193      0.3649
     69  OE1      121.2630   27.1700  -67.5150 O.co2 193  GLU193     -0.2457
     70  OE2      120.2600   25.2200  -67.4310 O.co2 193  GLU193     -0.2457
     71  N        123.1470   25.0970  -69.2370 N.am  194  MET194     -0.1977
     72  CA       124.1430   24.3440  -68.4590 C.3   194  MET194      0.1605
     73  C        124.3950   24.7610  -67.0030 C.2   194  MET194      0.2287
     74  O        125.3050   24.2160  -66.3750 O.2   194  MET194     -0.2864
     75  CB       125.4750   24.2610  -69.2220 C.3   194  MET194      0.0413
     76  CG       125.3510   23.5730  -70.5730 C.3   194  MET194      0.0598
     77  SD       126.8680   23.6420  -71.5380 S.3   194  MET194     -0.1393
     78  CE       127.9590   22.7350  -70.4350 C.3   194  MET194      0.0692
     79  N        119.0780   31.2850  -78.6680 N.3   217  ILE217     -0.1231
     80  CA       120.0190   31.5910  -79.7550 C.3   217  ILE217      0.1692
     81  C        120.1610   30.4750  -80.7910 C.2   217  ILE217      0.2591
     82  O        120.7860   30.6620  -81.8340 O.2   217  ILE217     -0.2718
     83  CB       121.4200   31.9570  -79.2390 C.3   217  ILE217      0.0266
     84  CG1      122.0550   30.7550  -78.5240 C.3   217  ILE217      0.0019
     85  CG2      121.3530   33.1760  -78.3500 C.3   217  ILE217      0.0020
     86  CD1      123.5670   30.8700  -78.3400 C.3   217  ILE217      0.0001
     87  N        119.6060   29.3040  -80.4970 N.am  218  VAL218     -0.1980
     88  CA       119.4630   28.2740  -81.5160 C.3   218  VAL218      0.1595
     89  C        118.2070   27.4430  -81.2640 C.2   218  VAL218      0.2287
     90  O        117.7680   27.3000  -80.1240 O.2   218  VAL218     -0.2864
     91  CB       120.7040   27.3530  -81.6080 C.3   218  VAL218      0.0276
     92  CG1      120.8720   26.5390  -80.3430 C.3   218  VAL218      0.0022
     93  CG2      120.5820   26.4200  -82.8080 C.3   218  VAL218      0.0022
     94  N        117.1050   23.6060  -81.9610 N.3   220  ARG220     -0.1245
     95  CA       117.6440   22.3200  -82.3730 C.3   220  ARG220      0.1563
     96  C        116.7920   21.6780  -83.4740 C.2   220  ARG220      0.2260
     97  O        117.2650   20.8040  -84.1980 O.2   220  ARG220     -0.2867
     98  CB       117.7670   21.3890  -81.1610 C.3   220  ARG220      0.0307
     99  CG       118.8040   21.8510  -80.1360 C.3   220  ARG220      0.0489
    100  CD       120.2220   21.6630  -80.6710 C.3   220  ARG220      0.2205
    101  NE       120.4840   20.2620  -80.9880 N.pl3 220  ARG220     -0.0865
    102  CZ       120.8660   19.3650  -80.0840 C.cat 220  ARG220      0.5346
    103  NH1      121.0340   19.7420  -78.8270 N.pl3 220  ARG220      0.1354
    104  NH2      121.0750   18.0980  -80.4260 N.pl3 220  ARG220      0.1354
@<TRIPOS>BOND
     1    97    96    2
     2    96    95    1
     3    93    91    1
     4    95    94    1
     5    95    98    1
     6    82    81    2
     7    91    88    1
     8    91    92    1
     9    88    89    1
    10    88    87    1
    11    89    90    2
    12    98    99    1
    13   101   100    1
    14   101   102    2
    15    81    87   am
    16    81    80    1
    17    41    40    1
    18    41    42    2
    19   100    99    1
    20   104   102    1
    21    40    43    1
    22    40    39    1
    23    46    45    1
    24    46    47    2
    25   102   103    1
    26    43    44    1
    27    80    83    1
    28    80    79    1
    29    45    44    1
    30    49    47    1
    31    83    84    1
    32    83    85    1
    33    47    48    1
    34    84    86    1
    35    28    29   ar
    36    28    26   ar
    37    29    27   ar
    38    16    17    1
    39    16    15    1
    40    33    32    2
    41    26    24   ar
    42    17    18    2
    43    11    10    2
    44    27    25   ar
    45    32    31    1
    46    15    10   am
    47    22    21    2
    48    10     9    1
    49    24    25   ar
    50    24    23    1
    51    58    56   ar
    52    58    60   ar
    53    34    31    1
    54    34    35    1
    55    21    20    1
    56    37    36    2
    57    56    55   ar
    58    31    30    1
    59    23    20    1
    60    61    60    1
    61     7     5    1
    62     9     8    1
    63     9    12    1
    64     8     3   am
    65     5     6    1
    66     5     2    1
    67    60    59   ar
    68    36    35    1
    69    36    38   am
    70    20    19    1
    71    13    12    1
    72    55    54    1
    73    55    57   ar
    74    12    14    1
    75     3     2    1
    76     3     4    2
    77     2     1    1
    78    54    51    1
    79    50    51    1
    80    59    57   ar
    81    53    52    2
    82    51    52    1
    83    52    62   am
    84    77    76    1
    85    77    78    1
    86    62    63    1
    87    63    66    1
    88    63    64    1
    89    76    75    1
    90    66    67    1
    91    64    65    2
    92    64    71   am
    93    67    68    1
    94    71    72    1
    95    75    72    1
    96    72    73    1
    97    68    69   ar
    98    68    70   ar
    99    73    74    2
