@<TRIPOS>MOLECULE
tmp/3kvxA00.pdb
 206 192 0 0 0
SMALL
GASTEIGER

@<TRIPOS>ATOM
      1  N        -30.1910   37.5970   18.5790 N.3    25  ILE25      -0.1231
      2  CA       -30.7570   36.4680   17.8260 C.3    25  ILE25       0.1692
      3  C        -29.7710   35.3310   17.9360 C.2    25  ILE25       0.2593
      4  O        -30.1260   34.1420   17.7860 O.2    25  ILE25      -0.2718
      5  CB       -30.9040   36.8800   16.3570 C.3    25  ILE25       0.0266
      6  CG1      -32.1720   36.3320   15.7330 C.3    25  ILE25       0.0019
      7  CG2      -29.6790   36.4970   15.5260 C.3    25  ILE25       0.0020
      8  CD1      -32.1600   36.6130   14.1900 C.3    25  ILE25       0.0001
      9  N        -28.5380   35.7300   18.2680 N.am   26  GLY26      -0.1942
     10  CA       -27.4210   34.8150   18.3390 C.3    26  GLY26       0.2014
     11  C        -26.1000   35.5100   18.1050 C.2    26  GLY26       0.2640
     12  O        -26.0580   36.6560   17.7430 O.2    26  GLY26      -0.2714
     13  N        -25.0150   34.7620   18.2480 N.am   27  SER27      -0.1935
     14  CA       -23.6750   35.3120   18.1280 C.3    27  SER27       0.2055
     15  C        -22.7580   34.3460   17.3610 C.2    27  SER27       0.2644
     16  O        -23.0900   33.1850   17.1510 O.2    27  SER27      -0.2714
     17  CB       -23.1440   35.6220   19.5210 C.3    27  SER27       0.2130
     18  OG       -23.5880   34.6180   20.4100 O.3    27  SER27      -0.2179
     19  N        -21.6560   34.8670   16.8580 N.am   28  GLY28      -0.1939
     20  CA       -20.7270   34.0610   16.1050 C.3    28  GLY28       0.2014
     21  C        -19.3990   34.7510   16.1370 C.2    28  GLY28       0.2639
     22  O        -19.1100   35.4830   17.0800 O.2    28  GLY28      -0.2714
     23  N        -18.6540   34.6260   15.0470 N.am   29  ALA29      -0.1963
     24  CA       -17.2860   35.1470   14.9590 C.3    29  ALA29       0.1728
     25  C        -17.1900   36.6140   14.4810 C.2    29  ALA29       0.2616
     26  O        -16.0840   37.1800   14.4500 O.2    29  ALA29      -0.2715
     27  CB       -16.3930   34.2120   14.1140 C.3    29  ALA29       0.0334
     28  N        -18.3340   37.2170   14.1340 N.am   30  GLN30      -0.1963
     29  CA       -18.4460   38.6890   13.9930 C.3    30  GLN30       0.1733
     30  C        -19.4850   39.1490   15.0360 C.2    30  GLN30       0.2616
     31  O        -20.3140   40.0500   14.8200 O.2    30  GLN30      -0.2715
     32  CB       -18.7620   39.1480   12.5500 C.3    30  GLN30       0.0408
     33  CG       -17.6980   38.7130   11.4910 C.3    30  GLN30       0.0908
     34  CD       -18.1580   37.5100   10.6320 C.2    30  GLN30       0.2608
     35  OE1      -19.3190   37.0970   10.6860 O.2    30  GLN30      -0.2717
     36  NE2      -17.2890   37.0400    9.7690 N.am   30  GLN30      -0.0878
     37  N        -19.4450   38.4310   16.1600 N.am   31  GLY31      -0.1955
     38  CA       -20.3030   38.6630   17.2910 C.3    31  GLY31       0.1869
     39  C        -21.7830   38.5680   17.0040 C.2    31  GLY31       0.2309
     40  O        -22.2410   37.8640   16.0860 O.2    31  GLY31      -0.2863
     41  N        -25.8070   39.1150   16.3410 N.3    33  VAL33      -0.1245
     42  CA       -26.6400   39.3060   15.2060 C.3    33  VAL33       0.1561
     43  C        -27.9750   39.5720   15.8830 C.2    33  VAL33       0.2260
     44  O        -28.3930   38.8120   16.7450 O.2    33  VAL33      -0.2867
     45  CB       -26.7060   38.0170   14.3240 C.3    33  VAL33       0.0252
     46  CG1      -27.7070   38.1570   13.2240 C.3    33  VAL33       0.0019
     47  CG2      -25.3070   37.6070   13.7790 C.3    33  VAL33       0.0019
     48  N        -32.4970   40.8320    9.9250 N.3    46  ALA46      -0.1245
     49  CA       -31.4930   40.3670   10.8570 C.3    46  ALA46       0.1562
     50  C        -30.3560   41.2780   10.5820 C.2    46  ALA46       0.2260
     51  O        -30.0960   41.5830    9.4170 O.2    46  ALA46      -0.2867
     52  CB       -31.1130   38.8840   10.5430 C.3    46  ALA46       0.0290
     53  N        -26.2680   42.3980   11.3580 N.3    48  LYS48      -0.1245
     54  CA       -24.9770   41.8990   11.8270 C.3    48  LYS48       0.1561
     55  C        -23.9510   43.0480   11.7300 C.2    48  LYS48       0.2260
     56  O        -23.9440   43.7470   10.7820 O.2    48  LYS48      -0.2867
     57  CB       -24.5690   40.7630   10.9020 C.3    48  LYS48       0.0271
     58  CG       -23.3680   39.9940   11.3550 C.3    48  LYS48       0.0035
     59  CD       -22.8810   39.1090   10.2320 C.3    48  LYS48       0.0206
     60  CE       -21.8250   38.2100   10.7530 C.3    48  LYS48       0.1093
     61  NZ       -22.0990   36.8410   10.3430 N.3    48  LYS48      -0.1314
     62  N        -12.3990   38.7080    4.3690 N.3    62  ARG62      -0.1245
     63  CA       -13.7140   38.0670    4.5980 C.3    62  ARG62       0.1563
     64  C        -14.9180   39.0060    4.3940 C.2    62  ARG62       0.2260
     65  O        -15.8250   38.7160    3.5910 O.2    62  ARG62      -0.2867
     66  CB       -13.7520   37.3490    5.9400 C.3    62  ARG62       0.0307
     67  CG       -15.0780   36.6670    6.2710 C.3    62  ARG62       0.0489
     68  CD       -14.9450   35.8800    7.5830 C.3    62  ARG62       0.2205
     69  NE       -14.2210   36.6180    8.6200 N.pl3  62  ARG62      -0.0865
     70  CZ       -13.6040   36.0950    9.6890 C.cat  62  ARG62       0.5346
     71  NH1      -13.5050   34.7820    9.8920 N.pl3  62  ARG62       0.1354
     72  NH2      -13.0640   36.9200   10.5690 N.pl3  62  ARG62       0.1354
     73  N        -17.6370   38.9260    1.2870 N.3    66  GLU66      -0.1245
     74  CA       -19.0390   38.8810    1.6930 C.3    66  GLU66       0.1567
     75  C        -19.7050   40.0180    0.9380 C.2    66  GLU66       0.2260
     76  O        -20.6360   39.7870    0.2010 O.2    66  GLU66      -0.2867
     77  CB       -19.0970   39.0410    3.2270 C.3    66  GLU66       0.0388
     78  CG       -20.3610   38.5860    4.0260 C.3    66  GLU66       0.1160
     79  CD       -20.1080   38.4310    5.5900 C.2    66  GLU66       0.3649
     80  OE1      -19.3240   39.2250    6.1780 O.co2  66  GLU66      -0.2457
     81  OE2      -20.7550   37.5480    6.2480 O.co2  66  GLU66      -0.2457
     82  N        -28.5980   33.1940    1.5360 N.3    79  ILE79      -0.1245
     83  CA       -29.2400   34.3960    2.0560 C.3    79  ILE79       0.1561
     84  C        -28.8380   35.6900    1.3010 C.2    79  ILE79       0.2260
     85  O        -27.7240   35.8520    0.8010 O.2    79  ILE79      -0.2867
     86  CB       -29.0270   34.5690    3.5250 C.3    79  ILE79       0.0252
     87  CG1      -30.1040   35.5230    4.0610 C.3    79  ILE79       0.0019
     88  CG2      -27.6180   35.0300    3.7820 C.3    79  ILE79       0.0019
     89  CD1      -30.5460   35.1770    5.3950 C.3    79  ILE79       0.0001
     90  N        -30.2460   41.6630    6.5090 N.3   101  MET101     -0.1230
     91  CA       -30.6860   40.4440    5.8230 C.3   101  MET101      0.1702
     92  C        -32.0960   40.1690    6.1790 C.2   101  MET101      0.2592
     93  O        -32.5400   40.5680    7.2410 O.2   101  MET101     -0.2718
     94  CB       -29.8860   39.1930    6.2580 C.3   101  MET101      0.0401
     95  CG       -28.4080   39.2250    5.9130 C.3   101  MET101      0.0596
     96  SD       -27.4470   38.1090    6.9600 S.3   101  MET101     -0.1393
     97  CE       -26.9830   39.3160    8.2000 C.3   101  MET101      0.0692
     98  N        -32.7410   39.3330    5.3750 N.am  102  GLU102     -0.1966
     99  CA       -34.0520   38.8780    5.6570 C.3   102  GLU102      0.1733
    100  C        -33.9450   38.0370    6.9170 C.2   102  GLU102      0.2616
    101  O        -32.8910   37.4620    7.2100 O.2   102  GLU102     -0.2715
    102  CB       -34.5490   38.0550    4.4760 C.3   102  GLU102      0.0429
    103  CG       -34.1690   38.6010    3.1160 C.3   102  GLU102      0.1163
    104  CD       -34.6390   37.6760    1.9870 C.2   102  GLU102      0.3649
    105  OE1      -35.3480   36.6920    2.3030 O.co2 102  GLU102     -0.2457
    106  OE2      -34.2500   38.0010    0.8460 O.co2 102  GLU102     -0.2457
    107  N        -34.9990   38.0720    7.7160 N.am  103  LEU103     -0.1963
    108  CA       -35.0290   37.3780    8.9790 C.3   103  LEU103      0.1728
    109  C        -35.5790   35.9510    8.8000 C.2   103  LEU103      0.2616
    110  O        -36.6530   35.7790    8.2260 O.2   103  LEU103     -0.2715
    111  CB       -35.8820   38.1390   10.0070 C.3   103  LEU103      0.0311
    112  CG       -35.7570   37.4170   11.3790 C.3   103  LEU103      0.0022
    113  CD1      -34.3310   37.4740   11.8870 C.3   103  LEU103      0.0001
    114  CD2      -36.7610   37.8890   12.4260 C.3   103  LEU103      0.0001
    115  N        -34.8490   34.9560    9.2860 N.am  104  MET104     -0.1963
    116  CA       -35.2710   33.5790    9.1340 C.3   104  MET104      0.1736
    117  C        -35.6070   33.0620   10.5210 C.2   104  MET104      0.2616
    118  O        -35.0740   33.5510   11.5160 O.2   104  MET104     -0.2715
    119  CB       -34.1890   32.7270    8.4620 C.3   104  MET104      0.0427
    120  CG       -33.6890   33.3070    7.1090 C.3   104  MET104      0.0599
    121  SD       -34.8870   33.0710    5.7900 S.3   104  MET104     -0.1393
    122  CE       -34.8310   31.3300    5.4960 C.3   104  MET104      0.0692
    123  N        -36.4250   32.0370   10.5730 N.am  105  ASP105     -0.1957
    124  CA       -37.1110   31.7030   11.8040 C.3   105  ASP105      0.1840
    125  C        -36.2640   30.9490   12.7850 C.2   105  ASP105      0.2622
    126  O        -36.5370   31.0470   13.9790 O.2   105  ASP105     -0.2715
    127  CB       -38.4430   30.9900   11.5040 C.3   105  ASP105      0.1450
    128  CG       -39.3320   31.8060   10.5430 C.2   105  ASP105      0.3671
    129  OD1      -39.5420   33.0380   10.7670 O.co2 105  ASP105     -0.2456
    130  OD2      -39.8450   31.2440    9.5520 O.co2 105  ASP105     -0.2456
    131  N        -35.1640   30.3580   12.3030 N.am  106  ALA106     -0.1963
    132  CA       -34.2950   29.4860   13.0960 C.3   106  ALA106      0.1728
    133  C        -33.0250   29.0280   12.3680 C.2   106  ALA106      0.2616
    134  O        -32.9280   29.1010   11.1600 O.2   106  ALA106     -0.2715
    135  CB       -35.0950   28.2490   13.5310 C.3   106  ALA106      0.0334
    136  N        -32.0570   28.5010   13.0950 N.am  107  ASN107     -0.1972
    137  CA       -30.9320   27.8690   12.4360 C.3   107  ASN107      0.1688
    138  C        -31.1960   26.3360   12.3190 C.2   107  ASN107      0.2292
    139  O        -32.2220   25.8940   12.7800 O.2   107  ASN107     -0.2864
    140  CB       -29.6330   28.2460   13.1480 C.3   107  ASN107      0.1181
    141  CG       -29.5540   27.7360   14.5870 C.2   107  ASN107      0.2629
    142  OD1      -30.0370   26.6470   14.9130 O.2   107  ASN107     -0.2716
    143  ND2      -28.7370   28.3970   15.3770 N.am  107  ASN107     -0.0877
    144  N        -31.7650   23.9890   15.4840 N.3   109  GLN109     -0.1245
    145  CA       -33.0930   23.9000   16.0410 C.3   109  GLN109      0.1566
    146  C        -33.9100   22.7900   15.3490 C.2   109  GLN109      0.2260
    147  O        -34.4180   21.8780   15.9960 O.2   109  GLN109     -0.2867
    148  CB       -33.7160   25.3040   16.0000 C.3   109  GLN109      0.0367
    149  CG       -32.8550   26.3480   16.8200 C.3   109  GLN109      0.0905
    150  CD       -33.3240   27.7960   16.6600 C.2   109  GLN109      0.2608
    151  OE1      -32.6700   28.6020   15.9790 O.2   109  GLN109     -0.2717
    152  NE2      -34.4640   28.1370   17.2910 N.am  109  GLN109     -0.0878
    153  N        -16.8380   25.4050    5.5230 N.3   142  ASP142     -0.1239
    154  CA       -17.1970   25.6050    6.9360 C.3   142  ASP142      0.1674
    155  C        -18.6690   25.4720    7.2400 C.2   142  ASP142      0.2266
    156  O        -19.1820   26.2220    8.0240 O.2   142  ASP142     -0.2867
    157  CB       -16.7410   27.0030    7.3370 C.3   142  ASP142      0.1410
    158  CG       -16.6870   27.2070    8.8550 C.2   142  ASP142      0.3668
    159  OD1      -16.4960   26.2190    9.6160 O.co2 142  ASP142     -0.2456
    160  OD2      -16.8800   28.3610    9.2810 O.co2 142  ASP142     -0.2456
    161  N        -22.0210   24.2780    8.7890 N.3   144  LYS144     -0.1245
    162  CA       -22.3850   23.7220   10.0820 C.3   144  LYS144      0.1561
    163  C        -23.8300   24.1640   10.3400 C.2   144  LYS144      0.2260
    164  O        -24.3690   25.0620    9.6860 O.2   144  LYS144     -0.2867
    165  CB       -21.4210   24.1890   11.2040 C.3   144  LYS144      0.0271
    166  CG       -21.0730   25.7010   11.1870 C.3   144  LYS144      0.0035
    167  CD       -19.9570   26.0260   12.2120 C.3   144  LYS144      0.0206
    168  CE       -18.8660   26.9160   11.5640 C.3   144  LYS144      0.1093
    169  NZ       -17.8240   27.5730   12.4670 N.3   144  LYS144     -0.1314
    170  N        -25.1010   25.8700   12.4400 N.3   146  SER146     -0.1202
    171  CA       -25.3100   27.2110   12.9490 C.3   146  SER146      0.2020
    172  C        -25.1950   28.2740   11.8600 C.2   146  SER146      0.2618
    173  O        -25.3680   29.4150   12.1220 O.2   146  SER146     -0.2717
    174  CB       -24.3610   27.5230   14.0780 C.3   146  SER146      0.2103
    175  OG       -23.0170   27.3720   13.6830 O.3   146  SER146     -0.2182
    176  N        -24.7980   27.9290   10.6590 N.am  147  ASN147     -0.1974
    177  CA       -24.6840   28.9610    9.6630 C.3   147  ASN147      0.1688
    178  C        -25.5570   28.5720    8.4580 C.2   147  ASN147      0.2292
    179  O        -25.3610   29.0060    7.3100 O.2   147  ASN147     -0.2864
    180  CB       -23.2030   29.3110    9.3580 C.3   147  ASN147      0.1181
    181  CG       -22.4160   28.1480    8.7390 C.2   147  ASN147      0.2629
    182  OD1      -22.9900   27.2440    8.1180 O.2   147  ASN147     -0.2716
    183  ND2      -21.0760   28.2500    8.7910 N.am  147  ASN147     -0.0877
    184  N        -29.8370   28.5140    7.9230 N.3   149  VAL149     -0.1245
    185  CA       -31.0190   28.9480    8.5790 C.3   149  VAL149      0.1561
    186  C        -32.1780   28.5220    7.7050 C.2   149  VAL149      0.2260
    187  O        -31.9970   28.2650    6.5110 O.2   149  VAL149     -0.2867
    188  CB       -31.0300   30.4980    8.8180 C.3   149  VAL149      0.0252
    189  CG1      -30.0490   30.9690    9.9850 C.3   149  VAL149      0.0019
    190  CG2      -30.8970   31.3060    7.4650 C.3   149  VAL149      0.0019
    191  N        -25.9820   31.0320    5.2770 N.3   158  LEU158     -0.1231
    192  CA       -25.7160   32.4160    5.6810 C.3   158  LEU158      0.1693
    193  C        -24.5230   33.0570    4.9500 C.2   158  LEU158      0.2592
    194  O        -24.5390   34.2650    4.6390 O.2   158  LEU158     -0.2718
    195  CB       -25.5090   32.5410    7.1790 C.3   158  LEU158      0.0284
    196  CG       -26.7350   32.2400    8.0020 C.3   158  LEU158      0.0019
    197  CD1      -26.3190   32.3780    9.4820 C.3   158  LEU158      0.0001
    198  CD2      -27.8520   33.1730    7.6650 C.3   158  LEU158      0.0001
    199  N        -23.4470   32.3130    4.7550 N.am  159  ASP159     -0.1974
    200  CA       -22.2160   33.0040    4.3330 C.3   159  ASP159      0.1709
    201  C        -21.3350   32.1210    3.4480 C.2   159  ASP159      0.2293
    202  O        -21.7320   30.9910    3.0660 O.2   159  ASP159     -0.2864
    203  CB       -21.4440   33.5840    5.5430 C.3   159  ASP159      0.1436
    204  CG       -20.8990   32.5090    6.4400 C.2   159  ASP159      0.3671
    205  OD1      -21.4820   32.2860    7.5200 O.co2 159  ASP159     -0.2456
    206  OD2      -19.9750   31.7780    6.0360 O.co2 159  ASP159     -0.2456
@<TRIPOS>BOND
     1    76    75    2
     2    85    84    2
     3   106   104   ar
     4    75    74    1
     5    73    74    1
     6    84    83    1
     7    82    83    1
     8    74    77    1
     9   104   105   ar
    10   104   103    1
    11    83    86    1
    12   202   201    2
    13   103   102    1
    14    77    78    1
    15   201   200    1
    16    86    88    1
    17    86    87    1
    18    65    64    2
    19    78    79    1
    20    87    89    1
    21   200   199    1
    22   200   203    1
    23    62    63    1
    24    64    63    1
    25   102    99    1
    26    63    66    1
    27   194   193    2
    28   199   193   am
    29   193   192    1
    30   191   192    1
    31    98    99    1
    32    98    92   am
    33   122   121    1
    34   153   154    1
    35   203   204    1
    36    79    80   ar
    37    79    81   ar
    38    99   100    1
    39   192   195    1
    40   121   120    1
    41    91    92    1
    42    91    94    1
    43    91    90    1
    44    95    94    1
    45    95    96    1
    46    66    67    1
    47   206   204   ar
    48    92    93    2
    49    67    68    1
    50   204   205   ar
    51   187   186    2
    52   100   101    2
    53   100   107   am
    54   154   155    1
    55   154   157    1
    56    96    97    1
    57   120   119    1
    58   195   196    1
    59   155   156    2
    60   179   178    2
    61   157   158    1
    62   190   188    1
    63    68    69    1
    64   198   196    1
    65   186   185    1
    66   107   108    1
    67   184   185    1
    68   196   197    1
    69   182   181    2
    70   110   109    2
    71   178   177    1
    72   119   116    1
    73   185   188    1
    74    69    70    2
    75   181   183   am
    76   181   180    1
    77   161   162    1
    78   109   108    1
    79   109   115   am
    80   188   189    1
    81   158   160   ar
    82   158   159   ar
    83   108   111    1
    84   116   115    1
    85   116   117    1
    86   180   177    1
    87    51    50    2
    88   130   128   ar
    89   177   176    1
    90   164   163    2
    91    70    71    1
    92    70    72    1
    93    36    34   am
    94    48    49    1
    95   111   112    1
    96   162   163    1
    97   162   165    1
    98    59    60    1
    99    59    58    1
   100    61    60    1
   101   117   123   am
   102   117   118    2
   103    52    49    1
   104   128   129   ar
   105   128   127    1
   106   123   124    1
   107    50    49    1
   108    34    35    2
   109    34    33    1
   110   176   172   am
   111    56    55    2
   112    57    58    1
   113    57    54    1
   114   134   133    2
   115   166   165    1
   116   166   167    1
   117    53    54    1
   118   112   113    1
   119   112   114    1
   120    33    32    1
   121   127   124    1
   122   168   167    1
   123   168   169    1
   124    55    54    1
   125   124   125    1
   126   172   173    2
   127   172   171    1
   128   131   125   am
   129   131   132    1
   130   138   137    1
   131   138   139    2
   132   133   136   am
   133   133   132    1
   134   137   136    1
   135   137   140    1
   136   170   171    1
   137    32    29    1
   138   125   126    2
   139   171   174    1
   140   132   135    1
   141   140   141    1
   142    46    45    1
   143   175   174    1
   144    47    45    1
   145    29    28    1
   146    29    30    1
   147    27    24    1
   148    28    25   am
   149     8     6    1
   150    45    42    1
   151    26    25    2
   152    25    24    1
   153   141   142    2
   154   141   143   am
   155    31    30    2
   156    24    23    1
   157    30    37   am
   158    23    21   am
   159    42    43    1
   160    42    41    1
   161   146   147    2
   162   146   145    1
   163   144   145    1
   164     7     5    1
   165     6     5    1
   166    43    44    2
   167   151   150    2
   168   148   145    1
   169   148   149    1
   170    40    39    2
   171    20    21    1
   172    20    19    1
   173    21    22    2
   174    37    38    1
   175     5     2    1
   176   150   149    1
   177   150   152   am
   178    19    15   am
   179    39    38    1
   180    16    15    2
   181    15    14    1
   182    12    11    2
   183     4     3    2
   184     2     3    1
   185     2     1    1
   186     3     9   am
   187    11    13   am
   188    11    10    1
   189    14    13    1
   190    14    17    1
   191     9    10    1
   192    17    18    1
