@<TRIPOS>MOLECULE
tmp/3kvyA00.pdb
 108 101 0 0 0
SMALL
GASTEIGER

@<TRIPOS>ATOM
      1  N         -0.6390   38.7090 -317.2270 N.3   122  THR122     -0.1203
      2  CA         0.0200   37.4750 -316.8510 C.3   122  THR122      0.1994
      3  C          1.4890   37.6360 -317.1920 C.2   122  THR122      0.2619
      4  O          1.8650   38.5500 -317.9360 O.2   122  THR122     -0.2717
      5  CB        -0.5540   36.2560 -317.6060 C.3   122  THR122      0.1784
      6  OG1       -0.3970   36.4430 -319.0150 O.3   122  THR122     -0.2211
      7  CG2       -2.0320   36.0800 -317.2940 C.3   122  THR122      0.0376
      8  N          2.3160   36.7500 -316.6520 N.am  123  SER123     -0.1937
      9  CA         3.7510   36.8600 -316.8110 C.3   123  SER123      0.2055
     10  C          4.4300   35.5780 -316.3560 C.2   123  SER123      0.2643
     11  O          3.7810   34.6730 -315.8250 O.2   123  SER123     -0.2714
     12  CB         4.2650   38.0240 -315.9630 C.3   123  SER123      0.2130
     13  OG         3.9540   37.8240 -314.5870 O.3   123  SER123     -0.2179
     14  N          5.7420   35.5110 -316.5540 N.am  124  GLY124     -0.1954
     15  CA         6.5360   34.4440 -315.9750 C.3   124  GLY124      0.1869
     16  C          7.2560   34.9460 -314.7370 C.2   124  GLY124      0.2309
     17  O          7.8540   36.0280 -314.7550 O.2   124  GLY124     -0.2863
     18  N          8.5400   36.3270 -326.7280 N.3   194  PHE194     -0.1241
     19  CA         8.1470   35.3940 -325.6680 C.3   194  PHE194      0.1605
     20  C          9.1190   34.2150 -325.5360 C.2   194  PHE194      0.2264
     21  O          9.2610   33.6400 -324.4550 O.2   194  PHE194     -0.2867
     22  CB         6.7380   34.8690 -325.9880 C.3   194  PHE194      0.0534
     23  CG         6.1600   33.9150 -324.9630 C.ar  194  PHE194     -0.0203
     24  CD1        6.3670   32.5470 -325.0710 C.ar  194  PHE194     -0.0042
     25  CD2        5.3290   34.3810 -323.9420 C.ar  194  PHE194     -0.0042
     26  CE1        5.7940   31.6490 -324.1490 C.ar  194  PHE194     -0.0003
     27  CE2        4.7470   33.4950 -323.0210 C.ar  194  PHE194     -0.0003
     28  CZ         4.9860   32.1230 -323.1260 C.ar  194  PHE194     -0.0000
     29  N         12.8300   35.7340 -323.9280 N.3   198  GLN198     -0.1245
     30  CA        12.7260   35.4730 -322.4970 C.3   198  GLN198      0.1566
     31  C         13.5580   34.2760 -322.0630 C.2   198  GLN198      0.2260
     32  O         13.3880   33.7540 -320.9690 O.2   198  GLN198     -0.2867
     33  CB        11.2560   35.3340 -322.0790 C.3   198  GLN198      0.0367
     34  CG        10.4890   36.6460 -322.2550 C.3   198  GLN198      0.0905
     35  CD         9.0010   36.5270 -321.9980 C.2   198  GLN198      0.2608
     36  OE1        8.5310   35.5500 -321.4180 O.2   198  GLN198     -0.2717
     37  NE2        8.2480   37.5420 -322.4240 N.am  198  GLN198     -0.0878
     38  N         13.6560   31.2150 -323.2460 N.3   200  ARG200     -0.1245
     39  CA        13.0320   29.8900 -323.3290 C.3   200  ARG200      0.1563
     40  C         13.8530   28.9230 -324.1860 C.2   200  ARG200      0.2260
     41  O         14.5370   29.3450 -325.1140 O.2   200  ARG200     -0.2867
     42  CB        11.6110   29.9880 -323.8980 C.3   200  ARG200      0.0307
     43  CG        10.5890   30.4960 -322.9090 C.3   200  ARG200      0.0489
     44  CD         9.1590   30.3350 -323.4130 C.3   200  ARG200      0.2205
     45  NE         8.2460   30.1980 -322.2820 N.pl3 200  ARG200     -0.0865
     46  CZ         7.8310   31.2120 -321.5300 C.cat 200  ARG200      0.5346
     47  NH1        8.2230   32.4550 -321.7930 N.pl3 200  ARG200      0.1354
     48  NH2        7.0190   30.9820 -320.5130 N.pl3 200  ARG200      0.1354
     49  N          8.4260   38.5540 -315.7330 N.3   228  ILE228     -0.1231
     50  CA         8.7550   38.8420 -317.1200 C.3   228  ILE228      0.1692
     51  C          7.4750   38.8550 -317.9470 C.2   228  ILE228      0.2592
     52  O          6.6920   37.9050 -317.8950 O.2   228  ILE228     -0.2718
     53  CB         9.6970   37.7550 -317.6970 C.3   228  ILE228      0.0266
     54  CG1       10.8970   37.5390 -316.7770 C.3   228  ILE228      0.0019
     55  CG2       10.1740   38.1180 -319.1040 C.3   228  ILE228      0.0020
     56  CD1       11.8720   36.5020 -317.3020 C.3   228  ILE228      0.0001
     57  N          7.2540   39.9310 -318.6990 N.am  229  GLU229     -0.1966
     58  CA         6.0990   40.0080 -319.5920 C.3   229  GLU229      0.1733
     59  C          6.4140   40.8840 -320.8000 C.2   229  GLU229      0.2616
     60  O          7.5790   41.0700 -321.1380 O.2   229  GLU229     -0.2715
     61  CB         4.8460   40.4650 -318.8430 C.3   229  GLU229      0.0429
     62  CG         5.0740   41.6670 -317.9510 C.3   229  GLU229      0.1163
     63  CD         4.7940   42.9750 -318.6690 C.2   229  GLU229      0.3649
     64  OE1        5.7510   43.5940 -319.1880 O.co2 229  GLU229     -0.2457
     65  OE2        3.6050   43.3730 -318.7290 O.co2 229  GLU229     -0.2457
     66  N          5.3940   41.4070 -321.4660 N.am  230  MET230     -0.1977
     67  CA         5.6170   42.0290 -322.7660 C.3   230  MET230      0.1605
     68  C          4.9050   43.3690 -323.0030 C.2   230  MET230      0.2287
     69  O          4.6750   43.7470 -324.1480 O.2   230  MET230     -0.2864
     70  CB         5.2410   41.0410 -323.8760 C.3   230  MET230      0.0413
     71  CG         5.9480   39.7050 -323.7630 C.3   230  MET230      0.0598
     72  SD         5.4100   38.4610 -324.9550 S.3   230  MET230     -0.1393
     73  CE         6.2770   39.0150 -326.4240 C.3   230  MET230      0.0692
     74  N          2.3660   32.7480 -314.0630 N.3   253  LEU253     -0.1231
     75  CA         1.7850   31.4860 -314.5250 C.3   253  LEU253      0.1693
     76  C          2.7300   30.3110 -314.3230 C.2   253  LEU253      0.2591
     77  O          2.3100   29.1620 -314.3680 O.2   253  LEU253     -0.2718
     78  CB         1.3670   31.5660 -316.0080 C.3   253  LEU253      0.0284
     79  CG         0.3170   32.6160 -316.4100 C.3   253  LEU253      0.0019
     80  CD1       -0.0430   32.4850 -317.8750 C.3   253  LEU253      0.0001
     81  CD2       -0.9480   32.5380 -315.5340 C.3   253  LEU253      0.0001
     82  N          4.0130   30.6010 -314.1330 N.am  254  LEU254     -0.1980
     83  CA         4.9920   29.5650 -313.8240 C.3   254  LEU254      0.1596
     84  C          6.2530   30.2010 -313.2560 C.2   254  LEU254      0.2287
     85  O          6.4710   31.4080 -313.4130 O.2   254  LEU254     -0.2864
     86  CB         5.3360   28.7350 -315.0680 C.3   254  LEU254      0.0297
     87  CG         6.2430   29.3450 -316.1500 C.3   254  LEU254      0.0022
     88  CD1        6.5900   28.3080 -317.2310 C.3   254  LEU254      0.0001
     89  CD2        5.6240   30.5790 -316.7890 C.3   254  LEU254      0.0001
     90  N          9.9680   30.4620 -313.9150 N.3   256  ARG256     -0.1245
     91  CA        10.8630   30.2290 -315.0450 C.3   256  ARG256      0.1563
     92  C         12.2040   29.5650 -314.6730 C.2   256  ARG256      0.2260
     93  O         12.9050   29.0590 -315.5440 O.2   256  ARG256     -0.2867
     94  CB        11.0910   31.5250 -315.8350 C.3   256  ARG256      0.0307
     95  CG         9.8760   31.9910 -316.6510 C.3   256  ARG256      0.0489
     96  CD         9.5890   31.0750 -317.8480 C.3   256  ARG256      0.2205
     97  NE        10.8110   30.6960 -318.5520 N.pl3 256  ARG256     -0.0865
     98  CZ        11.5670   31.5390 -319.2520 C.cat 256  ARG256      0.5346
     99  NH1       12.6760   31.1050 -319.8450 N.pl3 256  ARG256      0.1354
    100  NH2       11.2240   32.8200 -319.3550 N.pl3 256  ARG256      0.1354
    101  N          3.9290   26.2190 -320.2840 N.3   262  ILE262     -0.1245
    102  CA         2.8100   26.4960 -319.3950 C.3   262  ILE262      0.1561
    103  C          1.9000   25.2690 -319.3100 C.2   262  ILE262      0.2260
    104  O          0.9680   25.1060 -320.0970 O.2   262  ILE262     -0.2867
    105  CB         2.0730   27.7660 -319.8330 C.3   262  ILE262      0.0252
    106  CG1        3.0460   28.9540 -319.7390 C.3   262  ILE262      0.0019
    107  CG2        0.8300   28.0000 -318.9740 C.3   262  ILE262      0.0019
    108  CD1        2.5460   30.2310 -320.3470 C.3   262  ILE262      0.0001
@<TRIPOS>BOND
     1    18    19    1
     2    73    72    1
     3    22    19    1
     4    22    23    1
     5    19    20    1
     6    20    21    2
     7    41    40    2
     8    24    23   ar
     9    24    26   ar
    10    23    25   ar
    11    72    71    1
    12    40    39    1
    13    26    28   ar
    14    69    68    2
    15    25    27   ar
    16    29    30    1
    17    42    39    1
    18    42    43    1
    19    70    71    1
    20    70    67    1
    21    44    43    1
    22    44    45    1
    23    39    38    1
    24    28    27   ar
    25    68    67    1
    26    67    66    1
    27    30    33    1
    28    30    31    1
    29    37    35   am
    30    45    46    2
    31    34    33    1
    32    34    35    1
    33    31    32    2
    34    35    36    2
    35    47    46    1
    36    46    48    1
    37    66    59   am
    38    60    59    2
    39    59    58    1
    40   108   106    1
    41   101   102    1
    42   104   103    2
    43    99    98    1
    44   105   106    1
    45   105   102    1
    46   105   107    1
    47    58    61    1
    48    58    57    1
    49   102   103    1
    50   100    98    1
    51    98    97    2
    52    64    63   ar
    53    55    53    1
    54     6     5    1
    55    61    62    1
    56    65    63   ar
    57    57    51   am
    58    63    62    1
    59    97    96    1
    60    51    52    2
    61    51    50    1
    62     4     3    2
    63    80    79    1
    64    96    95    1
    65    53    50    1
    66    53    54    1
    67     5     7    1
    68     5     2    1
    69    56    54    1
    70    88    87    1
    71     1     2    1
    72     3     2    1
    73     3     8   am
    74    50    49    1
    75     9     8    1
    76     9    10    1
    77     9    12    1
    78    89    87    1
    79    95    94    1
    80    14    10   am
    81    14    15    1
    82    79    78    1
    83    79    81    1
    84    10    11    2
    85    87    86    1
    86    78    75    1
    87    15    16    1
    88    12    13    1
    89    94    91    1
    90    93    92    2
    91    86    83    1
    92    91    92    1
    93    91    90    1
    94    17    16    2
    95    75    76    1
    96    75    74    1
    97    77    76    2
    98    76    82   am
    99    82    83    1
   100    83    84    1
   101    85    84    2
