@<TRIPOS>MOLECULE
tmp/3kvyA01.pdb
 95 90 0 0 0
SMALL
GASTEIGER

@<TRIPOS>ATOM
      1  N         -4.5500   41.7760 -321.9560 N.3    44  GLY44      -0.1225
      2  CA        -4.3710   41.2050 -323.2780 C.3    44  GLY44       0.1811
      3  C         -5.6250   40.6270 -323.9120 C.2    44  GLY44       0.2280
      4  O         -5.9290   40.9160 -325.0690 O.2    44  GLY44      -0.2866
      5  N         -5.9500   44.7230 -325.0770 N.3    89  HIS89      -0.1226
      6  CA        -4.8260   45.3430 -325.7740 C.3    89  HIS89       0.1752
      7  C         -3.9640   44.3850 -326.6170 C.2    89  HIS89       0.2597
      8  O         -2.9580   44.8000 -327.1830 O.2    89  HIS89      -0.2718
      9  CB        -3.9440   46.1280 -324.7850 C.3    89  HIS89       0.0759
     10  CG        -3.2320   45.2730 -323.7770 C.ar   89  HIS89       0.0818
     11  ND1       -3.1330   45.6170 -322.4440 N.ar   89  HIS89      -0.2268
     12  CD2       -2.5560   44.1070 -323.9120 C.ar   89  HIS89       0.1154
     13  CE1       -2.4450   44.6910 -321.8000 C.ar   89  HIS89       0.1986
     14  NE2       -2.0790   43.7660 -322.6690 N.ar   89  HIS89      -0.2212
     15  N         -4.3520   43.1150 -326.6920 N.am   90  GLY90      -0.1942
     16  CA        -3.5840   42.1200 -327.4320 C.3    90  GLY90       0.2014
     17  C         -2.2310   41.8150 -326.7980 C.2    90  GLY90       0.2638
     18  O         -2.0280   42.0340 -325.6020 O.2    90  GLY90      -0.2714
     19  N         -1.2900   41.3160 -327.5930 N.am   91  MET91      -0.1976
     20  CA         0.0190   40.9540 -327.0490 C.3    91  MET91       0.1605
     21  C          1.1580   41.7330 -327.6910 C.2    91  MET91       0.2287
     22  O          1.2490   41.8230 -328.9180 O.2    91  MET91      -0.2864
     23  CB         0.2690   39.4510 -327.1900 C.3    91  MET91       0.0413
     24  CG        -0.7630   38.5950 -326.4700 C.3    91  MET91       0.0598
     25  SD        -0.3400   36.8350 -326.4610 S.3    91  MET91      -0.1393
     26  CE        -0.5560   36.4000 -328.1840 C.3    91  MET91       0.0692
     27  N         -2.8720   48.0740 -315.7260 N.3   119  ARG119     -0.1245
     28  CA        -2.7620   46.8540 -316.5100 C.3   119  ARG119      0.1563
     29  C         -2.8970   45.6210 -315.6170 C.2   119  ARG119      0.2260
     30  O         -2.1610   45.4750 -314.6450 O.2   119  ARG119     -0.2867
     31  CB        -1.4310   46.8000 -317.2650 C.3   119  ARG119      0.0307
     32  CG        -1.1400   45.4130 -317.8200 C.3   119  ARG119      0.0489
     33  CD         0.0430   45.3810 -318.7830 C.3   119  ARG119      0.2205
     34  NE         0.7190   44.0880 -318.7050 N.pl3 119  ARG119     -0.0865
     35  CZ         0.1930   42.9420 -319.1340 C.cat 119  ARG119      0.5346
     36  NH1       -1.0090   42.9230 -319.6910 N.pl3 119  ARG119      0.1354
     37  NH2        0.8720   41.8120 -319.0090 N.pl3 119  ARG119      0.1354
     38  N         -0.6390   38.7090 -317.2270 N.3   122  THR122     -0.1203
     39  CA         0.0200   37.4750 -316.8510 C.3   122  THR122      0.1994
     40  C          1.4890   37.6360 -317.1920 C.2   122  THR122      0.2618
     41  O          1.8650   38.5500 -317.9360 O.2   122  THR122     -0.2717
     42  CB        -0.5540   36.2560 -317.6060 C.3   122  THR122      0.1784
     43  OG1       -0.3970   36.4430 -319.0150 O.3   122  THR122     -0.2211
     44  CG2       -2.0320   36.0800 -317.2940 C.3   122  THR122      0.0376
     45  N          2.3160   36.7500 -316.6520 N.am  123  SER123     -0.1951
     46  CA         3.7510   36.8600 -316.8110 C.3   123  SER123      0.1924
     47  C          4.4300   35.5780 -316.3560 C.2   123  SER123      0.2314
     48  O          3.7810   34.6730 -315.8250 O.2   123  SER123     -0.2863
     49  CB         4.2650   38.0240 -315.9630 C.3   123  SER123      0.2116
     50  OG         3.9540   37.8240 -314.5870 O.3   123  SER123     -0.2180
     51  N          8.5400   36.3270 -326.7280 N.3   194  PHE194     -0.1241
     52  CA         8.1470   35.3940 -325.6680 C.3   194  PHE194      0.1605
     53  C          9.1190   34.2150 -325.5360 C.2   194  PHE194      0.2264
     54  O          9.2610   33.6400 -324.4550 O.2   194  PHE194     -0.2867
     55  CB         6.7380   34.8690 -325.9880 C.3   194  PHE194      0.0534
     56  CG         6.1600   33.9150 -324.9630 C.ar  194  PHE194     -0.0203
     57  CD1        6.3670   32.5470 -325.0710 C.ar  194  PHE194     -0.0042
     58  CD2        5.3290   34.3810 -323.9420 C.ar  194  PHE194     -0.0042
     59  CE1        5.7940   31.6490 -324.1490 C.ar  194  PHE194     -0.0003
     60  CE2        4.7470   33.4950 -323.0210 C.ar  194  PHE194     -0.0003
     61  CZ         4.9860   32.1230 -323.1260 C.ar  194  PHE194     -0.0000
     62  N          7.2540   39.9310 -318.6990 N.3   229  GLU229     -0.1231
     63  CA         6.0990   40.0080 -319.5920 C.3   229  GLU229      0.1699
     64  C          6.4140   40.8840 -320.8000 C.2   229  GLU229      0.2592
     65  O          7.5790   41.0700 -321.1380 O.2   229  GLU229     -0.2718
     66  CB         4.8460   40.4650 -318.8430 C.3   229  GLU229      0.0402
     67  CG         5.0740   41.6670 -317.9510 C.3   229  GLU229      0.1161
     68  CD         4.7940   42.9750 -318.6690 C.2   229  GLU229      0.3649
     69  OE1        5.7510   43.5940 -319.1880 O.co2 229  GLU229     -0.2457
     70  OE2        3.6050   43.3730 -318.7290 O.co2 229  GLU229     -0.2457
     71  N          5.3940   41.4070 -321.4660 N.am  230  MET230     -0.1965
     72  CA         5.6170   42.0290 -322.7660 C.3   230  MET230      0.1736
     73  C          4.9050   43.3690 -323.0030 C.2   230  MET230      0.2616
     74  O          4.6750   43.7470 -324.1480 O.2   230  MET230     -0.2715
     75  CB         5.2410   41.0410 -323.8760 C.3   230  MET230      0.0427
     76  CG         5.9480   39.7050 -323.7630 C.3   230  MET230      0.0599
     77  SD         5.4100   38.4610 -324.9550 S.3   230  MET230     -0.1393
     78  CE         6.2770   39.0150 -326.4240 C.3   230  MET230      0.0692
     79  N          4.5610   44.0910 -321.9400 N.am  231  GLU231     -0.1977
     80  CA         3.8440   45.3510 -322.1180 C.3   231  GLU231      0.1602
     81  C          4.2920   46.4670 -321.1810 C.2   231  GLU231      0.2287
     82  O          4.1440   47.6420 -321.5090 O.2   231  GLU231     -0.2864
     83  CB         2.3250   45.1570 -321.9860 C.3   231  GLU231      0.0415
     84  CG         1.6620   44.4660 -323.1870 C.3   231  GLU231      0.1163
     85  CD         1.6400   42.9610 -323.0260 C.2   231  GLU231      0.3649
     86  OE1        1.8390   42.5150 -321.8870 O.co2 231  GLU231     -0.2457
     87  OE2        1.4220   42.2270 -324.0080 O.co2 231  GLU231     -0.2457
     88  N          3.9290   26.2190 -320.2840 N.3   262  ILE262     -0.1245
     89  CA         2.8100   26.4960 -319.3950 C.3   262  ILE262      0.1561
     90  C          1.9000   25.2690 -319.3100 C.2   262  ILE262      0.2260
     91  O          0.9680   25.1060 -320.0970 O.2   262  ILE262     -0.2867
     92  CB         2.0730   27.7660 -319.8330 C.3   262  ILE262      0.0252
     93  CG1        3.0460   28.9540 -319.7390 C.3   262  ILE262      0.0019
     94  CG2        0.8300   28.0000 -318.9740 C.3   262  ILE262      0.0019
     95  CD1        2.5460   30.2310 -320.3470 C.3   262  ILE262      0.0001
@<TRIPOS>BOND
     1    22    21    2
     2    26    25    1
     3    21    20    1
     4    19    20    1
     5    19    17   am
     6    16    17    1
     7    16    15    1
     8    23    20    1
     9    23    24    1
    10     8     7    2
    11    17    18    2
    12    51    52    1
    13    15     7   am
    14     7     6    1
    15    24    25    1
    16    78    77    1
    17    55    52    1
    18    55    56    1
    19     6     5    1
    20     6     9    1
    21    52    53    1
    22    53    54    2
    23    57    56   ar
    24    57    59   ar
    25     4     3    2
    26    56    58   ar
    27    77    76    1
    28     9    10    1
    29    59    61   ar
    30    74    73    2
    31    87    85   ar
    32    58    60   ar
    33     3     2    1
    34    12    10   ar
    35    12    14   ar
    36    75    76    1
    37    75    72    1
    38    10    11   ar
    39     2     1    1
    40    84    85    1
    41    84    83    1
    42    61    60   ar
    43    85    86   ar
    44    73    72    1
    45    73    79   am
    46    72    71    1
    47    14    13   ar
    48    11    13   ar
    49    80    83    1
    50    80    79    1
    51    80    81    1
    52    82    81    2
    53    71    64   am
    54    65    64    2
    55    64    63    1
    56    95    93    1
    57    88    89    1
    58    91    90    2
    59    92    93    1
    60    92    89    1
    61    92    94    1
    62    36    35    1
    63    63    66    1
    64    63    62    1
    65    89    90    1
    66    69    68   ar
    67    35    37    1
    68    35    34    2
    69    43    42    1
    70    66    67    1
    71    33    34    1
    72    33    32    1
    73    70    68   ar
    74    68    67    1
    75    41    40    2
    76    32    31    1
    77    42    44    1
    78    42    39    1
    79    31    28    1
    80    38    39    1
    81    40    39    1
    82    40    45   am
    83    46    45    1
    84    46    47    1
    85    46    49    1
    86    28    27    1
    87    28    29    1
    88    47    48    2
    89    49    50    1
    90    29    30    2
