@<TRIPOS>MOLECULE
tmp/3kvzF00.pdb
 93 91 0 0 0
SMALL
GASTEIGER

@<TRIPOS>ATOM
      1  N          1.2050   11.5000   -8.5200 N.3    19  VAL19      -0.1245
      2  CA         1.5050   12.7300   -7.8460 C.3    19  VAL19       0.1561
      3  C          0.3130   13.6520   -7.6210 C.2    19  VAL19       0.2260
      4  O          0.1450   14.1470   -6.5590 O.2    19  VAL19      -0.2867
      5  CB         2.6420   13.5140   -8.5880 C.3    19  VAL19       0.0252
      6  CG1        2.9050   14.8300   -7.9320 C.3    19  VAL19       0.0019
      7  CG2        3.8980   12.6870   -8.7140 C.3    19  VAL19       0.0019
      8  N         -1.8630   12.8110   -4.7180 N.3    22  LEU22      -0.1245
      9  CA        -1.2730   12.8790   -3.3940 C.3    22  LEU22       0.1561
     10  C         -1.8340   14.1240   -2.7220 C.2    22  LEU22       0.2260
     11  O         -2.2580   14.0610   -1.5700 O.2    22  LEU22      -0.2867
     12  CB         0.2820   12.8470   -3.4160 C.3    22  LEU22       0.0270
     13  CG         0.8920   12.7850   -1.9970 C.3    22  LEU22       0.0019
     14  CD1        0.6380   11.4360   -1.3130 C.3    22  LEU22       0.0001
     15  CD2        2.4080   13.0500   -2.0190 C.3    22  LEU22       0.0001
     16  N          0.6410   20.6520   -8.5750 N.3    29  PHE29      -0.1241
     17  CA         0.8340   19.2370   -8.8980 C.3    29  PHE29       0.1605
     18  C         -0.0970   18.7640   -9.9820 C.2    29  PHE29       0.2264
     19  O          0.0770   17.6660  -10.5000 O.2    29  PHE29      -0.2867
     20  CB         0.5860   18.3450   -7.6950 C.3    29  PHE29       0.0534
     21  CG         1.6780   18.3740   -6.6930 C.ar   29  PHE29      -0.0203
     22  CD1        1.3870   18.3470   -5.3490 C.ar   29  PHE29      -0.0042
     23  CD2        3.0070   18.4720   -7.0910 C.ar   29  PHE29      -0.0042
     24  CE1        2.4030   18.3960   -4.3990 C.ar   29  PHE29      -0.0003
     25  CE2        4.0320   18.5030   -6.1540 C.ar   29  PHE29      -0.0003
     26  CZ         3.7290   18.4610   -4.8100 C.ar   29  PHE29      -0.0000
     27  N          1.5650   17.5030  -13.1670 N.3    32  PHE32      -0.1228
     28  CA         2.7460   16.6170  -13.1160 C.3    32  PHE32       0.1721
     29  C          2.6180   15.3730  -13.9810 C.2    32  PHE32       0.2437
     30  O          1.5250   14.8930  -14.1980 O.2    32  PHE32      -0.2733
     31  CB         3.0000   16.1510  -11.6760 C.3    32  PHE32       0.0547
     32  CG         4.0820   16.9010  -10.9860 C.ar   32  PHE32      -0.0202
     33  CD1        5.1830   16.2230  -10.4570 C.ar   32  PHE32      -0.0042
     34  CD2        4.0400   18.2980  -10.9030 C.ar   32  PHE32      -0.0042
     35  CE1        6.2230   16.9180   -9.8180 C.ar   32  PHE32      -0.0003
     36  CE2        5.0810   19.0140  -10.2740 C.ar   32  PHE32      -0.0003
     37  CZ         6.1790   18.3090   -9.7290 C.ar   32  PHE32      -0.0000
     38  N          3.7380   14.7760  -14.3960 N.am   33  PRO33      -0.2729
     39  CA         3.5360   13.4870  -15.0510 C.3    33  PRO33       0.1401
     40  C          2.7750   12.4740  -14.1830 C.2    33  PRO33       0.2269
     41  O          2.7240   12.5810  -12.9470 O.2    33  PRO33      -0.2865
     42  CB         4.9520   12.9820  -15.3310 C.3    33  PRO33       0.0296
     43  CG         5.8950   13.9990  -14.7180 C.3    33  PRO33       0.0237
     44  CD         5.1360   15.2330  -14.4280 C.3    33  PRO33       0.0939
     45  N          2.9890    9.5680  -12.5930 N.3    35  VAL35      -0.1231
     46  CA         3.8650    8.5540  -12.1040 C.3    35  VAL35       0.1692
     47  C          3.6460    8.4100  -10.6110 C.2    35  VAL35       0.2592
     48  O          3.1100    9.3180   -9.9600 O.2    35  VAL35      -0.2718
     49  CB         5.3250    8.9410  -12.4390 C.3    35  VAL35       0.0266
     50  CG1        5.5360    8.8070  -13.9220 C.3    35  VAL35       0.0020
     51  CG2        5.5640   10.3590  -12.0220 C.3    35  VAL35       0.0020
     52  N          4.0710    7.2650  -10.0890 N.am   36  PHE36      -0.1962
     53  CA         3.9740    6.9340   -8.6730 C.3    36  PHE36       0.1771
     54  C          4.7140    7.9710   -7.8330 C.2    36  PHE36       0.2619
     55  O          5.9210    8.2010   -8.0350 O.2    36  PHE36      -0.2715
     56  CB         4.5780    5.5460   -8.4590 C.3    36  PHE36       0.0574
     57  CG         4.2740    4.9360   -7.1000 C.ar   36  PHE36      -0.0200
     58  CD1        5.2940    4.3830   -6.3420 C.ar   36  PHE36      -0.0042
     59  CD2        2.9730    4.8820   -6.6090 C.ar   36  PHE36      -0.0042
     60  CE1        5.0330    3.7660   -5.1020 C.ar   36  PHE36      -0.0003
     61  CE2        2.6880    4.2550   -5.3720 C.ar   36  PHE36      -0.0003
     62  CZ         3.7250    3.6870   -4.6300 C.ar   36  PHE36      -0.0000
     63  N          3.9820    8.6100   -6.9240 N.am   37  ALA37      -0.1963
     64  CA         4.4930    9.6830   -6.0690 C.3    37  ALA37       0.1728
     65  C          5.3530    9.1510   -4.9150 C.2    37  ALA37       0.2617
     66  O          5.0660    8.1090   -4.3580 O.2    37  ALA37      -0.2715
     67  CB         3.3170   10.5100   -5.5010 C.3    37  ALA37       0.0334
     68  N          6.3770    9.9240   -4.5370 N.am   38  THR38      -0.1937
     69  CA         7.3290    9.5500   -3.5070 C.3    38  THR38       0.2028
     70  C          6.5830    9.3820   -2.1900 C.2    38  THR38       0.2642
     71  O          6.8130    8.4200   -1.4410 O.2    38  THR38      -0.2714
     72  CB         8.4120   10.6460   -3.3510 C.3    38  THR38       0.1808
     73  OG1        9.1570   10.7750   -4.5690 O.3    38  THR38      -0.2208
     74  CG2        9.3620   10.3170   -2.2320 C.3    38  THR38       0.0379
     75  N          5.6510   10.2930   -1.9450 N.am   39  GLY39      -0.1954
     76  CA         4.8030   10.2280   -0.7410 C.3    39  GLY39       0.1869
     77  C          4.1180    8.8680   -0.6340 C.2    39  GLY39       0.2309
     78  O          4.1420    8.2190    0.4050 O.2    39  GLY39      -0.2863
     79  N         14.6990    8.1900   -4.7720 N.3    72  HIS72      -0.1241
     80  CA        13.6120    7.7280   -5.5790 C.3    72  HIS72       0.1621
     81  C         14.0430    8.0860   -6.9870 C.2    72  HIS72       0.2264
     82  O         13.8330    9.2140   -7.4200 O.2    72  HIS72      -0.2867
     83  CB        12.3230    8.4630   -5.2050 C.3    72  HIS72       0.0745
     84  CG        11.1020    7.9100   -5.8700 C.ar   72  HIS72       0.0817
     85  ND1        9.8310    8.4080   -5.6380 N.ar   72  HIS72      -0.2268
     86  CD2       10.9570    6.9030   -6.7670 C.ar   72  HIS72       0.1154
     87  CE1        8.9620    7.7390   -6.3680 C.ar   72  HIS72       0.1986
     88  NE2        9.6160    6.8210   -7.0630 N.ar   72  HIS72      -0.2212
     89  N         11.0540    6.3840  -12.4020 N.3    75  ALA75      -0.1245
     90  CA         9.6120    6.6550  -12.4140 C.3    75  ALA75       0.1562
     91  C          8.7810    5.4510  -12.8520 C.2    75  ALA75       0.2260
     92  O          9.2080    4.6260  -13.6910 O.2    75  ALA75      -0.2867
     93  CB         9.2930    7.8400  -13.2880 C.3    75  ALA75       0.0290
@<TRIPOS>BOND
     1    42    39    1
     2    42    43    1
     3    39    38    1
     4    39    40    1
     5    43    44    1
     6    44    38    1
     7    38    29   am
     8    30    29    2
     9    40    41    2
    10    29    28    1
    11    50    49    1
    12    92    91    2
    13    93    90    1
    14    27    28    1
    15    28    31    1
    16    91    90    1
    17    45    46    1
    18    49    46    1
    19    49    51    1
    20    90    89    1
    21    46    47    1
    22    31    32    1
    23    32    34   ar
    24    32    33   ar
    25    34    36   ar
    26    47    52   am
    27    47    48    2
    28    19    18    2
    29    33    35   ar
    30    36    37   ar
    31    52    53    1
    32    18    17    1
    33    35    37   ar
    34    17    16    1
    35    17    20    1
    36     7     5    1
    37    53    56    1
    38    53    54    1
    39     5     6    1
    40     5     2    1
    41     1     2    1
    42    56    57    1
    43    55    54    2
    44     2     3    1
    45    54    63   am
    46    20    21    1
    47     3     4    2
    48    82    81    2
    49    57    59   ar
    50    57    58   ar
    51    23    21   ar
    52    23    25   ar
    53    88    86   ar
    54    88    87   ar
    55    81    80    1
    56    63    64    1
    57    86    84   ar
    58    21    22   ar
    59    59    61   ar
    60    87    85   ar
    61    58    60   ar
    62    25    26   ar
    63    64    67    1
    64    64    65    1
    65    84    85   ar
    66    84    83    1
    67    80    83    1
    68    80    79    1
    69    61    62   ar
    70    22    24   ar
    71    60    62   ar
    72    65    68   am
    73    65    66    2
    74    26    24   ar
    75     8     9    1
    76    73    72    1
    77    68    69    1
    78    69    72    1
    79    69    70    1
    80    12     9    1
    81    12    13    1
    82     9    10    1
    83    72    74    1
    84    10    11    2
    85    70    75   am
    86    70    71    2
    87    15    13    1
    88    13    14    1
    89    75    76    1
    90    76    77    1
    91    77    78    2
