@<TRIPOS>MOLECULE
tmp/3kvzE00.pdb
 85 81 0 0 0
SMALL
GASTEIGER

@<TRIPOS>ATOM
      1  N          3.9480   10.4290    4.6980 N.3    39  GLY39      -0.1225
      2  CA         4.0270   10.5740    3.2360 C.3    39  GLY39       0.1811
      3  C          3.2850   11.7780    2.6660 C.2    39  GLY39       0.2280
      4  O          3.6130   12.2580    1.5640 O.2    39  GLY39      -0.2866
      5  N          5.6830   14.5910    3.5900 N.3    42  VAL42      -0.1231
      6  CA         6.6450   14.5430    2.5110 C.3    42  VAL42       0.1692
      7  C          6.1240   15.2560    1.2390 C.2    42  VAL42       0.2592
      8  O          6.8760   15.9700    0.6010 O.2    42  VAL42      -0.2718
      9  CB         7.1190   13.0830    2.2450 C.3    42  VAL42       0.0266
     10  CG1        7.7410   12.9330    0.8530 C.3    42  VAL42       0.0020
     11  CG2        8.1050   12.6540    3.3270 C.3    42  VAL42       0.0020
     12  N          4.8520   15.0810    0.8850 N.am   43  GLY43      -0.1957
     13  CA         4.2820   15.7540   -0.2980 C.3    43  GLY43       0.1869
     14  C          4.2070   17.2620   -0.0870 C.2    43  GLY43       0.2309
     15  O          4.4960   18.0360   -0.9950 O.2    43  GLY43      -0.2863
     16  N          7.9120   18.5140   -0.4800 N.3    46  GLU46      -0.1231
     17  CA         8.0570   18.5670   -1.9570 C.3    46  GLU46       0.1699
     18  C          7.3500   19.7560   -2.5760 C.2    46  GLU46       0.2592
     19  O          7.9260   20.4940   -3.3820 O.2    46  GLU46      -0.2718
     20  CB         7.5690   17.2790   -2.6480 C.3    46  GLU46       0.0402
     21  CG         8.4120   16.0530   -2.3320 C.3    46  GLU46       0.1161
     22  CD         8.2090   14.8530   -3.2650 C.2    46  GLU46       0.3649
     23  OE1        8.1040   14.9950   -4.5180 O.co2  46  GLU46      -0.2457
     24  OE2        8.2350   13.7280   -2.7220 O.co2  46  GLU46      -0.2457
     25  N          6.0720   19.8970   -2.2220 N.am   47  TRP47      -0.1976
     26  CA         5.2200   20.9700   -2.7390 C.3    47  TRP47       0.1640
     27  C          5.8290   22.3620   -2.5920 C.2    47  TRP47       0.2290
     28  O          5.8470   23.1570   -3.5640 O.2    47  TRP47      -0.2864
     29  CB         3.8610   20.9030   -2.0630 C.3    47  TRP47       0.0576
     30  CG         2.7820   21.7680   -2.6510 C.ar   47  TRP47       0.0006
     31  CD1        2.8480   22.5500   -3.7880 C.ar   47  TRP47       0.0946
     32  CD2        1.4510   21.8900   -2.1520 C.ar   47  TRP47       0.0152
     33  NE1        1.6440   23.1680   -3.9870 N.ar   47  TRP47      -0.2442
     34  CE2        0.7660   22.7750   -3.0050 C.ar   47  TRP47       0.0810
     35  CE3        0.7720   21.3390   -1.0550 C.ar   47  TRP47       0.0012
     36  CZ2       -0.5800   23.1150   -2.8050 C.ar   47  TRP47       0.0191
     37  CZ3       -0.5710   21.6830   -0.8520 C.ar   47  TRP47       0.0001
     38  CH2       -1.2210   22.5680   -1.7190 C.ar   47  TRP47       0.0015
     39  N          8.6780   22.6920   -4.9430 N.3    50  VAL50      -0.1245
     40  CA         8.1530   22.8420   -6.3100 C.3    50  VAL50       0.1561
     41  C          7.7270   24.2930   -6.5000 C.2    50  VAL50       0.2260
     42  O          8.0270   24.8950   -7.5380 O.2    50  VAL50      -0.2867
     43  CB         7.0290   21.8310   -6.6090 C.3    50  VAL50       0.0252
     44  CG1        6.2100   22.2100   -7.8490 C.3    50  VAL50       0.0019
     45  CG2        7.6430   20.4850   -6.8100 C.3    50  VAL50       0.0019
     46  N         10.0980   19.3060  -12.5770 N.3    63  SER63      -0.1202
     47  CA        11.0320   18.6220  -11.7090 C.3    63  SER63       0.2020
     48  C         10.3780   17.3880  -11.1150 C.2    63  SER63       0.2619
     49  O          9.1450   17.2890  -11.0110 O.2    63  SER63      -0.2717
     50  CB        11.5750   19.5500  -10.6060 C.3    63  SER63       0.2103
     51  OG        10.6390   19.8080   -9.5780 O.3    63  SER63      -0.2182
     52  N         11.2370   16.4450  -10.7540 N.am   64  LEU64      -0.1965
     53  CA        10.8650   15.2880   -9.9570 C.3    64  LEU64       0.1728
     54  C         11.6790   15.2830   -8.6420 C.2    64  LEU64       0.2616
     55  O         12.8370   15.7290   -8.6120 O.2    64  LEU64      -0.2715
     56  CB        11.2050   14.0360  -10.7530 C.3    64  LEU64       0.0311
     57  CG        10.8230   13.9330  -12.2280 C.3    64  LEU64       0.0022
     58  CD1       11.8760   13.0460  -12.8910 C.3    64  LEU64       0.0001
     59  CD2        9.4690   13.2910  -12.3720 C.3    64  LEU64       0.0001
     60  N         11.1030   14.7240   -7.5840 N.am   65  GLY65      -0.1955
     61  CA        11.8070   14.5630   -6.3160 C.3    65  GLY65       0.1869
     62  C         12.7010   13.3500   -6.4340 C.2    65  GLY65       0.2309
     63  O         12.2260   12.2860   -6.7930 O.2    65  GLY65      -0.2863
     64  N         15.6960   17.5240   -5.6900 N.3   116  ARG116     -0.1245
     65  CA        14.8880   17.4600   -6.9020 C.3   116  ARG116      0.1563
     66  C         15.7850   17.6180   -8.1290 C.2   116  ARG116      0.2260
     67  O         16.8440   18.2500   -8.0450 O.2   116  ARG116     -0.2867
     68  CB        13.8510   18.5880   -6.8960 C.3   116  ARG116      0.0307
     69  CG        13.0330   18.6740   -5.6130 C.3   116  ARG116      0.0489
     70  CD        11.7930   19.5920   -5.7420 C.3   116  ARG116      0.2205
     71  NE        10.9260   19.1330   -6.8260 N.pl3 116  ARG116     -0.0865
     72  CZ        10.0260   18.1540   -6.7090 C.cat 116  ARG116      0.5346
     73  NH1        9.8270   17.5180   -5.5530 N.pl3 116  ARG116      0.1354
     74  NH2        9.3240   17.7930   -7.7720 N.pl3 116  ARG116      0.1354
     75  N         11.1220   13.3020  -20.6960 N.3   124  PHE124     -0.1241
     76  CA        10.7980   12.4570  -19.5490 C.3   124  PHE124      0.1605
     77  C          9.5120   11.6140  -19.7540 C.2   124  PHE124      0.2264
     78  O          9.5070   10.3980  -19.4710 O.2   124  PHE124     -0.2867
     79  CB        10.7190   13.2910  -18.2510 C.3   124  PHE124      0.0534
     80  CG        10.2390   12.5090  -17.0810 C.ar  124  PHE124     -0.0203
     81  CD1       11.1000   11.6690  -16.3980 C.ar  124  PHE124     -0.0042
     82  CD2        8.9070   12.5480  -16.7090 C.ar  124  PHE124     -0.0042
     83  CE1       10.6330   10.9040  -15.3250 C.ar  124  PHE124     -0.0003
     84  CE2        8.4580   11.7980  -15.6540 C.ar  124  PHE124     -0.0003
     85  CZ         9.3230   10.9700  -14.9740 C.ar  124  PHE124     -0.0000
@<TRIPOS>BOND
     1    75    76    1
     2    77    76    1
     3    77    78    2
     4    76    79    1
     5    79    80    1
     6    80    82   ar
     7    80    81   ar
     8    82    84   ar
     9    81    83   ar
    10    84    85   ar
    11    83    85   ar
    12    58    57    1
    13    46    47    1
    14    59    57    1
    15    57    56    1
    16    47    48    1
    17    47    50    1
    18    48    49    2
    19    48    52   am
    20    52    53    1
    21    56    53    1
    22    50    51    1
    23    53    54    1
    24    54    55    2
    25    54    60   am
    26    66    67    2
    27    66    65    1
    28    44    43    1
    29    74    72    1
    30    60    61    1
    31    42    41    2
    32    65    68    1
    33    65    64    1
    34    68    69    1
    35    71    72    2
    36    71    70    1
    37    45    43    1
    38    63    62    2
    39    72    73    1
    40    43    40    1
    41    41    40    1
    42    62    61    1
    43    40    39    1
    44    70    69    1
    45    23    22   ar
    46    33    31   ar
    47    33    34   ar
    48    31    30   ar
    49    28    27    2
    50    19    18    2
    51    22    24   ar
    52    22    21    1
    53    34    36   ar
    54    34    32   ar
    55    36    38   ar
    56    26    27    1
    57    26    25    1
    58    26    29    1
    59    30    32   ar
    60    30    29    1
    61    20    21    1
    62    20    17    1
    63    18    25   am
    64    18    17    1
    65    32    35   ar
    66    17    16    1
    67    38    37   ar
    68    35    37   ar
    69    15    14    2
    70    13    14    1
    71    13    12    1
    72     8     7    2
    73    10     9    1
    74    12     7   am
    75     7     6    1
    76     4     3    2
    77     9     6    1
    78     9    11    1
    79     6     5    1
    80     3     2    1
    81     2     1    1
