@<TRIPOS>MOLECULE
tmp/3kw0C00.pdb
 118 115 0 0 0
SMALL
GASTEIGER

@<TRIPOS>ATOM
      1  N         -5.0500   15.7440   17.0500 N.3    37  TYR37      -0.1241
      2  CA        -6.0350   16.2770   17.9940 C.3    37  TYR37       0.1605
      3  C         -6.3860   15.1860   18.9970 C.2    37  TYR37       0.2264
      4  O         -6.2100   14.0100   18.7180 O.2    37  TYR37      -0.2867
      5  CB        -7.2870   16.7540   17.2330 C.3    37  TYR37       0.0534
      6  CG        -6.9480   17.7750   16.1590 C.ar   37  TYR37      -0.0201
      7  CD1       -6.7780   19.1300   16.4770 C.ar   37  TYR37      -0.0009
      8  CD2       -6.7380   17.3820   14.8460 C.ar   37  TYR37      -0.0009
      9  CE1       -6.4420   20.0600   15.5190 C.ar   37  TYR37       0.0417
     10  CE2       -6.3890   18.3130   13.8680 C.ar   37  TYR37       0.0417
     11  CZ        -6.2390   19.6620   14.2090 C.ar   37  TYR37       0.1957
     12  OH        -5.8930   20.5890   13.2260 O.3    37  TYR37      -0.2866
     13  N         -9.3670   14.0660   20.0640 N.3    39  VAL39      -0.1231
     14  CA       -10.3230   13.1360   19.4320 C.3    39  VAL39       0.1692
     15  C         -9.6310   12.2240   18.3940 C.2    39  VAL39       0.2592
     16  O         -9.9430   11.0390   18.3090 O.2    39  VAL39      -0.2718
     17  CB       -11.5590   13.8540   18.7970 C.3    39  VAL39       0.0266
     18  CG1      -12.3970   12.8650   18.0030 C.3    39  VAL39       0.0020
     19  CG2      -12.3830   14.5430   19.8850 C.3    39  VAL39       0.0020
     20  N         -8.6890   12.7640   17.6360 N.am   40  SER40      -0.1952
     21  CA        -7.9750   11.9640   16.6410 C.3    40  SER40       0.1924
     22  C         -7.2090   10.8200   17.3300 C.2    40  SER40       0.2314
     23  O         -7.2810    9.6430   16.9260 O.2    40  SER40      -0.2863
     24  CB        -7.0200   12.8410   15.8170 C.3    40  SER40       0.2116
     25  OG        -7.7310   13.8550   15.1180 O.3    40  SER40      -0.2180
     26  N         -9.5650    8.0300   18.4600 N.3    43  ILE43      -0.1245
     27  CA        -9.8480    7.2040   17.2860 C.3    43  ILE43       0.1561
     28  C         -8.6360    6.2720   16.9980 C.2    43  ILE43       0.2260
     29  O         -8.7920    5.0550   16.8030 O.2    43  ILE43      -0.2867
     30  CB       -10.1930    8.0780   16.0300 C.3    43  ILE43       0.0252
     31  CG1      -11.4890    8.8250   16.2560 C.3    43  ILE43       0.0019
     32  CG2      -10.3900    7.2090   14.7850 C.3    43  ILE43       0.0019
     33  CD1      -11.7550    9.9200   15.2420 C.3    43  ILE43       0.0001
     34  N         -7.1910    8.7300   11.7170 N.3    51  SER51      -0.1202
     35  CA        -8.2120    9.2980   12.5790 C.3    51  SER51       0.2020
     36  C         -9.4160    9.8420   11.8560 C.2    51  SER51       0.2618
     37  O        -10.4320   10.1410   12.4830 O.2    51  SER51      -0.2717
     38  CB        -7.6070   10.4540   13.3450 C.3    51  SER51       0.2103
     39  OG        -7.0880   11.4250   12.4550 O.3    51  SER51      -0.2182
     40  N         -9.3240   10.0330   10.5520 N.am   52  HIS52      -0.1975
     41  CA       -10.4080   10.6870    9.8360 C.3    52  HIS52       0.1656
     42  C        -10.5700   10.1820    8.4140 C.2    52  HIS52       0.2291
     43  O         -9.6260    9.6940    7.7890 O.2    52  HIS52      -0.2864
     44  CB       -10.1580   12.1800    9.7940 C.3    52  HIS52       0.0771
     45  CG       -11.3330   12.9670    9.3290 C.ar   52  HIS52       0.0820
     46  ND1      -12.5590   12.9000    9.9520 N.ar   52  HIS52      -0.2267
     47  CD2      -11.4810   13.8150    8.2770 C.ar   52  HIS52       0.1154
     48  CE1      -13.4150   13.6720    9.3020 C.ar   52  HIS52       0.1986
     49  NE2      -12.7840   14.2390    8.2830 N.ar   52  HIS52      -0.2212
     50  N        -17.4800   15.5110   10.8620 N.3    68  VAL68      -0.1231
     51  CA       -16.3820   15.8200   11.7940 C.3    68  VAL68       0.1692
     52  C        -16.9690   15.8510   13.1890 C.2    68  VAL68       0.2592
     53  O        -17.8830   16.6170   13.4860 O.2    68  VAL68      -0.2718
     54  CB       -15.6990   17.1210   11.4450 C.3    68  VAL68       0.0266
     55  CG1      -14.6380   17.4540   12.4610 C.3    68  VAL68       0.0020
     56  CG2      -15.0750   17.0060   10.0450 C.3    68  VAL68       0.0020
     57  N        -16.4270   15.0130   14.0560 N.am   69  GLU69      -0.1966
     58  CA       -17.1260   14.6510   15.3080 C.3    69  GLU69       0.1733
     59  C        -17.3060   15.7670   16.3530 C.2    69  GLU69       0.2616
     60  O        -18.1790   15.6810   17.1990 O.2    69  GLU69      -0.2715
     61  CB       -16.4620   13.4130   15.9380 C.3    69  GLU69       0.0429
     62  CG       -16.4930   12.1670   15.0130 C.3    69  GLU69       0.1163
     63  CD       -15.2690   12.0230   14.0860 C.2    69  GLU69       0.3649
     64  OE1      -14.4630   12.9670   13.9610 O.co2  69  GLU69      -0.2457
     65  OE2      -15.1010   10.9530   13.4820 O.co2  69  GLU69      -0.2457
     66  N        -16.4800   16.8010   16.2870 N.am   70  ASP70      -0.1971
     67  CA       -16.6430   17.9770   17.1490 C.3    70  ASP70       0.1709
     68  C        -17.2990   19.1420   16.4240 C.2    70  ASP70       0.2293
     69  O        -17.1550   20.2920   16.8490 O.2    70  ASP70      -0.2864
     70  CB       -15.2870   18.4240   17.7290 C.3    70  ASP70       0.1436
     71  CG       -14.3000   18.9090   16.6750 C.2    70  ASP70       0.3671
     72  OD1      -14.5550   18.7330   15.4660 O.co2  70  ASP70      -0.2456
     73  OD2      -13.2370   19.4450   17.0750 O.co2  70  ASP70      -0.2456
     74  N         -8.4150   22.2760    4.9100 N.3    81  TYR81      -0.1241
     75  CA        -7.4560   21.3640    5.5150 C.3    81  TYR81       0.1605
     76  C         -6.0140   21.8450    5.2730 C.2    81  TYR81       0.2264
     77  O         -5.1650   21.7080    6.1600 O.2    81  TYR81      -0.2867
     78  CB        -7.6610   19.9140    5.0430 C.3    81  TYR81       0.0534
     79  CG        -8.7690   19.2000    5.7740 C.ar   81  TYR81      -0.0201
     80  CD1      -10.0800   19.2640    5.3220 C.ar   81  TYR81      -0.0009
     81  CD2       -8.5060   18.4240    6.9110 C.ar   81  TYR81      -0.0009
     82  CE1      -11.1390   18.5880    5.9980 C.ar   81  TYR81       0.0417
     83  CE2       -9.5540   17.7470    7.6090 C.ar   81  TYR81       0.0417
     84  CZ       -10.8740   17.8430    7.1390 C.ar   81  TYR81       0.1957
     85  OH       -11.9110   17.2040    7.7930 O.3    81  TYR81      -0.2866
     86  N         -7.8320   25.2180    8.8900 N.3    85  TYR85      -0.1227
     87  CA        -8.6150   24.1290    9.4550 C.3    85  TYR85       0.1736
     88  C         -9.4010   24.6420   10.6520 C.2    85  TYR85       0.2595
     89  O         -8.8400   25.1730   11.6300 O.2    85  TYR85      -0.2718
     90  CB        -7.7650   22.9190    9.8360 C.3    85  TYR85       0.0548
     91  CG        -8.5970   21.8100   10.4410 C.ar   85  TYR85      -0.0200
     92  CD1       -9.4940   21.0750    9.6700 C.ar   85  TYR85      -0.0009
     93  CD2       -8.4990   21.5100   11.7980 C.ar   85  TYR85      -0.0009
     94  CE1      -10.2880   20.0690   10.2360 C.ar   85  TYR85       0.0417
     95  CE2       -9.2610   20.5100   12.3680 C.ar   85  TYR85       0.0417
     96  CZ       -10.1590   19.7860   11.5870 C.ar   85  TYR85       0.1957
     97  OH       -10.9130   18.7900   12.1740 O.3    85  TYR85      -0.2866
     98  N        -10.7140   24.4970   10.5250 N.am   86  GLU86      -0.1979
     99  CA       -11.6760   24.9010   11.5280 C.3    86  GLU86       0.1602
    100  C        -11.4250   26.2680   12.1770 C.2    86  GLU86       0.2287
    101  O        -11.3790   26.3880   13.3910 O.2    86  GLU86      -0.2864
    102  CB       -11.8070   23.7810   12.5420 C.3    86  GLU86       0.0415
    103  CG       -13.2540   23.4810   12.8530 C.3    86  GLU86       0.1163
    104  CD       -13.5720   22.0070   12.7370 C.2    86  GLU86       0.3649
    105  OE1      -13.1640   21.2160   13.6240 O.co2  86  GLU86      -0.2457
    106  OE2      -14.2470   21.6630   11.7580 O.co2  86  GLU86      -0.2457
    107  N         -4.3710   21.7720    8.8000 N.3    92  TYR92      -0.1241
    108  CA        -4.7340   20.6410    9.6660 C.3    92  TYR92       0.1605
    109  C         -3.4920   20.0750   10.3390 C.2    92  TYR92       0.2264
    110  O         -2.5100   19.7870    9.6650 O.2    92  TYR92      -0.2867
    111  CB        -5.3560   19.5320    8.8220 C.3    92  TYR92       0.0534
    112  CG        -5.8060   18.2740    9.5430 C.ar   92  TYR92      -0.0201
    113  CD1       -7.1020   18.1610   10.0340 C.ar   92  TYR92      -0.0009
    114  CD2       -4.9610   17.1690    9.6730 C.ar   92  TYR92      -0.0009
    115  CE1       -7.5500   17.0020   10.6670 C.ar   92  TYR92       0.0417
    116  CE2       -5.4010   15.9850   10.3100 C.ar   92  TYR92       0.0417
    117  CZ        -6.7110   15.9170   10.8000 C.ar   92  TYR92       0.1957
    118  OH        -7.1910   14.7810   11.4160 O.3    92  TYR92      -0.2866
@<TRIPOS>BOND
     1    74    75    1
     2    78    75    1
     3    78    79    1
     4    76    75    1
     5    76    77    2
     6    80    79   ar
     7    80    82   ar
     8    79    81   ar
     9    82    84   ar
    10    81    83   ar
    11    84    83   ar
    12    84    85    1
    13    43    42    2
    14    47    49   ar
    15    47    45   ar
    16    49    48   ar
    17    42    41    1
    18   107   108    1
    19   111   112    1
    20   111   108    1
    21    86    87    1
    22    48    46   ar
    23    45    44    1
    24    45    46   ar
    25    87    90    1
    26    87    88    1
    27   112   114   ar
    28   112   113   ar
    29   110   109    2
    30   108   109    1
    31    92    94   ar
    32    92    91   ar
    33   114   116   ar
    34    44    41    1
    35    41    40    1
    36    90    91    1
    37   113   115   ar
    38    56    54    1
    39    94    96   ar
    40   116   117   ar
    41    91    93   ar
    42    98    88   am
    43    98    99    1
    44    40    36   am
    45    88    89    2
    46   115   117   ar
    47   117   118    1
    48    50    51    1
    49    54    51    1
    50    54    55    1
    51    99   100    1
    52    99   102    1
    53    96    97    1
    54    96    95   ar
    55    34    35    1
    56   106   104   ar
    57    51    52    1
    58    93    95   ar
    59    36    37    2
    60    36    35    1
    61   100   101    2
    62    39    38    1
    63   102   103    1
    64    35    38    1
    65   104   103    1
    66   104   105   ar
    67    52    53    2
    68    52    57   am
    69    12    11    1
    70    65    63   ar
    71    10    11   ar
    72    10     8   ar
    73    64    63   ar
    74    57    58    1
    75    63    62    1
    76    11     9   ar
    77    32    30    1
    78     8     6   ar
    79    62    61    1
    80    25    24    1
    81    33    31    1
    82    58    61    1
    83    58    59    1
    84    72    71   ar
    85     9     7   ar
    86    24    21    1
    87    30    31    1
    88    30    27    1
    89     6     7   ar
    90     6     5    1
    91    66    59   am
    92    66    67    1
    93    59    60    2
    94    68    69    2
    95    68    67    1
    96    21    22    1
    97    21    20    1
    98    71    73   ar
    99    71    70    1
   100    29    28    2
   101    23    22    2
   102    28    27    1
   103     1     2    1
   104    67    70    1
   105     5     2    1
   106    27    26    1
   107    20    15   am
   108     2     3    1
   109    18    17    1
   110    16    15    2
   111    15    14    1
   112     4     3    2
   113    17    14    1
   114    17    19    1
   115    14    13    1
