@<TRIPOS>MOLECULE
tmp/3kw2A00.pdb
 161 157 0 0 0
SMALL
GASTEIGER

@<TRIPOS>ATOM
      1  N          2.7990   40.5400   58.7760 N.3   158  ALA158     -0.1231
      2  CA         2.8120   41.9990   58.7170 C.3   158  ALA158      0.1694
      3  C          3.6190   42.4880   57.5070 C.2   158  ALA158      0.2592
      4  O          4.6840   41.9650   57.2370 O.2   158  ALA158     -0.2718
      5  CB         3.3900   42.5800   60.0200 C.3   158  ALA158      0.0304
      6  N          3.1050   43.4620   56.7640 N.am  159  TYR159     -0.1962
      7  CA         3.9080   44.1260   55.7170 C.3   159  TYR159      0.1771
      8  C          3.4750   45.5770   55.4960 C.2   159  TYR159      0.2619
      9  O          2.3400   45.9330   55.8080 O.2   159  TYR159     -0.2715
     10  CB         3.9030   43.3380   54.3910 C.3   159  TYR159      0.0574
     11  CG         2.5290   43.0280   53.8690 C.ar  159  TYR159     -0.0198
     12  CD1        1.8780   41.8650   54.2540 C.ar  159  TYR159     -0.0009
     13  CD2        1.8680   43.9130   53.0030 C.ar  159  TYR159     -0.0009
     14  CE1        0.5940   41.5730   53.7900 C.ar  159  TYR159      0.0417
     15  CE2        0.5790   43.6300   52.5160 C.ar  159  TYR159      0.0417
     16  CZ        -0.0550   42.4520   52.9180 C.ar  159  TYR159      0.1957
     17  OH        -1.3290   42.1360   52.4710 O.3   159  TYR159     -0.2866
     18  N          4.3790   46.4020   54.9650 N.am  160  VAL160     -0.1963
     19  CA         4.1480   47.8560   54.8930 C.3   160  VAL160      0.1727
     20  C          4.3050   48.4500   53.5000 C.2   160  VAL160      0.2616
     21  O          3.4070   49.1650   53.0250 O.2   160  VAL160     -0.2715
     22  CB         5.1510   48.6780   55.7550 C.3   160  VAL160      0.0290
     23  CG1        4.4120   49.7600   56.5750 C.3   160  VAL160      0.0023
     24  CG2        6.0430   47.7810   56.6200 C.3   160  VAL160      0.0023
     25  N          5.4640   48.1740   52.8820 N.am  161  ASP161     -0.1971
     26  CA         5.9580   48.8970   51.6990 C.3   161  ASP161      0.1709
     27  C          4.8980   48.9810   50.6010 C.2   161  ASP161      0.2293
     28  O          4.2710   47.9730   50.2610 O.2   161  ASP161     -0.2864
     29  CB         7.2610   48.2650   51.1690 C.3   161  ASP161      0.1436
     30  CG         8.4940   48.5580   52.0680 C.2   161  ASP161      0.3671
     31  OD1        8.3300   48.9970   53.2320 O.co2 161  ASP161     -0.2456
     32  OD2        9.6430   48.3420   51.6030 O.co2 161  ASP161     -0.2456
     33  N         -5.1960   44.9640   54.0900 N.3   167  ARG167     -0.1245
     34  CA        -4.6460   44.4220   55.3540 C.3   167  ARG167      0.1563
     35  C         -5.5850   44.1470   56.5660 C.2   167  ARG167      0.2260
     36  O         -5.7560   42.9910   56.9360 O.2   167  ARG167     -0.2867
     37  CB        -3.3670   45.1650   55.7610 C.3   167  ARG167      0.0307
     38  CG        -2.1250   44.5620   55.1270 C.3   167  ARG167      0.0489
     39  CD        -1.3300   45.6190   54.3950 C.3   167  ARG167      0.2205
     40  NE        -0.3630   46.2830   55.2580 N.pl3 167  ARG167     -0.0865
     41  CZ        -0.3710   47.5750   55.5640 C.cat 167  ARG167      0.5346
     42  NH1       -1.3080   48.3800   55.0670 N.pl3 167  ARG167      0.1354
     43  NH2        0.5700   48.0630   56.3710 N.pl3 167  ARG167      0.1354
     44  N          7.2750   39.0420   60.7840 N.3   184  ILE184     -0.1231
     45  CA         7.6810   40.4310   60.5030 C.3   184  ILE184      0.1692
     46  C          8.9260   40.4230   59.6060 C.2   184  ILE184      0.2593
     47  O          9.8820   39.6980   59.8820 O.2   184  ILE184     -0.2718
     48  CB         7.9710   41.2250   61.8100 C.3   184  ILE184      0.0266
     49  CG1        6.6600   41.4770   62.5750 C.3   184  ILE184      0.0019
     50  CG2        8.5880   42.5750   61.5130 C.3   184  ILE184      0.0020
     51  CD1        6.7490   41.1020   64.0060 C.3   184  ILE184      0.0001
     52  N          8.8760   41.1830   58.5170 N.am  185  GLY185     -0.1943
     53  CA         9.9360   41.1610   57.5080 C.3   185  GLY185      0.1998
     54  C         11.1230   42.0750   57.6930 C.2   185  GLY185      0.2481
     55  O         11.1780   42.8310   58.6490 O.2   185  GLY185     -0.2729
     56  N         12.0910   42.0100   56.7570 N.am  186  PRO186     -0.2715
     57  CA        13.2920   42.8370   56.8150 C.3   186  PRO186      0.1536
     58  C         13.0320   44.2660   56.3410 C.2   186  PRO186      0.2598
     59  O         11.9370   44.5960   55.8940 O.2   186  PRO186     -0.2715
     60  CB        14.2570   42.1290   55.8390 C.3   186  PRO186      0.0310
     61  CG        13.3870   41.4110   54.8970 C.3   186  PRO186      0.0237
     62  CD        12.1390   41.0300   55.6540 C.3   186  PRO186      0.0939
     63  N         14.0660   45.0870   56.4310 N.am  187  GLU187     -0.1978
     64  CA        14.0220   46.4610   55.9410 C.3   187  GLU187      0.1602
     65  C         13.4230   46.5810   54.5230 C.2   187  GLU187      0.2287
     66  O         12.6660   47.5060   54.2420 O.2   187  GLU187     -0.2864
     67  CB        15.4360   47.0440   55.9990 C.3   187  GLU187      0.0415
     68  CG        15.5120   48.4430   56.5770 C.3   187  GLU187      0.1163
     69  CD        16.5330   49.2960   55.8620 C.2   187  GLU187      0.3649
     70  OE1       17.5020   48.7340   55.2840 O.co2 187  GLU187     -0.2457
     71  OE2       16.3580   50.5310   55.8610 O.co2 187  GLU187     -0.2457
     72  N         11.1590   44.5730   53.2900 N.3   189  ASP189     -0.1239
     73  CA         9.8740   43.8400   53.3360 C.3   189  ASP189      0.1674
     74  C          9.9170   42.4280   52.7560 C.2   189  ASP189      0.2266
     75  O         10.9200   41.9820   52.1790 O.2   189  ASP189     -0.2867
     76  CB         8.6990   44.6220   52.7060 C.3   189  ASP189      0.1410
     77  CG         7.3960   44.5410   53.5620 C.2   189  ASP189      0.3668
     78  OD1        7.1420   43.5180   54.2500 O.co2 189  ASP189     -0.2456
     79  OD2        6.6270   45.5270   53.5550 O.co2 189  ASP189     -0.2456
     80  N         -1.6880   41.6710   58.0010 N.3   206  VAL206     -0.1231
     81  CA        -2.0300   42.7320   58.9330 C.3   206  VAL206      0.1692
     82  C         -1.1220   43.9120   58.8070 C.2   206  VAL206      0.2593
     83  O          0.0470   43.8020   58.3910 O.2   206  VAL206     -0.2718
     84  CB        -1.9520   42.2980   60.3950 C.3   206  VAL206      0.0266
     85  CG1       -2.8940   41.1030   60.6740 C.3   206  VAL206      0.0020
     86  CG2       -0.4880   41.9910   60.7930 C.3   206  VAL206      0.0020
     87  N         -1.6780   45.0480   59.2050 N.am  207  SER207     -0.1938
     88  CA        -0.9240   46.2400   59.4240 C.3   207  SER207      0.2055
     89  C         -0.7320   46.3130   60.9370 C.2   207  SER207      0.2643
     90  O         -1.5820   45.8130   61.7100 O.2   207  SER207     -0.2714
     91  CB        -1.7180   47.4520   58.9070 C.3   207  SER207      0.2130
     92  OG        -1.2300   48.6450   59.4940 O.3   207  SER207     -0.2179
     93  N          0.3640   46.9360   61.3590 N.am  208  LEU208     -0.1963
     94  CA         0.6380   47.1450   62.7980 C.3   208  LEU208      0.1728
     95  C          0.3000   48.5880   63.2240 C.2   208  LEU208      0.2617
     96  O          0.3960   48.9380   64.4140 O.2   208  LEU208     -0.2715
     97  CB         2.0970   46.8050   63.1400 C.3   208  LEU208      0.0311
     98  CG         2.6120   45.3730   62.9040 C.3   208  LEU208      0.0022
     99  CD1        4.1000   45.2320   63.3280 C.3   208  LEU208      0.0001
    100  CD2        1.7650   44.3700   63.6870 C.3   208  LEU208      0.0001
    101  N         -0.0830   49.4180   62.2420 N.am  209  GLY209     -0.1940
    102  CA        -0.3600   50.8350   62.4660 C.3   209  GLY209      0.2014
    103  C          0.0960   51.6570   61.2670 C.2   209  GLY209      0.2639
    104  O          0.6490   51.1260   60.3050 O.2   209  GLY209     -0.2714
    105  N         -0.0730   52.9620   61.3620 N.am  210  GLU210     -0.1963
    106  CA         0.1760   53.8550   60.2290 C.3   210  GLU210      0.1733
    107  C          1.6010   54.3940   60.1660 C.2   210  GLU210      0.2617
    108  O          1.9870   54.9700   59.1590 O.2   210  GLU210     -0.2715
    109  CB        -0.8500   55.0030   60.2380 C.3   210  GLU210      0.0429
    110  CG        -2.1910   54.5820   59.6630 C.3   210  GLU210      0.1163
    111  CD        -2.1950   54.6140   58.1260 C.2   210  GLU210      0.3649
    112  OE1       -2.2520   55.7420   57.5460 O.co2 210  GLU210     -0.2457
    113  OE2       -2.1230   53.5170   57.4990 O.co2 210  GLU210     -0.2457
    114  N          2.3920   54.1930   61.2270 N.am  211  SER211     -0.1936
    115  CA         3.8010   54.6090   61.2390 C.3   211  SER211      0.2055
    116  C          4.7140   53.5690   60.6100 C.2   211  SER211      0.2643
    117  O          4.4780   52.3550   60.7090 O.2   211  SER211     -0.2714
    118  CB         4.2650   54.8470   62.6730 C.3   211  SER211      0.2130
    119  OG         3.6010   55.9700   63.2180 O.3   211  SER211     -0.2179
    120  N          5.7640   54.0520   59.9770 N.am  212  ARG212     -0.1963
    121  CA         6.7950   53.1990   59.4040 C.3   212  ARG212      0.1729
    122  C          7.8710   52.8890   60.4790 C.2   212  ARG212      0.2616
    123  O          8.6260   53.7650   60.9130 O.2   212  ARG212     -0.2715
    124  CB         7.2840   53.8660   58.1010 C.3   212  ARG212      0.0348
    125  CG         8.7260   54.0650   57.8440 C.3   212  ARG212      0.0492
    126  CD         9.4170   52.9010   57.2410 C.3   212  ARG212      0.2205
    127  NE        10.1220   53.2720   56.0070 N.pl3 212  ARG212     -0.0865
    128  CZ         9.8590   52.7250   54.8140 C.cat 212  ARG212      0.5346
    129  NH1        8.9230   51.7790   54.6910 N.pl3 212  ARG212      0.1354
    130  NH2       10.5440   53.1020   53.7460 N.pl3 212  ARG212      0.1354
    131  N          7.8550   51.6430   60.9520 N.am  213  LEU213     -0.1963
    132  CA         8.6690   51.1800   62.0740 C.3   213  LEU213      0.1728
    133  C          9.9130   50.4660   61.6070 C.2   213  LEU213      0.2616
    134  O          9.8770   49.7810   60.6010 O.2   213  LEU213     -0.2715
    135  CB         7.8340   50.2090   62.9310 C.3   213  LEU213      0.0311
    136  CG         6.4660   50.6810   63.4460 C.3   213  LEU213      0.0022
    137  CD1        5.7300   49.5950   64.2910 C.3   213  LEU213      0.0001
    138  CD2        6.6160   52.0130   64.2540 C.3   213  LEU213      0.0001
    139  N         11.0090   50.5800   62.3660 N.am  214  ARG214     -0.1963
    140  CA        12.1680   49.7230   62.1420 C.3   214  ARG214      0.1729
    141  C         11.7760   48.3040   62.4850 C.2   214  ARG214      0.2616
    142  O         10.8290   48.0570   63.2490 O.2   214  ARG214     -0.2715
    143  CB        13.3490   50.1510   63.0560 C.3   214  ARG214      0.0348
    144  CG        14.0700   51.4190   62.6040 C.3   214  ARG214      0.0492
    145  CD        15.1400   51.7770   63.6280 C.3   214  ARG214      0.2205
    146  NE        16.0080   52.8960   63.2360 N.pl3 214  ARG214     -0.0865
    147  CZ        17.1070   52.7830   62.4900 C.cat 214  ARG214      0.5346
    148  NH1       17.4920   51.6060   62.0140 N.pl3 214  ARG214      0.1354
    149  NH2       17.8230   53.8540   62.2180 N.pl3 214  ARG214      0.1354
    150  N         12.5050   47.3660   61.9070 N.am  215  THR215     -0.1951
    151  CA        12.2400   45.9520   62.1330 C.3   215  THR215      0.1897
    152  C         12.0900   45.6190   63.6150 C.2   215  THR215      0.2313
    153  O         11.1360   44.9870   64.0070 O.2   215  THR215     -0.2863
    154  CB        13.3760   45.0900   61.5690 C.3   215  THR215      0.1794
    155  OG1       13.4280   45.2780   60.1780 O.3   215  THR215     -0.2208
    156  CG2       13.1120   43.5920   61.8660 C.3   215  THR215      0.0378
    157  N          9.0260   46.9710   65.1380 N.3   218  ALA218     -0.1245
    158  CA         7.8190   46.2320   64.7070 C.3   218  ALA218      0.1562
    159  C          7.6730   44.9270   65.5070 C.2   218  ALA218      0.2260
    160  O          6.5510   44.5680   65.8470 O.2   218  ALA218     -0.2867
    161  CB         7.8170   45.9570   63.1870 C.3   218  ALA218      0.0290
@<TRIPOS>BOND
     1    28    27    2
     2    27    26    1
     3    29    26    1
     4    29    30    1
     5    32    30   ar
     6    26    25    1
     7    30    31   ar
     8    75    74    2
     9    17    16    1
    10    15    16   ar
    11    15    13   ar
    12    76    73    1
    13    76    77    1
    14    74    73    1
    15    25    20   am
    16    16    14   ar
    17    13    11   ar
    18    21    20    2
    19    72    73    1
    20    20    19    1
    21    79    77   ar
    22    77    78   ar
    23   130   128    1
    24    14    12   ar
    25    11    12   ar
    26    11    10    1
    27    33    34    1
    28    66    65    2
    29    10     7    1
    30    39    38    1
    31    39    40    1
    32    65    64    1
    33   129   128    1
    34   128   127    2
    35    19    18    1
    36    19    22    1
    37    61    62    1
    38    61    60    1
    39    18     8   am
    40    42    41    1
    41    38    37    1
    42    40    41    2
    43    70    69   ar
    44    34    37    1
    45    34    35    1
    46     8     7    1
    47     8     9    2
    48    41    43    1
    49    62    56    1
    50     7     6    1
    51    22    23    1
    52    22    24    1
    53    60    57    1
    54    71    69   ar
    55    69    68    1
    56    59    58    2
    57    64    67    1
    58    64    63    1
    59    67    68    1
    60   127   126    1
    61    58    63   am
    62    58    57    1
    63    35    36    2
    64    56    57    1
    65    56    54   am
    66     6     3   am
    67     4     3    2
    68   126   125    1
    69   113   111   ar
    70     3     2    1
    71    53    54    1
    72    53    52    1
    73   112   111   ar
    74    54    55    2
    75   125   124    1
    76    80    81    1
    77   124   121    1
    78   111   110    1
    79    83    82    2
    80    52    46   am
    81     2     1    1
    82     2     5    1
    83    82    81    1
    84    82    87   am
    85    91    88    1
    86    91    92    1
    87    81    84    1
    88   108   107    2
    89    87    88    1
    90   121   120    1
    91   121   122    1
    92    88    89    1
    93    46    47    2
    94    46    45    1
    95   110   109    1
    96   120   116   am
    97   107   106    1
    98   107   114   am
    99   155   154    1
   100   106   109    1
   101   106   105    1
   102   104   103    2
   103    84    85    1
   104    84    86    1
   105   122   123    2
   106   122   131   am
   107    45    44    1
   108    45    48    1
   109   134   133    2
   110   116   117    2
   111   116   115    1
   112    89    93   am
   113    89    90    2
   114   131   132    1
   115   114   115    1
   116   115   118    1
   117   103   105   am
   118   103   102    1
   119    93    94    1
   120    50    48    1
   121   154   156    1
   122   154   151    1
   123   133   132    1
   124   133   139   am
   125    48    49    1
   126   150   151    1
   127   150   141   am
   128   148   147    1
   129   132   135    1
   130   151   152    1
   131   140   139    1
   132   140   141    1
   133   140   143    1
   134   149   147    1
   135   101   102    1
   136   101    95   am
   137   141   142    2
   138   147   146    2
   139    49    51    1
   140   144   143    1
   141   144   145    1
   142   118   119    1
   143    94    97    1
   144    94    95    1
   145    98    97    1
   146    98    99    1
   147    98   100    1
   148   135   136    1
   149   161   158    1
   150    95    96    2
   151   146   145    1
   152   136   138    1
   153   136   137    1
   154   152   153    2
   155   158   157    1
   156   158   159    1
   157   159   160    2
