@<TRIPOS>MOLECULE
tmp/3kw4A03.pdb
 149 141 0 0 0
SMALL
GASTEIGER

@<TRIPOS>ATOM
      1  N        -10.6970   38.0640   11.8500 N.3   150  SER150     -0.1217
      2  CA       -11.4240   36.8380   11.5050 C.3   150  SER150      0.1889
      3  C        -11.6060   36.7500   10.0030 C.2   150  SER150      0.2288
      4  O        -11.5060   35.6730    9.4070 O.2   150  SER150     -0.2866
      5  CB       -12.7910   36.8250   12.1620 C.3   150  SER150      0.2089
      6  OG       -12.7010   37.1920   13.5160 O.3   150  SER150     -0.2183
      7  N        -10.9280   33.8580    7.4290 N.3   154  CYS154     -0.1235
      8  CA       -12.0170   33.3570    6.5920 C.3   154  CYS154      0.1677
      9  C        -11.5410   33.4010    5.1530 C.2   154  CYS154      0.2270
     10  O        -11.6400   32.4240    4.4010 O.2   154  CYS154     -0.2867
     11  CB       -13.2610   34.2360    6.7050 C.3   154  CYS154      0.0956
     12  SG       -14.1880   34.1320    8.2430 S.3   154  CYS154     -0.0801
     13  N        -12.1310   29.9860    3.8790 N.3   158  PHE158     -0.1241
     14  CA       -13.4000   29.7850    3.1910 C.3   158  PHE158      0.1605
     15  C        -13.3770   30.4880    1.8430 C.2   158  PHE158      0.2264
     16  O        -14.3320   30.4010    1.0670 O.2   158  PHE158     -0.2867
     17  CB       -14.5690   30.3650    3.9860 C.3   158  PHE158      0.0534
     18  CG       -14.6410   29.9100    5.4010 C.ar  158  PHE158     -0.0203
     19  CD1      -14.5580   28.5740    5.7180 C.ar  158  PHE158     -0.0042
     20  CD2      -14.8300   30.8330    6.4230 C.ar  158  PHE158     -0.0042
     21  CE1      -14.6360   28.1650    7.0320 C.ar  158  PHE158     -0.0003
     22  CE2      -14.9140   30.4330    7.7390 C.ar  158  PHE158     -0.0003
     23  CZ       -14.8170   29.0970    8.0470 C.ar  158  PHE158     -0.0000
     24  N        -13.8870   33.4750    1.3320 N.3   160  LYS160     -0.1245
     25  CA       -14.7560   34.6530    1.3200 C.3   160  LYS160      0.1561
     26  C        -14.5700   35.5080    2.5780 C.2   160  LYS160      0.2260
     27  O        -14.0260   35.0450    3.5820 O.2   160  LYS160     -0.2867
     28  CB       -16.2270   34.2370    1.1660 C.3   160  LYS160      0.0271
     29  CG       -16.7730   33.4510    2.3560 C.3   160  LYS160      0.0035
     30  CD       -17.7660   32.3740    1.9320 C.3   160  LYS160      0.0206
     31  CE       -19.1120   32.9610    1.4930 C.3   160  LYS160      0.1093
     32  NZ       -19.9980   33.2920    2.6460 N.3   160  LYS160     -0.1314
     33  N        -16.6670   38.8860    5.0450 N.3   162  PHE162     -0.1241
     34  CA       -17.9940   39.1910    5.5670 C.3   162  PHE162      0.1605
     35  C        -18.1600   40.6620    5.8770 C.2   162  PHE162      0.2264
     36  O        -17.2540   41.2720    6.4230 O.2   162  PHE162     -0.2867
     37  CB       -18.2460   38.3680    6.8310 C.3   162  PHE162      0.0534
     38  CG       -18.3620   36.8960    6.5710 C.ar  162  PHE162     -0.0203
     39  CD1      -17.2750   36.0590    6.7330 C.ar  162  PHE162     -0.0042
     40  CD2      -19.5570   36.3510    6.1380 C.ar  162  PHE162     -0.0042
     41  CE1      -17.3760   34.6940    6.4820 C.ar  162  PHE162     -0.0003
     42  CE2      -19.6730   34.9830    5.8860 C.ar  162  PHE162     -0.0003
     43  CZ       -18.5780   34.1520    6.0570 C.ar  162  PHE162     -0.0000
     44  N        -22.8710   42.2410    8.9370 N.3   166  ASP166     -0.1239
     45  CA       -23.4940   40.9470    8.6830 C.3   166  ASP166      0.1674
     46  C        -23.9310   40.3060   10.0030 C.2   166  ASP166      0.2266
     47  O        -23.0960   39.8740   10.7930 O.2   166  ASP166     -0.2867
     48  CB       -22.5110   40.0440    7.9360 C.3   166  ASP166      0.1410
     49  CG       -23.1130   38.7100    7.5620 C.2   166  ASP166      0.3668
     50  OD1      -24.0340   38.2550    8.2720 O.co2 166  ASP166     -0.2456
     51  OD2      -22.6560   38.1060    6.5630 O.co2 166  ASP166     -0.2456
     52  N        -25.4450   37.4980   11.1480 N.3   168  VAL168     -0.1231
     53  CA       -25.1650   36.1420   11.6280 C.3   168  VAL168      0.1692
     54  C        -23.6540   35.8950   11.7510 C.2   168  VAL168      0.2592
     55  O        -23.1940   35.0450   12.5360 O.2   168  VAL168     -0.2718
     56  CB       -25.9190   35.0250   10.8420 C.3   168  VAL168      0.0266
     57  CG1      -26.7280   35.6150    9.7100 C.3   168  VAL168      0.0020
     58  CG2      -24.9630   33.9410   10.3530 C.3   168  VAL168      0.0020
     59  N        -22.8940   36.6630   10.9800 N.am  169  PHE169     -0.1976
     60  CA       -21.4620   36.7310   11.1390 C.3   169  PHE169      0.1639
     61  C        -21.2020   37.2110   12.5560 C.2   169  PHE169      0.2290
     62  O        -20.5410   36.5350   13.3420 O.2   169  PHE169     -0.2864
     63  CB       -20.8940   37.7080   10.1070 C.3   169  PHE169      0.0560
     64  CG       -19.4470   38.0560   10.3140 C.ar  169  PHE169     -0.0200
     65  CD1      -18.4710   37.0730   10.2930 C.ar  169  PHE169     -0.0042
     66  CD2      -19.0610   39.3750   10.5140 C.ar  169  PHE169     -0.0042
     67  CE1      -17.1420   37.3940   10.4810 C.ar  169  PHE169     -0.0003
     68  CE2      -17.7370   39.7020   10.6940 C.ar  169  PHE169     -0.0003
     69  CZ       -16.7710   38.7080   10.6770 C.ar  169  PHE169     -0.0000
     70  N        -21.7820   34.8470   15.4700 N.3   172  LEU172     -0.1231
     71  CA       -20.7300   33.8610   15.6280 C.3   172  LEU172      0.1693
     72  C        -19.4630   34.5270   16.1600 C.2   172  LEU172      0.2591
     73  O        -18.8200   34.0150   17.0690 O.2   172  LEU172     -0.2718
     74  CB       -20.4870   33.1380   14.3120 C.3   172  LEU172      0.0284
     75  CG       -21.6990   32.3070   13.9110 C.3   172  LEU172      0.0019
     76  CD1      -21.3480   31.3520   12.8130 C.3   172  LEU172      0.0001
     77  CD2      -22.1980   31.5370   15.1130 C.3   172  LEU172      0.0001
     78  N        -19.1200   35.6750   15.5920 N.am  173  LEU173     -0.1980
     79  CA       -18.1120   36.5330   16.1670 C.3   173  LEU173      0.1596
     80  C        -18.2380   36.5330   17.6780 C.2   173  LEU173      0.2287
     81  O        -17.3780   36.0230   18.3920 O.2   173  LEU173     -0.2864
     82  CB       -18.3600   37.9460   15.6850 C.3   173  LEU173      0.0297
     83  CG       -17.1860   38.6510   15.0500 C.3   173  LEU173      0.0022
     84  CD1      -16.5000   39.5040   16.0820 C.3   173  LEU173      0.0001
     85  CD2      -16.2860   37.5850   14.5020 C.3   173  LEU173      0.0001
     86  N        -17.6890   33.3320   19.6050 N.3   176  PHE176     -0.1241
     87  CA       -16.3540   32.8040   19.5080 C.3   176  PHE176      0.1605
     88  C        -15.4280   33.5970   20.4340 C.2   176  PHE176      0.2264
     89  O        -14.6890   33.0190   21.2070 O.2   176  PHE176     -0.2867
     90  CB       -15.9190   32.8630   18.0400 C.3   176  PHE176      0.0534
     91  CG       -14.5550   32.3060   17.7760 C.ar  176  PHE176     -0.0203
     92  CD1      -13.5230   33.1380   17.3750 C.ar  176  PHE176     -0.0042
     93  CD2      -14.3040   30.9480   17.9080 C.ar  176  PHE176     -0.0042
     94  CE1      -12.2650   32.6260   17.1200 C.ar  176  PHE176     -0.0003
     95  CE2      -13.0370   30.4310   17.6610 C.ar  176  PHE176     -0.0003
     96  CZ       -12.0240   31.2730   17.2640 C.ar  176  PHE176     -0.0000
     97  N        -19.2570   26.9240   16.6060 N.3   215  ILE215     -0.1245
     98  CA       -18.3480   27.2460   15.5140 C.3   215  ILE215      0.1561
     99  C        -17.9840   26.0010   14.7230 C.2   215  ILE215      0.2260
    100  O        -17.9270   26.0340   13.5040 O.2   215  ILE215     -0.2867
    101  CB       -17.0510   27.8710   16.0230 C.3   215  ILE215      0.0252
    102  CG1      -17.3540   29.1080   16.8470 C.3   215  ILE215      0.0019
    103  CG2      -16.1700   28.2550   14.8650 C.3   215  ILE215      0.0019
    104  CD1      -18.1910   30.1000   16.1040 C.3   215  ILE215      0.0001
    105  N        -20.6100   25.2650   12.4160 N.3   218  PHE218     -0.1227
    106  CA       -20.5990   26.1310   11.2650 C.3   218  PHE218      0.1736
    107  C        -19.4520   25.7950   10.3150 C.2   218  PHE218      0.2595
    108  O        -19.5670   25.9230    9.0930 O.2   218  PHE218     -0.2718
    109  CB       -20.4840   27.5790   11.6830 C.3   218  PHE218      0.0547
    110  CG       -20.0550   28.4630   10.5680 C.ar  218  PHE218     -0.0202
    111  CD1      -18.7080   28.7580   10.3800 C.ar  218  PHE218     -0.0042
    112  CD2      -20.9930   28.9520    9.6640 C.ar  218  PHE218     -0.0042
    113  CE1      -18.3030   29.5520    9.3340 C.ar  218  PHE218     -0.0003
    114  CE2      -20.6020   29.7560    8.6050 C.ar  218  PHE218     -0.0003
    115  CZ       -19.2510   30.0600    8.4390 C.ar  218  PHE218     -0.0000
    116  N        -18.3320   25.3880   10.8860 N.am  219  ILE219     -0.1980
    117  CA       -17.1890   25.0380   10.0820 C.3   219  ILE219      0.1595
    118  C        -17.5850   23.8540    9.2000 C.2   219  ILE219      0.2287
    119  O        -17.4200   23.8900    7.9810 O.2   219  ILE219     -0.2864
    120  CB       -15.9690   24.7300   10.9790 C.3   219  ILE219      0.0276
    121  CG1      -15.3700   26.0400   11.5120 C.3   219  ILE219      0.0022
    122  CG2      -14.9230   23.9160   10.2330 C.3   219  ILE219      0.0022
    123  CD1      -14.2260   25.8680   12.5170 C.3   219  ILE219      0.0001
    124  N        -19.8140   24.4700    6.2790 N.3   222  SER222     -0.1217
    125  CA       -19.1320   25.1640    5.2030 C.3   222  SER222      0.1889
    126  C        -18.1800   24.1870    4.4920 C.2   222  SER222      0.2288
    127  O        -17.8060   24.3880    3.3360 O.2   222  SER222     -0.2866
    128  CB       -18.3920   26.3940    5.7250 C.3   222  SER222      0.2089
    129  OG       -18.0640   27.2610    4.6530 O.3   222  SER222     -0.2183
    130  N        -20.6360   22.6400    1.7870 N.3   225  LYS225     -0.1245
    131  CA       -20.7120   23.5220    0.6310 C.3   225  LYS225      0.1561
    132  C        -19.4900   23.3020   -0.2510 C.2   225  LYS225      0.2260
    133  O        -19.5980   22.8140   -1.3710 O.2   225  LYS225     -0.2867
    134  CB       -20.7700   24.9900    1.0540 C.3   225  LYS225      0.0271
    135  CG       -22.0030   25.3920    1.8430 C.3   225  LYS225      0.0035
    136  CD       -21.9660   26.8820    2.1680 C.3   225  LYS225      0.0206
    137  CE       -22.7610   27.2000    3.4240 C.3   225  LYS225      0.1093
    138  NZ       -22.2670   28.4550    4.0700 N.3   225  LYS225     -0.1314
    139  N         -8.5490   29.7030   13.5370 N.3   270  PHE270     -0.1241
    140  CA        -9.3040   30.7840   14.1320 C.3   270  PHE270      0.1605
    141  C         -8.8880   30.9570   15.5640 C.2   270  PHE270      0.2264
    142  O         -8.7560   32.0730   16.0680 O.2   270  PHE270     -0.2867
    143  CB       -10.8010   30.4650   14.0910 C.3   270  PHE270      0.0534
    144  CG       -11.4060   30.6410   12.7410 C.ar  270  PHE270     -0.0203
    145  CD1      -11.6080   31.9180   12.2260 C.ar  270  PHE270     -0.0042
    146  CD2      -11.7560   29.5410   11.9770 C.ar  270  PHE270     -0.0042
    147  CE1      -12.1560   32.1030   10.9680 C.ar  270  PHE270     -0.0003
    148  CE2      -12.3050   29.7090   10.7160 C.ar  270  PHE270     -0.0003
    149  CZ       -12.5030   31.0020   10.2100 C.ar  270  PHE270     -0.0000
@<TRIPOS>BOND
     1   133   132    2
     2   132   131    1
     3   131   134    1
     4   131   130    1
     5   134   135    1
     6    16    15    2
     7    28    25    1
     8    28    29    1
     9    25    24    1
    10    25    26    1
    11    31    30    1
    12    31    32    1
    13   135   136    1
    14    15    14    1
    15    30    29    1
    16   136   137    1
    17    26    27    2
    18    14    13    1
    19    14    17    1
    20   127   126    2
    21   137   138    1
    22    17    18    1
    23    10     9    2
    24   126   125    1
    25   129   128    1
    26    33    34    1
    27     9     8    1
    28   125   128    1
    29   125   124    1
    30    18    19   ar
    31    18    20   ar
    32    34    35    1
    33    34    37    1
    34    19    21   ar
    35    35    36    2
    36    42    43   ar
    37    42    40   ar
    38    43    41   ar
    39    40    38   ar
    40    20    22   ar
    41    41    39   ar
    42    51    49   ar
    43    38    39   ar
    44    38    37    1
    45     8    11    1
    46     8     7    1
    47    11    12    1
    48    21    23   ar
    49    49    48    1
    50    49    50   ar
    51    22    23   ar
    52    48    45    1
    53   119   118    2
    54   115   114   ar
    55   115   113   ar
    56   114   112   ar
    57    45    44    1
    58    45    46    1
    59   108   107    2
    60   118   117    1
    61   113   111   ar
    62     4     3    2
    63   112   110   ar
    64    57    56    1
    65    46    47    2
    66     3     2    1
    67   117   116    1
    68   117   120    1
    69    63    64    1
    70    63    60    1
    71   149   148   ar
    72   149   147   ar
    73   122   120    1
    74    65    64   ar
    75    65    67   ar
    76    64    66   ar
    77   107   116   am
    78   107   106    1
    79    58    56    1
    80   111   110   ar
    81    67    69   ar
    82    66    68   ar
    83   110   109    1
    84    69    68   ar
    85   148   146   ar
    86    56    53    1
    87   147   145   ar
    88   120   121    1
    89    59    60    1
    90    59    54   am
    91    60    61    1
    92    52    53    1
    93   106   109    1
    94   106   105    1
    95     2     1    1
    96     2     5    1
    97   121   123    1
    98    53    54    1
    99    54    55    2
   100   146   144   ar
   101     5     6    1
   102   145   144   ar
   103    61    62    2
   104   144   143    1
   105    76    75    1
   106   100    99    2
   107   139   140    1
   108    75    74    1
   109    75    77    1
   110   143   140    1
   111   140   141    1
   112    74    71    1
   113    85    83    1
   114    99    98    1
   115   103   101    1
   116    83    82    1
   117    83    84    1
   118    70    71    1
   119    98   101    1
   120    98    97    1
   121   141   142    2
   122    78    72   am
   123    78    79    1
   124    71    72    1
   125    82    79    1
   126   101   102    1
   127   104   102    1
   128    72    73    2
   129    79    80    1
   130    94    96   ar
   131    94    92   ar
   132    96    95   ar
   133    92    91   ar
   134    95    93   ar
   135    80    81    2
   136    91    93   ar
   137    91    90    1
   138    90    87    1
   139    87    86    1
   140    87    88    1
   141    88    89    2
