@<TRIPOS>MOLECULE
tmp/3kw4A01.pdb
 135 127 0 0 0
SMALL
GASTEIGER

@<TRIPOS>ATOM
      1  N          3.6460   19.0960   22.2350 N.3    72  ARG72      -0.1245
      2  CA         2.5520   19.9670   22.6680 C.3    72  ARG72       0.1563
      3  C          1.6650   19.3150   23.7370 C.2    72  ARG72       0.2260
      4  O          1.1290   18.2330   23.5210 O.2    72  ARG72      -0.2867
      5  CB         1.6930   20.3600   21.4720 C.3    72  ARG72       0.0307
      6  CG         0.3930   20.9950   21.8640 C.3    72  ARG72       0.0489
      7  CD         0.5760   22.4500   22.2610 C.3    72  ARG72       0.2205
      8  NE         0.8420   23.2570   21.0870 N.pl3  72  ARG72      -0.0865
      9  CZ         1.7400   24.2260   21.0420 C.cat  72  ARG72       0.5346
     10  NH1        2.4480   24.5040   22.1230 N.pl3  72  ARG72       0.1354
     11  NH2        1.9240   24.9140   19.9220 N.pl3  72  ARG72       0.1354
     12  N         -4.5160   22.1050   26.9460 N.3    75  ILE75      -0.1245
     13  CA        -5.1610   23.1080   27.7870 C.3    75  ILE75       0.1561
     14  C         -6.4800   22.5090   28.2610 C.2    75  ILE75       0.2260
     15  O         -7.3360   22.1780   27.4540 O.2    75  ILE75      -0.2867
     16  CB        -5.3940   24.4100   27.0290 C.3    75  ILE75       0.0252
     17  CG1       -4.0570   24.9330   26.4950 C.3    75  ILE75       0.0019
     18  CG2       -6.0480   25.4280   27.9180 C.3    75  ILE75       0.0019
     19  CD1       -4.1440   26.3350   25.9260 C.3    75  ILE75       0.0001
     20  N         -2.7460   22.7840   16.0740 N.3    88  ILE88      -0.1231
     21  CA        -2.1870   23.1880   17.3700 C.3    88  ILE88       0.1692
     22  C         -1.9590   22.0260   18.3550 C.2    88  ILE88       0.2592
     23  O         -0.8970   21.9040   18.9610 O.2    88  ILE88      -0.2718
     24  CB        -3.0690   24.2120   18.0790 C.3    88  ILE88       0.0266
     25  CG1       -3.2940   25.4300   17.2020 C.3    88  ILE88       0.0019
     26  CG2       -2.4530   24.6130   19.4030 C.3    88  ILE88       0.0020
     27  CD1       -4.2220   26.4030   17.8330 C.3    88  ILE88       0.0001
     28  N         -2.9570   21.1730   18.5230 N.am   89  PHE89      -0.1976
     29  CA        -2.9370   20.2830   19.6770 C.3    89  PHE89       0.1639
     30  C         -2.5080   18.8560   19.4050 C.2    89  PHE89       0.2290
     31  O         -2.4540   18.0380   20.3320 O.2    89  PHE89      -0.2864
     32  CB        -4.2720   20.3360   20.4190 C.3    89  PHE89       0.0560
     33  CG        -4.4660   21.6050   21.1690 C.ar   89  PHE89      -0.0200
     34  CD1       -3.8200   21.8040   22.3800 C.ar   89  PHE89      -0.0042
     35  CD2       -5.2480   22.6180   20.6480 C.ar   89  PHE89      -0.0042
     36  CE1       -3.9790   22.9800   23.0820 C.ar   89  PHE89      -0.0003
     37  CE2       -5.4190   23.7960   21.3380 C.ar   89  PHE89      -0.0003
     38  CZ        -4.7760   23.9860   22.5600 C.ar   89  PHE89      -0.0000
     39  N        -12.5820   33.2690   24.3210 N.3   180  PHE180     -0.1241
     40  CA       -11.2620   33.7220   24.7240 C.3   180  PHE180      0.1605
     41  C        -11.2610   34.2920   26.1320 C.2   180  PHE180      0.2264
     42  O        -10.3640   33.9860   26.9240 O.2   180  PHE180     -0.2867
     43  CB       -10.6960   34.7390   23.7420 C.3   180  PHE180      0.0534
     44  CG       -10.4690   34.1860   22.3710 C.ar  180  PHE180     -0.0203
     45  CD1       -9.5710   33.1570   22.1750 C.ar  180  PHE180     -0.0042
     46  CD2      -11.1420   34.7040   21.2740 C.ar  180  PHE180     -0.0042
     47  CE1       -9.3420   32.6400   20.9010 C.ar  180  PHE180     -0.0003
     48  CE2      -10.9220   34.2060   20.0140 C.ar  180  PHE180     -0.0003
     49  CZ       -10.0190   33.1640   19.8210 C.ar  180  PHE180     -0.0000
     50  N        -11.7380   31.4840   28.6070 N.3   183  ILE183     -0.1231
     51  CA       -10.5530   30.6380   28.6230 C.3   183  ILE183      0.1692
     52  C         -9.4430   31.1940   29.5080 C.2   183  ILE183      0.2592
     53  O         -8.6780   30.4360   30.0860 O.2   183  ILE183     -0.2718
     54  CB       -10.0330   30.3890   27.2020 C.3   183  ILE183      0.0266
     55  CG1      -10.9710   29.4240   26.4720 C.3   183  ILE183      0.0019
     56  CG2       -8.6370   29.7810   27.2400 C.3   183  ILE183      0.0020
     57  CD1      -10.8510   29.4620   24.9750 C.3   183  ILE183      0.0001
     58  N         -9.3580   32.5110   29.6390 N.am  184  SER184     -0.1952
     59  CA        -8.2770   33.0840   30.4400 C.3   184  SER184      0.1924
     60  C         -8.7770   33.6360   31.7680 C.2   184  SER184      0.2314
     61  O         -8.0910   34.4080   32.4490 O.2   184  SER184     -0.2863
     62  CB        -7.4920   34.1320   29.6450 C.3   184  SER184      0.2116
     63  OG        -8.3600   35.0910   29.0910 O.3   184  SER184     -0.2180
     64  N         -8.7080   29.8310   16.2280 N.3   271  PHE271     -0.1227
     65  CA        -8.3660   29.8400   17.6370 C.3   271  PHE271      0.1736
     66  C         -7.0260   30.5410   17.8900 C.2   271  PHE271      0.2595
     67  O         -6.9480   31.4880   18.6740 O.2   271  PHE271     -0.2718
     68  CB        -8.3530   28.4150   18.1460 C.3   271  PHE271      0.0547
     69  CG        -8.3030   28.2990   19.6280 C.ar  271  PHE271     -0.0202
     70  CD1       -9.4300   28.5010   20.3910 C.ar  271  PHE271     -0.0042
     71  CD2       -7.1240   27.9490   20.2640 C.ar  271  PHE271     -0.0042
     72  CE1       -9.3770   28.3770   21.7650 C.ar  271  PHE271     -0.0003
     73  CE2       -7.0700   27.8170   21.6410 C.ar  271  PHE271     -0.0003
     74  CZ        -8.1940   28.0280   22.3890 C.ar  271  PHE271     -0.0000
     75  N         -5.9810   30.1120   17.1980 N.am  272  ALA272     -0.1980
     76  CA        -4.6730   30.7360   17.3730 C.3   272  ALA272      0.1597
     77  C         -4.5440   31.9940   16.5560 C.2   272  ALA272      0.2287
     78  O         -3.7020   32.8380   16.8280 O.2   272  ALA272     -0.2864
     79  CB        -3.5600   29.7770   16.9780 C.3   272  ALA272      0.0319
     80  N         -7.7080   36.1080   18.0330 N.3   275  GLU275     -0.1231
     81  CA        -7.7020   36.9970   19.1840 C.3   275  GLU275      0.1699
     82  C         -6.3980   37.7840   19.4040 C.2   275  GLU275      0.2592
     83  O         -6.4320   38.9960   19.6160 O.2   275  GLU275     -0.2718
     84  CB        -8.0740   36.2250   20.4510 C.3   275  GLU275      0.0402
     85  CG        -9.0040   36.9980   21.3680 C.3   275  GLU275      0.1161
     86  CD        -8.2640   37.7560   22.4230 C.2   275  GLU275      0.3649
     87  OE1       -7.1260   37.3550   22.7360 O.co2 275  GLU275     -0.2457
     88  OE2       -8.8130   38.7520   22.9440 O.co2 275  GLU275     -0.2457
     89  N         -5.2570   37.0990   19.3690 N.am  276  THR276     -0.1953
     90  CA        -3.9840   37.7440   19.6660 C.3   276  THR276      0.1897
     91  C         -3.6480   38.8760   18.6780 C.2   276  THR276      0.2313
     92  O         -3.2310   39.9800   19.0590 O.2   276  THR276     -0.2863
     93  CB        -2.8210   36.7250   19.6980 C.3   276  THR276      0.1794
     94  OG1       -3.1950   35.5520   20.4390 O.3   276  THR276     -0.2208
     95  CG2       -1.6120   37.3520   20.3340 C.3   276  THR276      0.0378
     96  N          1.1390   39.2640   25.0990 N.3   336  LEU336     -0.1231
     97  CA        -0.2050   38.6950   25.0340 C.3   336  LEU336      0.1693
     98  C         -0.3490   37.2070   25.3570 C.2   336  LEU336      0.2591
     99  O         -1.4570   36.7290   25.6000 O.2   336  LEU336     -0.2718
    100  CB        -0.8390   39.0170   23.6760 C.3   336  LEU336      0.0284
    101  CG        -1.5290   40.3900   23.6860 C.3   336  LEU336      0.0019
    102  CD1       -1.0440   41.2480   24.8490 C.3   336  LEU336      0.0001
    103  CD2       -1.3750   41.1230   22.3640 C.3   336  LEU336      0.0001
    104  N          0.7630   36.4820   25.3680 N.am  337  ILE337     -0.1980
    105  CA         0.7590   35.0670   25.7190 C.3   337  ILE337      0.1595
    106  C          1.8420   34.8310   26.7520 C.2   337  ILE337      0.2287
    107  O          2.8620   34.2390   26.4570 O.2   337  ILE337     -0.2864
    108  CB         1.0010   34.2000   24.4840 C.3   337  ILE337      0.0276
    109  CG1       -0.0580   34.5110   23.4180 C.3   337  ILE337      0.0022
    110  CG2        0.9830   32.7290   24.8450 C.3   337  ILE337      0.0022
    111  CD1        0.1550   33.8140   22.0970 C.3   337  ILE337      0.0001
    112  N          2.3690   28.4730   25.4430 N.3   341  VAL341     -0.1245
    113  CA         1.4330   27.3740   25.2810 C.3   341  VAL341      0.1561
    114  C          2.1600   26.0970   25.6320 C.2   341  VAL341      0.2260
    115  O          3.2800   25.8860   25.2050 O.2   341  VAL341     -0.2867
    116  CB         0.9180   27.3000   23.8460 C.3   341  VAL341      0.0252
    117  CG1       -0.1470   26.2230   23.7240 C.3   341  VAL341      0.0019
    118  CG2        0.3910   28.6760   23.4180 C.3   341  VAL341      0.0019
    119  N          5.1120   30.0840   16.2530 N.3   410  CYS410     -0.1235
    120  CA         3.8470   30.4670   15.6510 C.3   410  CYS410      0.1677
    121  C          3.8430   30.2060   14.1650 C.2   410  CYS410      0.2270
    122  O          4.6230   30.7660   13.3930 O.2   410  CYS410     -0.2867
    123  CB         3.5320   31.9420   15.9050 C.3   410  CYS410      0.0956
    124  SG         2.0370   32.4900   15.0600 S.3   410  CYS410     -0.0801
    125  N         -3.9030   32.6620   30.2160 N.3   451  VAL451     -0.1231
    126  CA        -3.1760   32.1750   29.0290 C.3   451  VAL451      0.1692
    127  C         -3.2120   33.1770   27.8570 C.2   451  VAL451      0.2592
    128  O         -2.5580   32.9880   26.8310 O.2   451  VAL451     -0.2718
    129  CB        -3.5870   30.7140   28.6050 C.3   451  VAL451      0.0266
    130  CG1       -5.1030   30.5620   28.4690 C.3   451  VAL451      0.0020
    131  CG2       -2.8580   30.2770   27.3270 C.3   451  VAL451      0.0020
    132  N         -3.9720   34.2520   28.0470 N.am  452  GLY452     -0.1957
    133  CA        -3.9260   35.4410   27.2070 C.3   452  GLY452      0.1869
    134  C         -4.1130   36.6890   28.0670 C.2   452  GLY452      0.2309
    135  O         -4.7090   36.6280   29.1400 O.2   452  GLY452     -0.2863
@<TRIPOS>BOND
     1   122   121    2
     2   121   120    1
     3   124   123    1
     4   120   123    1
     5   120   119    1
     6    20    21    1
     7    64    65    1
     8    77    78    2
     9    77    76    1
    10    79    76    1
    11    75    76    1
    12    75    66   am
    13    25    27    1
    14    25    24    1
    15    21    24    1
    16    21    22    1
    17    65    66    1
    18    65    68    1
    19    66    67    2
    20    80    81    1
    21    24    26    1
    22    68    69    1
    23    22    28   am
    24    22    23    2
    25    28    29    1
    26    91    92    2
    27    91    90    1
    28    81    82    1
    29    81    84    1
    30    89    82   am
    31    89    90    1
    32    82    83    2
    33    30    29    1
    34    30    31    2
    35    69    71   ar
    36    69    70   ar
    37    90    93    1
    38    29    32    1
    39    93    95    1
    40    93    94    1
    41    49    48   ar
    42    49    47   ar
    43    11     9    1
    44    48    46   ar
    45    71    73   ar
    46    70    72   ar
    47    32    33    1
    48    84    85    1
    49    35    33   ar
    50    35    37   ar
    51    47    45   ar
    52     9     8    2
    53     9    10    1
    54     8     7    1
    55    33    34   ar
    56    46    44   ar
    57    37    38   ar
    58    85    86    1
    59     5     6    1
    60     5     2    1
    61    73    74   ar
    62    72    74   ar
    63     6     7    1
    64   111   109    1
    65    45    44   ar
    66     1     2    1
    67   103   101    1
    68    44    43    1
    69    34    36   ar
    70    86    87   ar
    71    86    88   ar
    72    38    36   ar
    73     2     3    1
    74   118   116    1
    75   109   108    1
    76     4     3    2
    77   100   101    1
    78   100    97    1
    79   101   102    1
    80   117   116    1
    81    43    40    1
    82   116   113    1
    83    39    40    1
    84   108   110    1
    85   108   105    1
    86    40    41    1
    87    57    55    1
    88    97    96    1
    89    97    98    1
    90   115   114    2
    91   113   112    1
    92   113   114    1
    93    98   104   am
    94    98    99    2
    95   104   105    1
    96   105   106    1
    97    19    17    1
    98    41    42    2
    99   107   106    2
   100    55    54    1
   101    17    16    1
   102   128   127    2
   103    12    13    1
   104    16    13    1
   105    16    18    1
   106    54    56    1
   107    54    51    1
   108   133   132    1
   109   133   134    1
   110   131   129    1
   111    15    14    2
   112    13    14    1
   113   127   132   am
   114   127   126    1
   115   134   135    2
   116   130   129    1
   117   129   126    1
   118    50    51    1
   119    51    52    1
   120   126   125    1
   121    63    62    1
   122    52    58   am
   123    52    53    2
   124    58    59    1
   125    62    59    1
   126    59    60    1
   127    60    61    2
