@<TRIPOS>MOLECULE
tmp/3kw4A04.pdb
 123 118 0 0 0
SMALL
GASTEIGER

@<TRIPOS>ATOM
      1  N         -2.7160   15.1780   45.2980 N.3    13  VAL13      -0.1231
      2  CA        -3.9580   15.7480   44.8070 C.3    13  VAL13       0.1692
      3  C         -3.8640   17.2820   44.6780 C.2    13  VAL13       0.2591
      4  O         -3.9350   17.8240   43.5680 O.2    13  VAL13      -0.2718
      5  CB        -5.1500   15.3220   45.7030 C.3    13  VAL13       0.0266
      6  CG1       -6.3790   16.1660   45.4220 C.3    13  VAL13       0.0020
      7  CG2       -5.4780   13.8730   45.4870 C.3    13  VAL13       0.0020
      8  N         -3.7050   17.9730   45.8060 N.am   14  LEU14      -0.1980
      9  CA        -3.5130   19.4200   45.8070 C.3    14  LEU14       0.1596
     10  C         -2.3100   19.8790   44.9880 C.2    14  LEU14       0.2287
     11  O         -2.2910   21.0150   44.4710 O.2    14  LEU14      -0.2864
     12  CB        -3.3370   19.9330   47.2360 C.3    14  LEU14       0.0297
     13  CG        -4.5580   19.7740   48.1210 C.3    14  LEU14       0.0022
     14  CD1       -4.6630   20.9650   49.0550 C.3    14  LEU14       0.0001
     15  CD2       -5.7840   19.6700   47.2330 C.3    14  LEU14       0.0001
     16  N         -0.5750   23.6910   45.0390 N.3    17  LEU17      -0.1245
     17  CA        -1.5880   24.7200   45.2260 C.3    17  LEU17       0.1561
     18  C         -1.2620   25.7420   46.3200 C.2    17  LEU17       0.2260
     19  O         -1.4230   26.9550   46.1360 O.2    17  LEU17      -0.2867
     20  CB        -2.9240   24.0600   45.5420 C.3    17  LEU17       0.0270
     21  CG        -4.1020   25.0190   45.6560 C.3    17  LEU17       0.0019
     22  CD1       -4.3390   25.6530   44.3090 C.3    17  LEU17       0.0001
     23  CD2       -5.3040   24.2400   46.1050 C.3    17  LEU17       0.0001
     24  N         -2.7150   33.8350   44.3510 N.3    22  ARG22      -0.1231
     25  CA        -4.1300   34.0610   44.0110 C.3    22  ARG22       0.1694
     26  C         -4.3120   34.8130   42.6840 C.2    22  ARG22       0.2591
     27  O         -5.3390   34.6660   42.0210 O.2    22  ARG22      -0.2718
     28  CB        -4.8770   34.7770   45.1510 C.3    22  ARG22       0.0321
     29  CG        -4.7640   34.1150   46.5260 C.3    22  ARG22       0.0489
     30  CD        -5.9160   33.1580   46.8020 C.3    22  ARG22       0.2205
     31  NE        -5.8840   31.9800   45.9400 N.pl3  22  ARG22      -0.0865
     32  CZ        -5.0750   30.9470   46.1140 C.cat  22  ARG22       0.5346
     33  NH1       -4.2240   30.9330   47.1280 N.pl3  22  ARG22       0.1354
     34  NH2       -5.1310   29.9090   45.2930 N.pl3  22  ARG22       0.1354
     35  N         -3.3060   35.5950   42.2960 N.am   23  LYS23      -0.1980
     36  CA        -3.3710   36.4080   41.0820 C.3    23  LYS23       0.1596
     37  C         -3.2880   35.6280   39.7630 C.2    23  LYS23       0.2287
     38  O         -3.4090   36.2260   38.6890 O.2    23  LYS23      -0.2864
     39  CB        -2.2920   37.4920   41.0970 C.3    23  LYS23       0.0298
     40  CG        -2.3860   38.4340   42.2790 C.3    23  LYS23       0.0038
     41  CD        -1.4170   39.6000   42.1520 C.3    23  LYS23       0.0206
     42  CE        -1.6130   40.6060   43.2880 C.3    23  LYS23       0.1093
     43  NZ        -1.2430   42.0000   42.8920 N.3    23  LYS23      -0.1314
     44  N         -9.9780   33.2140   32.1330 N.3   185  SER185     -0.1202
     45  CA       -10.5460   33.5820   33.4100 C.3   185  SER185      0.2020
     46  C         -9.7940   32.8350   34.4990 C.2   185  SER185      0.2619
     47  O         -9.0480   31.9070   34.2190 O.2   185  SER185     -0.2717
     48  CB       -12.0250   33.2130   33.4370 C.3   185  SER185      0.2103
     49  OG       -12.2140   31.8180   33.2300 O.3   185  SER185     -0.2182
     50  N         -9.9910   33.2530   35.7370 N.am  186  PHE186     -0.1961
     51  CA        -9.4440   32.5580   36.8740 C.3   186  PHE186      0.1771
     52  C        -10.0220   31.1500   36.9510 C.2   186  PHE186      0.2620
     53  O         -9.3030   30.1750   37.1570 O.2   186  PHE186     -0.2715
     54  CB        -9.8190   33.3250   38.1180 C.3   186  PHE186      0.0574
     55  CG        -9.2990   32.7330   39.3810 C.ar  186  PHE186     -0.0200
     56  CD1       -7.9450   32.7410   39.6620 C.ar  186  PHE186     -0.0042
     57  CD2      -10.1660   32.2100   40.3150 C.ar  186  PHE186     -0.0042
     58  CE1       -7.4730   32.2120   40.8430 C.ar  186  PHE186     -0.0003
     59  CE2       -9.6930   31.6840   41.4980 C.ar  186  PHE186     -0.0003
     60  CZ        -8.3530   31.6860   41.7610 C.ar  186  PHE186     -0.0000
     61  N        -11.3310   31.0440   36.7940 N.am  187  SER187     -0.1950
     62  CA       -11.9790   29.7380   36.7270 C.3   187  SER187      0.1924
     63  C        -11.2910   28.7660   35.7940 C.2   187  SER187      0.2314
     64  O        -11.2110   27.5890   36.0900 O.2   187  SER187     -0.2863
     65  CB       -13.4270   29.8730   36.2630 C.3   187  SER187      0.2116
     66  OG       -14.2670   30.1170   37.3600 O.3   187  SER187     -0.2180
     67  N         -8.1600   27.5190   37.2580 N.3   190  VAL190     -0.1245
     68  CA        -8.3880   26.5320   38.3020 C.3   190  VAL190      0.1561
     69  C         -8.7370   25.2150   37.6350 C.2   190  VAL190      0.2260
     70  O         -8.3870   24.1330   38.1110 O.2   190  VAL190     -0.2867
     71  CB        -9.5190   26.9270   39.2150 C.3   190  VAL190      0.0252
     72  CG1       -9.7800   25.8190   40.1960 C.3   190  VAL190      0.0019
     73  CG2       -9.1810   28.2090   39.9610 C.3   190  VAL190      0.0019
     74  N         -7.4090   21.2780   38.1870 N.3   194  PHE194     -0.1241
     75  CA        -8.3320   20.3080   38.8030 C.3   194  PHE194      0.1605
     76  C         -9.5070   19.8500   37.9540 C.2   194  PHE194      0.2264
     77  O        -10.5140   19.4170   38.4910 O.2   194  PHE194     -0.2867
     78  CB        -8.9030   20.8690   40.1010 C.3   194  PHE194      0.0534
     79  CG        -7.8680   21.1860   41.1260 C.ar  194  PHE194     -0.0203
     80  CD1       -7.0880   20.1780   41.6770 C.ar  194  PHE194     -0.0042
     81  CD2       -7.6740   22.4920   41.5450 C.ar  194  PHE194     -0.0042
     82  CE1       -6.1250   20.4660   42.6230 C.ar  194  PHE194     -0.0003
     83  CE2       -6.7160   22.7950   42.4930 C.ar  194  PHE194     -0.0003
     84  CZ        -5.9370   21.7760   43.0350 C.ar  194  PHE194     -0.0000
     85  N        -11.8370   16.9640   38.5650 N.3   197  PHE197     -0.1227
     86  CA       -12.9390   17.0340   39.5160 C.3   197  PHE197      0.1736
     87  C        -13.9890   18.0160   39.0410 C.2   197  PHE197      0.2595
     88  O        -15.1750   17.7160   39.0250 O.2   197  PHE197     -0.2718
     89  CB       -12.4360   17.4070   40.9180 C.3   197  PHE197      0.0547
     90  CG       -11.2630   16.5700   41.3750 C.ar  197  PHE197     -0.0202
     91  CD1      -11.4020   15.1980   41.5710 C.ar  197  PHE197     -0.0042
     92  CD2      -10.0110   17.1450   41.5870 C.ar  197  PHE197     -0.0042
     93  CE1      -10.3110   14.4070   41.9850 C.ar  197  PHE197     -0.0003
     94  CE2       -8.9160   16.3620   41.9920 C.ar  197  PHE197     -0.0003
     95  CZ        -9.0720   14.9910   42.1970 C.ar  197  PHE197     -0.0000
     96  N        -13.5570   19.1860   38.6200 N.am  198  LEU198     -0.1980
     97  CA       -14.5060   20.2090   38.2380 C.3   198  LEU198      0.1596
     98  C        -15.2750   19.8630   36.9680 C.2   198  LEU198      0.2287
     99  O        -16.2740   20.5100   36.6540 O.2   198  LEU198     -0.2864
    100  CB       -13.7930   21.5480   38.0970 C.3   198  LEU198      0.0297
    101  CG       -13.0100   21.8480   39.3710 C.3   198  LEU198      0.0022
    102  CD1      -12.2070   23.1370   39.2430 C.3   198  LEU198      0.0001
    103  CD2      -13.9440   21.8810   40.5690 C.3   198  LEU198      0.0001
    104  N         -6.9360   44.2730   32.1580 N.3   447  ARG447     -0.1231
    105  CA        -8.1100   43.9190   32.9650 C.3   447  ARG447      0.1694
    106  C         -8.0500   42.4780   33.4930 C.2   447  ARG447      0.2591
    107  O         -8.2800   42.2180   34.6830 O.2   447  ARG447     -0.2718
    108  CB        -9.3930   44.1180   32.1470 C.3   447  ARG447      0.0321
    109  CG        -9.7490   45.5990   31.9130 C.3   447  ARG447      0.0489
    110  CD       -11.0610   45.7370   31.1600 C.3   447  ARG447      0.2205
    111  NE       -10.9890   45.1090   29.8390 N.pl3 447  ARG447     -0.0865
    112  CZ       -11.6990   44.0550   29.4400 C.cat 447  ARG447      0.5346
    113  NH1      -12.6160   43.5090   30.2340 N.pl3 447  ARG447      0.1354
    114  NH2      -11.5230   43.5750   28.2220 N.pl3 447  ARG447      0.1354
    115  N         -7.7530   41.5480   32.5910 N.am  448  GLU448     -0.1979
    116  CA        -7.5900   40.1430   32.9480 C.3   448  GLU448      0.1602
    117  C         -6.2750   39.5790   32.3990 C.2   448  GLU448      0.2287
    118  O         -5.8230   39.9640   31.3160 O.2   448  GLU448     -0.2864
    119  CB        -8.7890   39.3030   32.4650 C.3   448  GLU448      0.0415
    120  CG        -9.9640   39.2440   33.4470 C.3   448  GLU448      0.1163
    121  CD       -10.8720   38.0140   33.2480 C.2   448  GLU448      0.3649
    122  OE1      -10.7280   37.2860   32.2290 O.co2 448  GLU448     -0.2457
    123  OE2      -11.7410   37.7770   34.1210 O.co2 448  GLU448     -0.2457
@<TRIPOS>BOND
     1   114   112    1
     2   112   111    2
     3   112   113    1
     4   111   110    1
     5   110   109    1
     6   118   117    2
     7   109   108    1
     8    44    45    1
     9   108   105    1
    10   104   105    1
    11   122   121   ar
    12   117   116    1
    13   119   116    1
    14   119   120    1
    15   115   116    1
    16   115   106   am
    17   105   106    1
    18    49    48    1
    19   121   120    1
    20   121   123   ar
    21    45    48    1
    22    45    46    1
    23   106   107    2
    24    47    46    2
    25    46    50   am
    26    50    51    1
    27    63    64    2
    28    63    62    1
    29    65    62    1
    30    65    66    1
    31    99    98    2
    32    62    61    1
    33    61    52   am
    34    51    52    1
    35    51    54    1
    36    52    53    2
    37    98    97    1
    38    67    68    1
    39    69    70    2
    40    69    68    1
    41    76    77    2
    42    76    75    1
    43   100    97    1
    44   100   101    1
    45    54    55    1
    46    74    75    1
    47    97    96    1
    48    68    71    1
    49    85    86    1
    50    96    87   am
    51    38    37    2
    52    75    78    1
    53    88    87    2
    54    87    86    1
    55    71    73    1
    56    71    72    1
    57   102   101    1
    58   101   103    1
    59    55    56   ar
    60    55    57   ar
    61    86    89    1
    62    56    58   ar
    63    37    36    1
    64    78    79    1
    65    57    59   ar
    66    58    60   ar
    67    89    90    1
    68    36    39    1
    69    36    35    1
    70    39    40    1
    71    79    81   ar
    72    79    80   ar
    73    90    91   ar
    74    90    92   ar
    75    59    60   ar
    76    81    83   ar
    77    91    93   ar
    78    92    94   ar
    79    80    82   ar
    80    93    95   ar
    81    94    95   ar
    82    27    26    2
    83    41    40    1
    84    41    42    1
    85    35    26   am
    86    83    84   ar
    87    82    84   ar
    88    26    25    1
    89    43    42    1
    90     4     3    2
    91    25    24    1
    92    25    28    1
    93    22    21    1
    94    11    10    2
    95     3     2    1
    96     3     8   am
    97     2     1    1
    98     2     5    1
    99    10     9    1
   100    16    17    1
   101    28    29    1
   102    17    20    1
   103    17    18    1
   104    34    32    1
   105     6     5    1
   106     7     5    1
   107    20    21    1
   108    21    23    1
   109     8     9    1
   110     9    12    1
   111    31    32    2
   112    31    30    1
   113    32    33    1
   114    19    18    2
   115    29    30    1
   116    15    13    1
   117    12    13    1
   118    13    14    1
