@<TRIPOS>MOLECULE
tmp/3kw4A02.pdb
 118 112 0 0 0
SMALL
GASTEIGER

@<TRIPOS>ATOM
      1  N         -0.5750   23.6910   45.0390 N.3    17  LEU17      -0.1231
      2  CA        -1.5880   24.7200   45.2260 C.3    17  LEU17       0.1693
      3  C         -1.2620   25.7420   46.3200 C.2    17  LEU17       0.2591
      4  O         -1.4230   26.9550   46.1360 O.2    17  LEU17      -0.2718
      5  CB        -2.9240   24.0600   45.5420 C.3    17  LEU17       0.0284
      6  CG        -4.1020   25.0190   45.6560 C.3    17  LEU17       0.0019
      7  CD1       -4.3390   25.6530   44.3090 C.3    17  LEU17       0.0001
      8  CD2       -5.3040   24.2400   46.1050 C.3    17  LEU17       0.0001
      9  N         -0.8090   25.2540   47.4630 N.am   18  LEU18      -0.1980
     10  CA        -0.5300   26.1360   48.5850 C.3    18  LEU18       0.1596
     11  C          0.6900   27.0230   48.3630 C.2    18  LEU18       0.2287
     12  O          0.9960   27.8840   49.1900 O.2    18  LEU18      -0.2864
     13  CB        -0.3490   25.3180   49.8510 C.3    18  LEU18       0.0297
     14  CG        -1.6560   24.6760   50.2800 C.3    18  LEU18       0.0022
     15  CD1       -1.3920   23.5640   51.2910 C.3    18  LEU18       0.0001
     16  CD2       -2.5670   25.7440   50.8520 C.3    18  LEU18       0.0001
     17  N          1.0150   28.4070   45.2010 N.3    20  MET20      -0.1230
     18  CA         0.6320   29.2540   44.0920 C.3    20  MET20       0.1702
     19  C          0.2140   30.6240   44.6160 C.2    20  MET20       0.2592
     20  O          0.1700   30.8630   45.8270 O.2    20  MET20      -0.2718
     21  CB        -0.5060   28.6200   43.3090 C.3    20  MET20       0.0401
     22  CG        -0.2760   27.1600   42.9630 C.3    20  MET20       0.0596
     23  SD         1.0710   26.9800   41.7860 S.3    20  MET20      -0.1393
     24  CE         0.2180   26.9930   40.2180 C.3    20  MET20       0.0692
     25  N         -0.0830   31.5260   43.6920 N.am   21  ASP21      -0.1960
     26  CA        -0.4660   32.8850   44.0310 C.3    21  ASP21       0.1840
     27  C         -1.9130   33.1440   43.5440 C.2    21  ASP21       0.2621
     28  O         -2.2990   32.7060   42.4580 O.2    21  ASP21      -0.2715
     29  CB         0.5360   33.8430   43.3860 C.3    21  ASP21       0.1450
     30  CG         0.4220   35.2670   43.9150 C.2    21  ASP21       0.3671
     31  OD1       -0.6200   35.9260   43.6600 O.co2  21  ASP21      -0.2456
     32  OD2        1.3860   35.7390   44.5750 O.co2  21  ASP21      -0.2456
     33  N         -2.7150   33.8350   44.3510 N.am   22  ARG22      -0.1977
     34  CA        -4.1300   34.0610   44.0110 C.3    22  ARG22       0.1597
     35  C         -4.3120   34.8130   42.6840 C.2    22  ARG22       0.2287
     36  O         -5.3390   34.6660   42.0210 O.2    22  ARG22      -0.2864
     37  CB        -4.8770   34.7770   45.1510 C.3    22  ARG22       0.0334
     38  CG        -4.7640   34.1150   46.5260 C.3    22  ARG22       0.0492
     39  CD        -5.9160   33.1580   46.8020 C.3    22  ARG22       0.2205
     40  NE        -5.8840   31.9800   45.9400 N.pl3  22  ARG22      -0.0865
     41  CZ        -5.0750   30.9470   46.1140 C.cat  22  ARG22       0.5346
     42  NH1       -4.2240   30.9330   47.1280 N.pl3  22  ARG22       0.1354
     43  NH2       -5.1310   29.9090   45.2930 N.pl3  22  ARG22       0.1354
     44  N         -3.0730   34.3140   39.8310 N.3    24  GLY24      -0.1210
     45  CA        -2.9850   33.5070   38.6280 C.3    24  GLY24       0.1956
     46  C         -1.6860   32.7400   38.4100 C.2    24  GLY24       0.2611
     47  O         -0.7220   32.8510   39.1830 O.2    24  GLY24      -0.2717
     48  N         -1.6760   31.9580   37.3320 N.am   25  LEU25      -0.1979
     49  CA        -0.5670   31.0830   36.9860 C.3    25  LEU25       0.1596
     50  C          0.7250   31.8470   36.7680 C.2    25  LEU25       0.2287
     51  O          1.8050   31.3710   37.1150 O.2    25  LEU25      -0.2864
     52  CB        -0.8900   30.3100   35.7180 C.3    25  LEU25       0.0297
     53  CG        -1.6220   28.9940   35.9510 C.3    25  LEU25       0.0022
     54  CD1       -1.9800   28.3550   34.6240 C.3    25  LEU25       0.0001
     55  CD2       -0.7380   28.0660   36.7640 C.3    25  LEU25       0.0001
     56  N          2.2460   33.1660   39.9430 N.3    28  SER28      -0.1217
     57  CA         2.7650   31.9830   40.6300 C.3    28  SER28       0.1889
     58  C          4.1650   31.6020   40.1290 C.2    28  SER28       0.2288
     59  O          5.1240   31.5040   40.9000 O.2    28  SER28      -0.2866
     60  CB         1.8220   30.8000   40.4500 C.3    28  SER28       0.2089
     61  OG         0.5270   31.1730   40.8490 O.3    28  SER28      -0.2183
     62  N          6.6970   34.2360   41.1350 N.3    31  ARG31      -0.1245
     63  CA         7.0920   34.0940   42.5320 C.3    31  ARG31       0.1563
     64  C          8.0510   32.9110   42.7200 C.2    31  ARG31       0.2260
     65  O          9.0200   32.9960   43.4640 O.2    31  ARG31      -0.2867
     66  CB         5.8740   33.9210   43.4380 C.3    31  ARG31       0.0307
     67  CG         5.4760   35.1700   44.2100 C.3    31  ARG31       0.0489
     68  CD         4.2160   34.9500   45.0660 C.3    31  ARG31       0.2205
     69  NE         4.4130   34.0310   46.1960 N.pl3  31  ARG31      -0.0865
     70  CZ         3.5510   33.8670   47.2030 C.cat  31  ARG31       0.5346
     71  NH1        2.4140   34.5600   47.2460 N.pl3  31  ARG31       0.1354
     72  NH2        3.8260   33.0070   48.1800 N.pl3  31  ARG31       0.1354
     73  N         -9.9910   33.2530   35.7370 N.3   186  PHE186     -0.1241
     74  CA        -9.4440   32.5580   36.8740 C.3   186  PHE186      0.1605
     75  C        -10.0220   31.1500   36.9510 C.2   186  PHE186      0.2264
     76  O         -9.3030   30.1750   37.1570 O.2   186  PHE186     -0.2867
     77  CB        -9.8190   33.3250   38.1180 C.3   186  PHE186      0.0534
     78  CG        -9.2990   32.7330   39.3810 C.ar  186  PHE186     -0.0203
     79  CD1       -7.9450   32.7410   39.6620 C.ar  186  PHE186     -0.0042
     80  CD2      -10.1660   32.2100   40.3150 C.ar  186  PHE186     -0.0042
     81  CE1       -7.4730   32.2120   40.8430 C.ar  186  PHE186     -0.0003
     82  CE2       -9.6930   31.6840   41.4980 C.ar  186  PHE186     -0.0003
     83  CZ        -8.3530   31.6860   41.7610 C.ar  186  PHE186     -0.0000
     84  N         -8.2580   28.7410   34.9180 N.3   189  GLN189     -0.1231
     85  CA        -6.9340   28.4200   35.3770 C.3   189  GLN189      0.1698
     86  C         -7.0510   27.4630   36.5260 C.2   189  GLN189      0.2592
     87  O         -6.1480   26.6690   36.7510 O.2   189  GLN189     -0.2718
     88  CB        -6.1600   29.6610   35.7880 C.3   189  GLN189      0.0381
     89  CG        -5.8750   30.6030   34.6550 C.3   189  GLN189      0.0905
     90  CD        -5.2060   31.8690   35.1320 C.2   189  GLN189      0.2608
     91  OE1       -4.2230   31.8150   35.8540 O.2   189  GLN189     -0.2717
     92  NE2       -5.7420   33.0200   34.7360 N.am  189  GLN189     -0.0878
     93  N         -8.1600   27.5190   37.2580 N.am  190  VAL190     -0.1980
     94  CA        -8.3880   26.5320   38.3020 C.3   190  VAL190      0.1595
     95  C         -8.7370   25.2150   37.6350 C.2   190  VAL190      0.2287
     96  O         -8.3870   24.1330   38.1110 O.2   190  VAL190     -0.2864
     97  CB        -9.5190   26.9270   39.2150 C.3   190  VAL190      0.0276
     98  CG1       -9.7800   25.8190   40.1960 C.3   190  VAL190      0.0022
     99  CG2       -9.1810   28.2090   39.9610 C.3   190  VAL190      0.0022
    100  N         -5.7110   23.0580   36.6760 N.3   193  LEU193     -0.1231
    101  CA        -5.2010   22.2530   37.7780 C.3   193  LEU193      0.1693
    102  C         -6.0840   21.0850   38.1940 C.2   193  LEU193      0.2592
    103  O         -5.5560   20.0310   38.5470 O.2   193  LEU193     -0.2718
    104  CB        -5.0120   23.1190   39.0160 C.3   193  LEU193      0.0284
    105  CG        -3.7980   24.0330   39.1340 C.3   193  LEU193      0.0019
    106  CD1       -3.6390   24.9680   37.9400 C.3   193  LEU193      0.0001
    107  CD2       -3.9320   24.7950   40.4480 C.3   193  LEU193      0.0001
    108  N         -7.4090   21.2780   38.1870 N.am  194  PHE194     -0.1976
    109  CA        -8.3320   20.3080   38.8030 C.3   194  PHE194      0.1639
    110  C         -9.5070   19.8500   37.9540 C.2   194  PHE194      0.2290
    111  O        -10.5140   19.4170   38.4910 O.2   194  PHE194     -0.2864
    112  CB        -8.9030   20.8690   40.1010 C.3   194  PHE194      0.0560
    113  CG        -7.8680   21.1860   41.1260 C.ar  194  PHE194     -0.0200
    114  CD1       -7.0880   20.1780   41.6770 C.ar  194  PHE194     -0.0042
    115  CD2       -7.6740   22.4920   41.5450 C.ar  194  PHE194     -0.0042
    116  CE1       -6.1250   20.4660   42.6230 C.ar  194  PHE194     -0.0003
    117  CE2       -6.7160   22.7950   42.4930 C.ar  194  PHE194     -0.0003
    118  CZ        -5.9370   21.7760   43.0350 C.ar  194  PHE194     -0.0000
@<TRIPOS>BOND
     1    54    53    1
     2    89    90    1
     3    89    88    1
     4    92    90   am
     5    84    85    1
     6    90    91    2
     7    85    88    1
     8    85    86    1
     9    52    53    1
    10    52    49    1
    11    73    74    1
    12    53    55    1
    13    86    87    2
    14    86    93   am
    15   100   101    1
    16    50    49    1
    17    50    51    2
    18    74    75    1
    19    74    77    1
    20    75    76    2
    21    49    48    1
    22    93    94    1
    23    48    46   am
    24    95    96    2
    25    95    94    1
    26   101   102    1
    27   101   104    1
    28   106   105    1
    29   110   111    2
    30   110   109    1
    31    77    78    1
    32   108   102   am
    33   108   109    1
    34   102   103    2
    35    94    97    1
    36    46    45    1
    37    46    47    2
    38    45    44    1
    39   109   112    1
    40   104   105    1
    41   105   107    1
    42    97    99    1
    43    97    98    1
    44    78    79   ar
    45    78    80   ar
    46    79    81   ar
    47    56    57    1
    48   112   113    1
    49    58    57    1
    50    58    59    2
    51    24    23    1
    52    80    82   ar
    53    60    57    1
    54    60    61    1
    55    81    83   ar
    56   113   115   ar
    57   113   114   ar
    58    62    63    1
    59    82    83   ar
    60   115   117   ar
    61   114   116   ar
    62    23    22    1
    63    36    35    2
    64    28    27    2
    65   117   118   ar
    66    63    64    1
    67    63    66    1
    68   116   118   ar
    69    35    34    1
    70    64    65    2
    71    22    21    1
    72    21    18    1
    73    29    30    1
    74    29    26    1
    75    66    67    1
    76    27    26    1
    77    27    33   am
    78    31    30   ar
    79    25    26    1
    80    25    19   am
    81    30    32   ar
    82    34    33    1
    83    34    37    1
    84    18    19    1
    85    18    17    1
    86    67    68    1
    87     7     6    1
    88    19    20    2
    89     1     2    1
    90    68    69    1
    91    37    38    1
    92     2     5    1
    93     2     3    1
    94    43    41    1
    95     5     6    1
    96     6     8    1
    97    40    41    2
    98    40    39    1
    99    41    42    1
   100     4     3    2
   101    69    70    2
   102     3     9   am
   103    38    39    1
   104    70    71    1
   105    70    72    1
   106     9    10    1
   107    11    10    1
   108    11    12    2
   109    10    13    1
   110    13    14    1
   111    14    16    1
   112    14    15    1
