@<TRIPOS>MOLECULE
tmp/3kw7B00.pdb
 81 78 0 0 0
SMALL
GASTEIGER

@<TRIPOS>ATOM
      1  N         88.2620  -21.4930  -14.5140 N.3    22  ARG22      -0.1231
      2  CA        89.4480  -20.8800  -13.9040 C.3    22  ARG22       0.1694
      3  C         89.6940  -21.3960  -12.4870 C.2    22  ARG22       0.2591
      4  O         88.7550  -21.7460  -11.7590 O.2    22  ARG22      -0.2718
      5  CB        89.3590  -19.3490  -13.9250 C.3    22  ARG22       0.0321
      6  CG        88.2230  -18.7000  -13.0540 C.3    22  ARG22       0.0489
      7  CD        88.7170  -18.3630  -11.6310 C.3    22  ARG22       0.2205
      8  NE        88.0890  -17.1820  -11.0460 N.pl3  22  ARG22      -0.0865
      9  CZ        88.6230  -16.4520  -10.0670 C.cat  22  ARG22       0.5346
     10  NH1       87.9940  -15.3790   -9.5870 N.pl3  22  ARG22       0.1354
     11  NH2       89.8020  -16.7770   -9.5700 N.pl3  22  ARG22       0.1354
     12  N         90.9660  -21.4390  -12.1060 N.am   23  ALA23      -0.1980
     13  CA        91.3760  -21.9500  -10.7870 C.3    23  ALA23       0.1597
     14  C         90.8250  -20.9980   -9.6880 C.2    23  ALA23       0.2287
     15  O         91.0220  -19.7830   -9.7420 O.2    23  ALA23      -0.2864
     16  CB        92.8890  -22.0750  -10.6960 C.3    23  ALA23       0.0319
     17  N         97.2810  -24.3520   -2.0190 N.3    53  THR53      -0.1203
     18  CA        98.5880  -24.5010   -2.6180 C.3    53  THR53       0.1994
     19  C         98.8900  -23.3120   -3.5370 C.2    53  THR53       0.2618
     20  O        100.0480  -23.0480   -3.8630 O.2    53  THR53      -0.2717
     21  CB        98.5800  -25.7810   -3.4360 C.3    53  THR53       0.1784
     22  OG1       97.6520  -25.5970   -4.5140 O.3    53  THR53      -0.2211
     23  CG2       98.0820  -27.0020   -2.5910 C.3    53  THR53       0.0376
     24  N         97.8380  -22.6080   -3.9570 N.am   54  ASN54      -0.1960
     25  CA        97.9670  -21.4630   -4.8450 C.3    54  ASN54       0.1819
     26  C         98.2090  -20.2060   -4.0490 C.2    54  ASN54       0.2621
     27  O         97.3100  -19.7480   -3.3480 O.2    54  ASN54      -0.2715
     28  CB        96.7070  -21.3050   -5.6860 C.3    54  ASN54       0.1195
     29  CG        96.9740  -20.6200   -7.0070 C.2    54  ASN54       0.2630
     30  OD1       97.6320  -19.5760   -7.0580 O.2    54  ASN54      -0.2716
     31  ND2       96.4560  -21.2110   -8.0980 N.am   54  ASN54      -0.0877
     32  N         99.4190  -19.6580   -4.1670 N.am   55  ALA55      -0.1963
     33  CA        99.8630  -18.5040   -3.3590 C.3    55  ALA55       0.1728
     34  C         99.2510  -17.2100   -3.8290 C.2    55  ALA55       0.2617
     35  O         99.1210  -16.2550   -3.0670 O.2    55  ALA55      -0.2715
     36  CB       101.3840  -18.3830   -3.3880 C.3    55  ALA55       0.0334
     37  N         98.8900  -17.2000   -5.1020 N.am   56  THR56      -0.1937
     38  CA        98.3100  -16.0470   -5.7710 C.3    56  THR56       0.2028
     39  C         96.9090  -15.7350   -5.2350 C.2    56  THR56       0.2642
     40  O         96.4780  -14.5740   -5.2300 O.2    56  THR56      -0.2714
     41  CB        98.2740  -16.2750   -7.3100 C.3    56  THR56       0.1808
     42  OG1       99.4820  -16.9350   -7.7210 O.3    56  THR56      -0.2208
     43  CG2       98.1750  -14.9530   -8.0620 C.3    56  THR56       0.0379
     44  N         96.1940  -16.7640   -4.7900 N.am   57  MET57      -0.1976
     45  CA        94.8830  -16.5600   -4.1580 C.3    57  MET57       0.1605
     46  C         94.9200  -16.7310   -2.6500 C.2    57  MET57       0.2287
     47  O         93.8660  -16.8770   -2.0310 O.2    57  MET57      -0.2864
     48  CB        93.8460  -17.4950   -4.7550 C.3    57  MET57       0.0413
     49  CG        93.7020  -17.3250   -6.2470 C.3    57  MET57       0.0598
     50  SD        92.3610  -18.3430   -6.8810 S.3    57  MET57      -0.1393
     51  CE        93.1000  -19.9880   -6.8870 C.3    57  MET57       0.0692
     52  N         86.5600  -13.4440  -14.0910 N.3   153  HIS153     -0.1226
     53  CA        87.4250  -14.2740  -14.9060 C.3   153  HIS153      0.1752
     54  C         88.8760  -14.0630  -14.5640 C.2   153  HIS153      0.2597
     55  O         89.6550  -14.9970  -14.6150 O.2   153  HIS153     -0.2718
     56  CB        87.1960  -13.9880  -16.3760 C.3   153  HIS153      0.0759
     57  CG        85.9460  -14.6050  -16.9080 C.ar  153  HIS153      0.0818
     58  ND1       85.7530  -14.8590  -18.2500 N.ar  153  HIS153     -0.2268
     59  CD2       84.8310  -15.0380  -16.2710 C.ar  153  HIS153      0.1154
     60  CE1       84.5560  -15.3980  -18.4150 C.ar  153  HIS153      0.1986
     61  NE2       83.9800  -15.5240  -17.2280 N.ar  153  HIS153     -0.2212
     62  N         89.2510  -12.8380  -14.2250 N.am  154  THR154     -0.1939
     63  CA        90.5980  -12.5800  -13.7200 C.3   154  THR154      0.2028
     64  C         90.5820  -12.7010  -12.1720 C.2   154  THR154      0.2642
     65  O         89.5590  -12.4340  -11.5470 O.2   154  THR154     -0.2714
     66  CB        91.1460  -11.2360  -14.2670 C.3   154  THR154      0.1808
     67  OG1       92.4350  -10.9810  -13.7160 O.3   154  THR154     -0.2208
     68  CG2       90.2020  -10.0730  -13.9590 C.3   154  THR154      0.0379
     69  N         91.6810  -13.1550  -11.5630 N.am  155  ALA155     -0.1977
     70  CA        91.7470  -13.3830  -10.1000 C.3   155  ALA155      0.1597
     71  C         91.8680  -12.0960   -9.3010 C.2   155  ALA155      0.2287
     72  O         92.2640  -11.0630   -9.8280 O.2   155  ALA155     -0.2864
     73  CB        92.8990  -14.2990   -9.7650 C.3   155  ALA155      0.0319
     74  N         95.2440  -10.5660   -9.2870 N.3   158  LEU158     -0.1245
     75  CA        95.8130  -10.4510  -10.6200 C.3   158  LEU158      0.1561
     76  C         95.2420   -9.2940  -11.3900 C.2   158  LEU158      0.2260
     77  O         95.9410   -8.6720  -12.1680 O.2   158  LEU158     -0.2867
     78  CB        95.6000  -11.7310  -11.4010 C.3   158  LEU158      0.0270
     79  CG        96.5160  -12.8610  -10.9890 C.3   158  LEU158      0.0019
     80  CD1       96.1960  -14.0750  -11.8600 C.3   158  LEU158      0.0001
     81  CD2       97.9710  -12.3950  -11.1080 C.3   158  LEU158      0.0001
@<TRIPOS>BOND
     1    60    58   ar
     2    60    61   ar
     3    58    57   ar
     4    61    59   ar
     5    57    56    1
     6    57    59   ar
     7    56    53    1
     8    53    54    1
     9    53    52    1
    10    55    54    2
    11    54    62   am
    12     1     2    1
    13    66    68    1
    14    66    63    1
    15    66    67    1
    16    62    63    1
    17     5     2    1
    18     5     6    1
    19     2     3    1
    20    63    64    1
    21     6     7    1
    22     3    12   am
    23     3     4    2
    24    64    69   am
    25    64    65    2
    26    77    76    2
    27    12    13    1
    28    80    79    1
    29     7     8    1
    30    69    70    1
    31    78    79    1
    32    78    75    1
    33    76    75    1
    34    81    79    1
    35     8     9    2
    36    13    16    1
    37    13    14    1
    38    75    74    1
    39    70    73    1
    40    70    71    1
    41     9    10    1
    42     9    11    1
    43    72    71    2
    44    15    14    2
    45    31    29   am
    46    43    41    1
    47    42    41    1
    48    41    38    1
    49    30    29    2
    50    29    28    1
    51    51    50    1
    52    50    49    1
    53    49    48    1
    54    38    39    1
    55    38    37    1
    56    28    25    1
    57    39    40    2
    58    39    44   am
    59    37    34   am
    60    25    26    1
    61    25    24    1
    62    44    45    1
    63    48    45    1
    64    22    21    1
    65    32    26   am
    66    32    33    1
    67    45    46    1
    68    26    27    2
    69    24    19   am
    70    20    19    2
    71    34    33    1
    72    34    35    2
    73    19    18    1
    74    21    18    1
    75    21    23    1
    76    36    33    1
    77    46    47    2
    78    18    17    1
