@<TRIPOS>MOLECULE
tmp/3kw7B01.pdb
 84 77 0 0 0
SMALL
GASTEIGER

@<TRIPOS>ATOM
      1  N         67.6940   14.1400   17.1530 N.3   319  VAL319     -0.1245
      2  CA        68.9990   14.1910   16.4590 C.3   319  VAL319      0.1561
      3  C         70.1030   14.3750   17.5030 C.2   319  VAL319      0.2260
      4  O         70.1610   15.4010   18.1910 O.2   319  VAL319     -0.2867
      5  CB        69.0520   15.3340   15.4110 C.3   319  VAL319      0.0252
      6  CG1       70.3960   15.3480   14.6900 C.3   319  VAL319      0.0019
      7  CG2       67.9140   15.1980   14.4060 C.3   319  VAL319      0.0019
      8  N         77.5790    9.5940   19.9390 N.3   325  ALA325     -0.1231
      9  CA        77.3340    9.9320   18.5290 C.3   325  ALA325      0.1694
     10  C         78.6400   10.1970   17.8040 C.2   325  ALA325      0.2592
     11  O         79.4750   10.9910   18.2240 O.2   325  ALA325     -0.2718
     12  CB        76.4300   11.1450   18.4170 C.3   325  ALA325      0.0304
     13  N         78.8180    9.5120   16.7010 N.am  326  MET326     -0.1965
     14  CA        80.0350    9.6600   15.9600 C.3   326  MET326      0.1736
     15  C         79.6900    9.7290   14.4810 C.2   326  MET326      0.2616
     16  O         78.8050    8.9900   13.9710 O.2   326  MET326     -0.2715
     17  CB        80.9880    8.5070   16.2840 C.3   326  MET326      0.0427
     18  CG        82.3940    8.6170   15.6780 C.3   326  MET326      0.0599
     19  SD        83.5360    7.5810   16.6200 S.3   326  MET326     -0.1393
     20  CE        82.6430    5.9710   16.5970 C.3   326  MET326      0.0692
     21  N         80.3730   10.6620   13.8210 N.am  327  ASN327     -0.1972
     22  CA        80.2020   10.9110   12.3960 C.3   327  ASN327      0.1688
     23  C         81.4670   10.4710   11.6660 C.2   327  ASN327      0.2292
     24  O         82.5780   10.7000   12.1700 O.2   327  ASN327     -0.2864
     25  CB        79.9090   12.4010   12.1720 C.3   327  ASN327      0.1181
     26  CG        79.5870   12.7220   10.7440 C.2   327  ASN327      0.2629
     27  OD1       80.1410   13.6500   10.1880 O.2   327  ASN327     -0.2716
     28  ND2       78.6740   11.9740   10.1500 N.am  327  ASN327     -0.0877
     29  N         75.1820    6.0760   17.9240 N.3   381  GLU381     -0.1245
     30  CA        74.6490    6.5910   16.6580 C.3   381  GLU381      0.1567
     31  C         75.7450    6.9280   15.6260 C.2   381  GLU381      0.2260
     32  O         76.5440    7.8460   15.8000 O.2   381  GLU381     -0.2867
     33  CB        73.7650    7.8100   16.9150 C.3   381  GLU381      0.0388
     34  CG        73.0370    8.2650   15.6720 C.3   381  GLU381      0.1160
     35  CD        72.1730    9.5130   15.8570 C.2   381  GLU381      0.3649
     36  OE1       71.0230    9.5120   15.3390 O.co2 381  GLU381     -0.2457
     37  OE2       72.6400   10.4950   16.4800 O.co2 381  GLU381     -0.2457
     38  N         76.8240    7.9420   11.6800 N.3   383  SER383     -0.1217
     39  CA        76.3320    8.6020   10.4640 C.3   383  SER383      0.1889
     40  C         77.3380    8.5280    9.3060 C.2   383  SER383      0.2288
     41  O         78.5170    8.8570    9.4930 O.2   383  SER383     -0.2866
     42  CB        76.0370   10.0590   10.7800 C.3   383  SER383      0.2089
     43  OG        77.0970   10.6170   11.5500 O.3   383  SER383     -0.2183
     44  N         77.8970   10.1340    5.8900 N.3   385  PRO385     -0.2116
     45  CA        77.5140   11.0320    4.8490 C.3   385  PRO385      0.1372
     46  C         78.3630   10.8310    3.5830 C.2   385  PRO385      0.2244
     47  O         79.5960   10.9020    3.6340 O.2   385  PRO385     -0.2868
     48  CB        77.7290   12.3980    5.4880 C.3   385  PRO385      0.0268
     49  CG        78.7880   12.1970    6.4820 C.3   385  PRO385      0.0207
     50  CD        78.7760   10.7620    6.8840 C.3   385  PRO385      0.0892
     51  N         78.9780   12.9430    0.7270 N.3   387  THR387     -0.1218
     52  CA        78.8260   14.3590    0.3560 C.3   387  THR387      0.1862
     53  C         79.4510   14.6970   -0.9660 C.2   387  THR387      0.2287
     54  O         80.5860   14.2840   -1.2640 O.2   387  THR387     -0.2866
     55  CB        79.5640   15.3360    1.2910 C.3   387  THR387      0.1770
     56  OG1       80.9320   14.9300    1.4450 O.3   387  THR387     -0.2211
     57  CG2       78.8500   15.5270    2.6270 C.3   387  THR387      0.0375
     58  N         64.0970   10.9970    9.1830 N.3   420  TYR420     -0.1241
     59  CA        64.4990   10.1090   10.2880 C.3   420  TYR420      0.1605
     60  C         63.3280    9.3150   10.8790 C.2   420  TYR420      0.2264
     61  O         62.2050    9.8120   10.9850 O.2   420  TYR420     -0.2867
     62  CB        65.1530   10.9170   11.3940 C.3   420  TYR420      0.0534
     63  CG        66.4540   11.5080   10.9810 C.ar  420  TYR420     -0.0201
     64  CD1       66.5070   12.7200   10.2820 C.ar  420  TYR420     -0.0009
     65  CD2       67.6540   10.8590   11.2880 C.ar  420  TYR420     -0.0009
     66  CE1       67.7510   13.2790    9.8910 C.ar  420  TYR420      0.0417
     67  CE2       68.9050   11.3990   10.9100 C.ar  420  TYR420      0.0417
     68  CZ        68.9470   12.6040   10.2110 C.ar  420  TYR420      0.1957
     69  OH        70.1740   13.1110    9.8390 O.3   420  TYR420     -0.2866
     70  N         72.7530   11.1550    4.1390 N.3   439  ASN439     -0.1240
     71  CA        73.4720   11.1360    5.4100 C.3   439  ASN439      0.1653
     72  C         73.0280    9.9340    6.2200 C.2   439  ASN439      0.2266
     73  O         72.7690   10.0590    7.4110 O.2   439  ASN439     -0.2867
     74  CB        73.2960   12.4520    6.1970 C.3   439  ASN439      0.1155
     75  CG        74.4080   12.6910    7.2590 C.2   439  ASN439      0.2627
     76  OD1       75.0910   11.7580    7.7170 O.2   439  ASN439     -0.2716
     77  ND2       74.5650   13.9650    7.6540 N.am  439  ASN439     -0.0877
     78  N         72.1570    7.2100    8.5830 N.3   441  THR441     -0.1218
     79  CA        72.4770    7.1810   10.0150 C.3   441  THR441      0.1862
     80  C         71.9440    5.8910   10.5960 C.2   441  THR441      0.2287
     81  O         70.7960    5.5040   10.3110 O.2   441  THR441     -0.2866
     82  CB        71.8520    8.3680   10.8090 C.3   441  THR441      0.1770
     83  OG1       72.2300    9.6380   10.2310 O.3   441  THR441     -0.2211
     84  CG2       72.3230    8.3300   12.2390 C.3   441  THR441      0.0375
@<TRIPOS>BOND
     1    54    53    2
     2    53    52    1
     3    52    51    1
     4    52    55    1
     5    55    56    1
     6    55    57    1
     7    46    47    2
     8    46    45    1
     9    70    71    1
    10    45    48    1
    11    45    44    1
    12    71    74    1
    13    71    72    1
    14    48    49    1
    15    44    50    1
    16    74    75    1
    17    72    73    2
    18    49    50    1
    19    75    77   am
    20    75    76    2
    21    78    79    1
    22    58    59    1
    23    40    41    2
    24    40    39    1
    25    69    68    1
    26    66    68   ar
    27    66    64   ar
    28    79    80    1
    29    79    82    1
    30    28    26   am
    31    27    26    2
    32    68    67   ar
    33    83    82    1
    34    64    63   ar
    35    59    60    1
    36    59    62    1
    37    81    80    2
    38    39    42    1
    39    39    38    1
    40    26    25    1
    41    42    43    1
    42    82    84    1
    43    60    61    2
    44    67    65   ar
    45    63    65   ar
    46    63    62    1
    47    23    24    2
    48    23    22    1
    49    25    22    1
    50    22    21    1
    51    21    15   am
    52    16    15    2
    53     7     5    1
    54    15    14    1
    55     6     5    1
    56    36    35   ar
    57     5     2    1
    58    31    32    2
    59    31    30    1
    60    34    35    1
    61    34    33    1
    62    18    17    1
    63    18    19    1
    64    35    37   ar
    65    14    17    1
    66    14    13    1
    67     2     1    1
    68     2     3    1
    69    20    19    1
    70    30    33    1
    71    30    29    1
    72    13    10   am
    73     3     4    2
    74    10    11    2
    75    10     9    1
    76    12     9    1
    77     9     8    1
