@<TRIPOS>MOLECULE
tmp/3kw9A00.pdb
 115 112 0 0 0
SMALL
GASTEIGER

@<TRIPOS>ATOM
      1  N         43.5940   27.8310   61.8850 N.3    19  GLN19      -0.1245
      2  CA        42.5270   26.8440   61.8220 C.3    19  GLN19       0.1566
      3  C         41.7490   26.7310   63.1250 C.2    19  GLN19       0.2260
      4  O         40.6300   26.2130   63.1500 O.2    19  GLN19      -0.2867
      5  CB        43.1160   25.4850   61.4360 C.3    19  GLN19       0.0367
      6  CG        44.1750   24.9780   62.3900 C.3    19  GLN19       0.0905
      7  CD        44.8380   23.7060   61.8980 C.2    19  GLN19       0.2608
      8  OE1       45.5990   23.7210   60.9330 O.2    19  GLN19      -0.2717
      9  NE2       44.5430   22.5950   62.5600 N.am   19  GLN19      -0.0878
     10  N         40.6280   20.4710   63.2020 N.3    23  GLY23      -0.1225
     11  CA        41.7370   19.8200   62.5150 C.3    23  GLY23       0.1811
     12  C         41.5500   19.9450   61.0140 C.2    23  GLY23       0.2280
     13  O         41.4030   18.9490   60.2980 O.2    23  GLY23      -0.2866
     14  N         43.7770   21.5020   58.8280 N.3    25  CYS25      -0.1221
     15  CA        45.0170   21.8400   58.1250 C.3    25  CYS25       0.1808
     16  C         44.9380   21.4540   56.6510 C.2    25  CYS25       0.2601
     17  O         45.4410   22.1680   55.7880 O.2    25  CYS25      -0.2717
     18  CB        46.2140   21.1250   58.7440 C.3    25  CYS25       0.0970
     19  SG        45.9730   19.3570   58.8260 S.3    25  CYS25      -0.0800
     20  N         44.3090   20.3170   56.3670 N.am   26  TRP26      -0.1976
     21  CA        44.1830   19.8330   54.9950 C.3    26  TRP26       0.1640
     22  C         43.3760   20.7760   54.1030 C.2    26  TRP26       0.2290
     23  O         43.6410   20.8880   52.9030 O.2    26  TRP26      -0.2864
     24  CB        43.5400   18.4440   54.9900 C.3    26  TRP26       0.0576
     25  CG        42.1610   18.4240   55.5800 C.ar   26  TRP26       0.0006
     26  CD1       41.8250   18.2170   56.8900 C.ar   26  TRP26       0.0946
     27  CD2       40.9340   18.6420   54.8800 C.ar   26  TRP26       0.0152
     28  NE1       40.4620   18.2920   57.0430 N.ar   26  TRP26      -0.2442
     29  CE2       39.8930   18.5520   55.8220 C.ar   26  TRP26       0.0810
     30  CE3       40.6150   18.9060   53.5420 C.ar   26  TRP26       0.0012
     31  CZ2       38.5540   18.7180   55.4700 C.ar   26  TRP26       0.0191
     32  CZ3       39.2880   19.0720   53.1960 C.ar   26  TRP26       0.0001
     33  CH2       38.2730   18.9770   54.1570 C.ar   26  TRP26       0.0015
     34  N         36.6920   18.3810   60.8210 N.3    63  CYS63      -0.1221
     35  CA        37.6800   18.8450   61.7880 C.3    63  CYS63       0.1808
     36  C         38.5000   17.6960   62.3580 C.2    63  CYS63       0.2602
     37  O         39.3100   17.8900   63.2620 O.2    63  CYS63      -0.2717
     38  CB        36.9970   19.6170   62.9200 C.3    63  CYS63       0.0970
     39  SG        36.3010   21.2000   62.3660 S.3    63  CYS63      -0.0800
     40  N         38.2830   16.5010   61.8160 N.am   64  GLY64      -0.1942
     41  CA        39.0070   15.3250   62.2650 C.3    64  GLY64       0.2014
     42  C         40.0750   14.9050   61.2780 C.2    64  GLY64       0.2639
     43  O         40.5890   13.7930   61.3360 O.2    64  GLY64      -0.2714
     44  N         40.4130   15.7970   60.3560 N.am   65  GLY65      -0.1939
     45  CA        41.4340   15.4770   59.3790 C.3    65  GLY65       0.2014
     46  C         40.8870   15.1930   57.9960 C.2    65  GLY65       0.2639
     47  O         39.6760   15.0720   57.8050 O.2    65  GLY65      -0.2714
     48  N         41.7950   15.0810   57.0300 N.am   66  GLY66      -0.1939
     49  CA        41.4080   14.8080   55.6610 C.3    66  GLY66       0.2014
     50  C         42.5830   14.9320   54.7090 C.2    66  GLY66       0.2639
     51  O         43.6610   15.3890   55.1050 O.2    66  GLY66      -0.2714
     52  N         42.3740   14.5270   53.4560 N.am   67  TYR67      -0.1959
     53  CA        43.4150   14.5910   52.4330 C.3    67  TYR67       0.1771
     54  C         43.1760   15.7170   51.4400 C.2    67  TYR67       0.2619
     55  O         42.0400   16.0050   51.0760 O.2    67  TYR67      -0.2715
     56  CB        43.5040   13.2730   51.6590 C.3    67  TYR67       0.0574
     57  CG        43.9400   12.1080   52.5040 C.ar   67  TYR67      -0.0198
     58  CD1       43.0070   11.2860   53.1300 C.ar   67  TYR67      -0.0009
     59  CD2       45.2890   11.8470   52.7040 C.ar   67  TYR67      -0.0009
     60  CE1       43.4100   10.2380   53.9340 C.ar   67  TYR67       0.0417
     61  CE2       45.7010   10.8040   53.5050 C.ar   67  TYR67       0.0417
     62  CZ        44.7590   10.0050   54.1190 C.ar   67  TYR67       0.1957
     63  OH        45.1790    8.9810   54.9310 O.3    67  TYR67      -0.2866
     64  N         44.2620   16.3410   50.9930 N.am   68  MET68      -0.1977
     65  CA        44.1720   17.4310   50.0370 C.3    68  MET68       0.1605
     66  C         43.6860   16.9420   48.6710 C.2    68  MET68       0.2287
     67  O         42.8810   17.6030   48.0260 O.2    68  MET68      -0.2864
     68  CB        45.5310   18.1280   49.9000 C.3    68  MET68       0.0413
     69  CG        46.0490   18.7590   51.2010 C.3    68  MET68       0.0598
     70  SD        46.7920   17.5830   52.3700 S.3    68  MET68      -0.1393
     71  CE        48.4500   17.5060   51.7310 C.3    68  MET68       0.0692
     72  N         52.3560   17.2040   53.1820 N.3   134  ALA134     -0.1245
     73  CA        52.0530   16.7250   54.5240 C.3   134  ALA134      0.1562
     74  C         53.3660   16.3500   55.1940 C.2   134  ALA134      0.2260
     75  O         54.2990   15.8790   54.5400 O.2   134  ALA134     -0.2867
     76  CB        51.1290   15.5300   54.4670 C.3   134  ALA134      0.0290
     77  N         52.8170   11.1030   58.8480 N.3   160  LEU160     -0.1231
     78  CA        52.3650   12.4050   58.3620 C.3   160  LEU160      0.1693
     79  C         51.0910   12.7290   59.1270 C.2   160  LEU160      0.2592
     80  O         50.0700   12.0490   58.9750 O.2   160  LEU160     -0.2718
     81  CB        52.0840   12.3460   56.8570 C.3   160  LEU160      0.0284
     82  CG        53.2060   11.7780   55.9800 C.3   160  LEU160      0.0019
     83  CD1       52.8500   11.9790   54.5160 C.3   160  LEU160      0.0001
     84  CD2       54.5210   12.4660   56.2960 C.3   160  LEU160      0.0001
     85  N         51.1480   13.7680   59.9490 N.am  161  ASN161     -0.1960
     86  CA        50.0030   14.1370   60.7700 C.3   161  ASN161      0.1819
     87  C         49.5560   15.5760   60.6190 C.2   161  ASN161      0.2621
     88  O         48.6430   16.0160   61.3130 O.2   161  ASN161     -0.2715
     89  CB        50.3340   13.8680   62.2300 C.3   161  ASN161      0.1195
     90  CG        51.6950   14.3950   62.6080 C.2   161  ASN161      0.2630
     91  OD1       51.9690   15.5870   62.4740 O.2   161  ASN161     -0.2716
     92  ND2       52.5650   13.5070   63.0730 N.am  161  ASN161     -0.0877
     93  N         50.1900   16.3130   59.7130 N.am  162  HIS162     -0.1959
     94  CA        49.8120   17.7000   59.5100 C.3   162  HIS162      0.1787
     95  C         50.0480   18.1480   58.0770 C.2   162  HIS162      0.2620
     96  O         51.1350   17.9530   57.5220 O.2   162  HIS162     -0.2715
     97  CB        50.5920   18.6000   60.4640 C.3   162  HIS162      0.0785
     98  CG        50.0410   19.9860   60.5680 C.ar  162  HIS162      0.0821
     99  ND1       48.7620   20.2450   61.0140 N.ar  162  HIS162     -0.2267
    100  CD2       50.5970   21.1900   60.2970 C.ar  162  HIS162      0.1154
    101  CE1       48.5560   21.5500   61.0140 C.ar  162  HIS162      0.1986
    102  NE2       49.6520   22.1450   60.5830 N.ar  162  HIS162     -0.2212
    103  N         49.0190   18.7470   57.4850 N.am  163  ALA163     -0.1977
    104  CA        49.0940   19.2430   56.1210 C.3   163  ALA163      0.1597
    105  C         49.4800   20.7230   56.1160 C.2   163  ALA163      0.2287
    106  O         48.9340   21.5180   56.8810 O.2   163  ALA163     -0.2864
    107  CB        47.7520   19.0500   55.4200 C.3   163  ALA163      0.0319
    108  N         53.6650   13.1640   50.5110 N.3   209  LEU209     -0.1245
    109  CA        52.2530   13.3070   50.1820 C.3   209  LEU209      0.1561
    110  C         52.0230   14.6980   49.5960 C.2   209  LEU209      0.2260
    111  O         51.2010   15.4700   50.0980 O.2   209  LEU209     -0.2867
    112  CB        51.4050   13.1140   51.4400 C.3   209  LEU209      0.0270
    113  CG        49.9100   12.9030   51.1970 C.3   209  LEU209      0.0019
    114  CD1       49.6970   11.5990   50.4590 C.3   209  LEU209      0.0001
    115  CD2       49.1740   12.8900   52.5160 C.3   209  LEU209      0.0001
@<TRIPOS>BOND
     1    67    66    2
     2    66    65    1
     3   110   111    2
     4   110   109    1
     5    68    65    1
     6    68    69    1
     7    65    64    1
     8   109   108    1
     9   109   112    1
    10   114   113    1
    11    64    54   am
    12    55    54    2
    13   113   112    1
    14   113   115    1
    15    69    70    1
    16    54    53    1
    17    56    53    1
    18    56    57    1
    19    71    70    1
    20    53    52    1
    21    57    59   ar
    22    57    58   ar
    23    59    61   ar
    24    23    22    2
    25    58    60   ar
    26    72    73    1
    27    32    30   ar
    28    32    33   ar
    29    52    50   am
    30    61    62   ar
    31    30    27   ar
    32    60    62   ar
    33    22    21    1
    34    62    63    1
    35    33    31   ar
    36    76    73    1
    37    83    82    1
    38    73    74    1
    39    75    74    2
    40    50    51    2
    41    50    49    1
    42    27    25   ar
    43    27    29   ar
    44    24    21    1
    45    24    25    1
    46    21    20    1
    47   107   104    1
    48    31    29   ar
    49    25    26   ar
    50    49    48    1
    51    17    16    2
    52    29    28   ar
    53    82    84    1
    54    82    81    1
    55   105   104    1
    56   105   106    2
    57   104   103    1
    58    20    16   am
    59    16    15    1
    60    81    78    1
    61    26    28   ar
    62    48    46   am
    63   103    95   am
    64    96    95    2
    65    47    46    2
    66    46    45    1
    67    95    94    1
    68    15    18    1
    69    15    14    1
    70    78    77    1
    71    78    79    1
    72    18    19    1
    73    80    79    2
    74    79    85   am
    75    45    44    1
    76    94    93    1
    77    94    97    1
    78    93    87   am
    79    85    86    1
    80   100    98   ar
    81   100   102   ar
    82    13    12    2
    83    44    42   am
    84    97    98    1
    85    98    99   ar
    86   102   101   ar
    87    87    86    1
    88    87    88    2
    89    86    89    1
    90    34    35    1
    91     8     7    2
    92    12    11    1
    93   101    99   ar
    94    42    43    2
    95    42    41    1
    96     5     2    1
    97     5     6    1
    98    35    36    1
    99    35    38    1
   100    40    41    1
   101    40    36   am
   102     2     1    1
   103     2     3    1
   104     7     6    1
   105     7     9   am
   106    89    90    1
   107    36    37    2
   108    39    38    1
   109    91    90    2
   110    11    10    1
   111    90    92   am
   112     3     4    2
