@<TRIPOS>MOLECULE
tmp/3kwaA00.pdb
 155 150 0 0 0
SMALL
GASTEIGER

@<TRIPOS>ATOM
      1  N         -3.2010    0.5470    3.5650 N.3    59  ASN59      -0.1240
      2  CA        -2.0150    1.2860    4.0200 C.3    59  ASN59       0.1653
      3  C         -0.8240    0.3410    4.2560 C.2    59  ASN59       0.2266
      4  O          0.1530    0.6870    4.9140 O.2    59  ASN59      -0.2867
      5  CB        -2.3610    2.0930    5.2810 C.3    59  ASN59       0.1155
      6  CG        -2.7870    1.1980    6.4600 C.2    59  ASN59       0.2627
      7  OD1       -2.3470    0.0470    6.5820 O.2    59  ASN59      -0.2716
      8  ND2       -3.6230    1.7350    7.3360 N.am   59  ASN59      -0.0877
      9  N         -0.5800   -2.2420    6.1870 N.3    61  HIS61      -0.1226
     10  CA        -0.6560   -3.0350    7.4370 C.3    61  HIS61       0.1752
     11  C         -2.0640   -3.5450    7.7350 C.2    61  HIS61       0.2595
     12  O         -2.2530   -4.5430    8.4510 O.2    61  HIS61      -0.2718
     13  CB        -0.0070   -2.3460    8.6540 C.3    61  HIS61       0.0759
     14  CG        -0.5280   -0.9740    8.9660 C.ar   61  HIS61       0.0818
     15  ND1        0.0790    0.1770    8.5000 N.ar   61  HIS61      -0.2268
     16  CD2       -1.5540   -0.5620    9.7580 C.ar   61  HIS61       0.1154
     17  CE1       -0.5840    1.2310    8.9410 C.ar   61  HIS61       0.1986
     18  NE2       -1.5670    0.8130    9.7240 N.ar   61  HIS61      -0.2212
     19  N         -3.0360   -2.8660    7.1510 N.am   62  ALA62      -0.1980
     20  CA        -4.4450   -3.1780    7.2780 C.3    62  ALA62       0.1597
     21  C         -5.1540   -2.3860    6.1860 C.2    62  ALA62       0.2287
     22  O         -4.5120   -1.6710    5.4070 O.2    62  ALA62      -0.2864
     23  CB        -4.9520   -2.7720    8.6380 C.3    62  ALA62       0.0319
     24  N         -8.0930    0.5960    5.9160 N.3    64  ASN64      -0.1240
     25  CA        -8.9360    1.5870    6.6020 C.3    64  ASN64       0.1653
     26  C        -10.1820    2.0140    5.8300 C.2    64  ASN64       0.2266
     27  O        -10.0880    2.4650    4.6750 O.2    64  ASN64      -0.2867
     28  CB        -8.1190    2.8550    6.8750 C.3    64  ASN64       0.1155
     29  CG        -7.3030    2.7750    8.1690 C.2    64  ASN64       0.2627
     30  OD1       -6.6720    3.7470    8.5620 O.2    64  ASN64      -0.2716
     31  ND2       -7.3240    1.6330    8.8310 N.am   64  ASN64      -0.0877
     32  N        -12.1510    6.5250   11.3770 N.3    89  GLN89      -0.1245
     33  CA       -11.9600    5.3650   10.5120 C.3    89  GLN89       0.1566
     34  C        -12.2890    4.0610   11.2360 C.2    89  GLN89       0.2260
     35  O        -12.4360    4.0710   12.4680 O.2    89  GLN89      -0.2867
     36  CB       -10.5250    5.3570    9.9290 C.3    89  GLN89       0.0367
     37  CG        -9.3630    5.4450   10.9620 C.3    89  GLN89       0.0905
     38  CD        -8.8230    4.0880   11.2990 C.2    89  GLN89       0.2608
     39  OE1       -9.5630    3.1080   11.3800 O.2    89  GLN89      -0.2717
     40  NE2       -7.5290    4.0030   11.4480 N.am   89  GLN89      -0.0878
     41  N        -10.9610   -0.3960   10.8530 N.3    91  HIS91      -0.1241
     42  CA       -10.0330   -1.3650   10.2570 C.3    91  HIS91       0.1621
     43  C        -10.0960   -2.6350   11.1130 C.2    91  HIS91       0.2264
     44  O        -10.7090   -2.6360   12.1870 O.2    91  HIS91      -0.2867
     45  CB        -8.5970   -0.8210   10.2590 C.3    91  HIS91       0.0745
     46  CG        -8.0800   -0.5400   11.6330 C.ar   91  HIS91       0.0817
     47  ND1       -8.2760    0.6640   12.2730 N.ar   91  HIS91      -0.2268
     48  CD2       -7.4410   -1.3390   12.5230 C.ar   91  HIS91       0.1154
     49  CE1       -7.7590    0.6040   13.4870 C.ar   91  HIS91       0.1986
     50  NE2       -7.2390   -0.6010   13.6580 N.ar   91  HIS91      -0.2212
     51  N        -11.7600   -2.6030   14.9070 N.3   116  HIS116     -0.1241
     52  CA       -11.5740   -1.3810   15.6610 C.3   116  HIS116      0.1621
     53  C        -12.2520   -0.2070   14.9870 C.2   116  HIS116      0.2264
     54  O        -12.0100    0.0410   13.8310 O.2   116  HIS116     -0.2867
     55  CB       -10.0890   -1.0840   15.8430 C.3   116  HIS116      0.0745
     56  CG        -9.3930   -2.0840   16.7120 C.ar  116  HIS116      0.0817
     57  ND1       -8.0230   -2.2440   16.7190 N.ar  116  HIS116     -0.2268
     58  CD2       -9.8810   -3.0130   17.5730 C.ar  116  HIS116      0.1154
     59  CE1       -7.6980   -3.2020   17.5580 C.ar  116  HIS116      0.1986
     60  NE2       -8.8010   -3.6940   18.0840 N.ar  116  HIS116     -0.2212
     61  N        -12.5090    3.7440   15.3020 N.3   118  VAL118     -0.1245
     62  CA       -11.6090    4.6960   15.9350 C.3   118  VAL118      0.1561
     63  C        -12.2960    6.0560   16.0080 C.2   118  VAL118      0.2260
     64  O        -12.8840    6.4960   15.0240 O.2   118  VAL118     -0.2867
     65  CB       -10.2490    4.7010   15.1930 C.3   118  VAL118      0.0252
     66  CG1       -9.1990    5.5200   15.9250 C.3   118  VAL118      0.0019
     67  CG2       -9.7690    3.2790   14.9710 C.3   118  VAL118      0.0019
     68  N         -8.1910   15.4340   14.7500 N.3   127  PHE127     -0.1241
     69  CA        -7.6810   14.1200   15.1850 C.3   127  PHE127      0.1605
     70  C         -6.2340   14.2370   15.6350 C.2   127  PHE127      0.2264
     71  O         -5.8290   13.5380   16.5420 O.2   127  PHE127     -0.2867
     72  CB        -7.8760   13.0190   14.1220 C.3   127  PHE127      0.0534
     73  CG        -7.1680   11.7230   14.4490 C.ar  127  PHE127     -0.0203
     74  CD1       -5.9060   11.4350   13.9040 C.ar  127  PHE127     -0.0042
     75  CD2       -7.7500   10.7880   15.2980 C.ar  127  PHE127     -0.0042
     76  CE1       -5.2360   10.2520   14.2230 C.ar  127  PHE127     -0.0003
     77  CE2       -7.0850    9.5590   15.6250 C.ar  127  PHE127     -0.0003
     78  CZ        -5.8350    9.3030   15.0860 C.ar  127  PHE127     -0.0000
     79  N         -4.7830   13.1540   19.6120 N.3   131  VAL131     -0.1245
     80  CA        -3.8060   12.1010   19.9120 C.3   131  VAL131      0.1561
     81  C         -2.7170   12.5670   20.8920 C.2   131  VAL131      0.2260
     82  O         -2.0420   11.7520   21.5190 O.2   131  VAL131     -0.2867
     83  CB        -3.2370   11.4080   18.6230 C.3   131  VAL131      0.0252
     84  CG1       -4.3500   10.6640   17.9080 C.3   131  VAL131      0.0019
     85  CG2       -2.5450   12.3990   17.6940 C.3   131  VAL131      0.0019
     86  N        -11.8250    3.9670   21.2050 N.3   139  VAL139     -0.1245
     87  CA       -11.9250    2.8490   20.2480 C.3   139  VAL139      0.1561
     88  C        -12.9040    1.7750   20.7080 C.2   139  VAL139      0.2260
     89  O        -12.7680    1.2320   21.7910 O.2   139  VAL139     -0.2867
     90  CB       -10.5590    2.2120   19.9010 C.3   139  VAL139      0.0252
     91  CG1      -10.7510    1.1330   18.8230 C.3   139  VAL139      0.0019
     92  CG2       -9.6020    3.2520   19.4210 C.3   139  VAL139      0.0019
     93  N         -3.9970    2.3200   24.6700 N.3   193  SER193     -0.1202
     94  CA        -3.2160    2.9120   23.6000 C.3   193  SER193      0.2020
     95  C         -3.6860    2.5780   22.1670 C.2   193  SER193      0.2619
     96  O         -4.5400    1.7310   21.9790 O.2   193  SER193     -0.2717
     97  CB        -1.7410    2.5270   23.7740 C.3   193  SER193      0.2103
     98  OG        -1.4260    1.2560   23.2050 O.3   193  SER193     -0.2182
     99  N         -3.1360    3.2690   21.1630 N.am  194  LEU194     -0.1965
    100  CA        -3.1020    2.7340   19.8060 C.3   194  LEU194      0.1728
    101  C         -2.3380    1.3660   19.7990 C.2   194  LEU194      0.2617
    102  O         -1.4070    1.1590   20.5910 O.2   194  LEU194     -0.2715
    103  CB        -2.4490    3.7470   18.8660 C.3   194  LEU194      0.0311
    104  CG        -2.9320    5.2280   18.8520 C.3   194  LEU194      0.0022
    105  CD1       -1.9420    6.0990   18.1650 C.3   194  LEU194      0.0001
    106  CD2       -4.2800    5.3180   18.1910 C.3   194  LEU194      0.0001
    107  N         -2.7350    0.4370   18.9190 N.am  195  THR195     -0.1937
    108  CA        -2.1090   -0.8940   18.8760 C.3   195  THR195      0.2028
    109  C         -1.0630   -1.0390   17.7830 C.2   195  THR195      0.2643
    110  O         -0.4050   -2.0770   17.6730 O.2   195  THR195     -0.2714
    111  CB        -3.1340   -2.0350   18.7070 C.3   195  THR195      0.1808
    112  OG1       -3.9020   -1.7940   17.5350 O.3   195  THR195     -0.2208
    113  CG2       -4.0580   -2.1840   19.9560 C.3   195  THR195      0.0379
    114  N         -0.9320   -0.0050   16.9680 N.am  196  THR196     -0.1937
    115  CA         0.0940    0.0730   15.9440 C.3   196  THR196      0.2013
    116  C          0.9100    1.3170   16.2170 C.2   196  THR196      0.2484
    117  O          0.3910    2.2880   16.7900 O.2   196  THR196     -0.2729
    118  CB        -0.5410    0.2960   14.5370 C.3   196  THR196      0.1807
    119  OG1       -1.3620    1.4640   14.6020 O.3   196  THR196     -0.2208
    120  CG2       -1.3930   -0.8730   14.1170 C.3   196  THR196      0.0379
    121  N          2.1980    1.3190   15.8000 N.am  197  PRO197     -0.2715
    122  CA         2.9230    2.5860   15.9250 C.3   197  PRO197      0.1521
    123  C          2.1530    3.8050   15.3890 C.2   197  PRO197      0.2440
    124  O          1.4730    3.7100   14.3400 O.2   197  PRO197     -0.2731
    125  CB         4.2310    2.3010   15.1820 C.3   197  PRO197      0.0310
    126  CG         4.4990    0.9090   15.4980 C.3   197  PRO197      0.0237
    127  CD         3.0960    0.2530   15.3200 C.3   197  PRO197      0.0939
    128  N          2.2440    4.9440   16.0880 N.am  198  PRO198     -0.2727
    129  CA         3.1160    5.2880   17.2380 C.3   198  PRO198      0.1402
    130  C          2.6960    4.9300   18.6790 C.2   198  PRO198      0.2269
    131  O          3.3050    5.4290   19.6370 O.2   198  PRO198     -0.2865
    132  CB         3.2790    6.8100   17.0860 C.3   198  PRO198      0.0296
    133  CG         2.0850    7.2760   16.3370 C.3   198  PRO198      0.0237
    134  CD         1.4220    6.1060   15.6710 C.3   198  PRO198      0.0939
    135  N         -6.1200    6.4020   24.2760 N.3   203  VAL203     -0.1245
    136  CA        -7.3540    5.6300   24.0660 C.3   203  VAL203      0.1561
    137  C         -8.0980    5.1360   25.3130 C.2   203  VAL203      0.2260
    138  O         -7.5450    4.3930   26.1750 O.2   203  VAL203     -0.2867
    139  CB        -7.0920    4.3870   23.1410 C.3   203  VAL203      0.0252
    140  CG1       -8.4030    3.7490   22.7260 C.3   203  VAL203      0.0019
    141  CG2       -6.2080    4.7630   21.8780 C.3   203  VAL203      0.0019
    142  N        -10.5250    2.3740   25.7850 N.3   205  TRP205     -0.1241
    143  CA       -10.9020    1.2170   25.0330 C.3   205  TRP205      0.1605
    144  C        -12.2310    0.7290   25.5330 C.2   205  TRP205      0.2264
    145  O        -12.4230    0.5360   26.7350 O.2   205  TRP205     -0.2867
    146  CB        -9.8550    0.1100   25.1880 C.3   205  TRP205      0.0550
    147  CG        -8.8180    0.1550   24.1430 C.ar  205  TRP205      0.0003
    148  CD1       -7.6060    0.7730   24.2090 C.ar  205  TRP205      0.0946
    149  CD2       -8.9120   -0.4220   22.8330 C.ar  205  TRP205      0.0152
    150  NE1       -6.9270    0.6170   23.0170 N.ar  205  TRP205     -0.2442
    151  CE2       -7.7020   -0.1320   22.1640 C.ar  205  TRP205      0.0810
    152  CE3       -9.9120   -1.1520   22.1580 C.ar  205  TRP205      0.0012
    153  CZ2       -7.4660   -0.5370   20.8560 C.ar  205  TRP205      0.0191
    154  CZ3       -9.6840   -1.5460   20.8640 C.ar  205  TRP205      0.0001
    155  CH2       -8.4590   -1.2490   20.2230 C.ar  205  TRP205      0.0015
@<TRIPOS>BOND
     1     1     2    1
     2     2     3    1
     3     2     5    1
     4     3     4    2
     5    27    26    2
     6     5     6    1
     7    22    21    2
     8    26    25    1
     9    24    25    1
    10    21    20    1
    11     9    10    1
    12     6     7    2
    13     6     8   am
    14    25    28    1
    15    28    29    1
    16    19    20    1
    17    19    11   am
    18    20    23    1
    19    10    11    1
    20    10    13    1
    21    11    12    2
    22    29    30    2
    23    29    31   am
    24    15    17   ar
    25    15    14   ar
    26    13    14    1
    27    17    18   ar
    28    14    16   ar
    29    18    16   ar
    30    36    33    1
    31    36    37    1
    32    42    45    1
    33    42    41    1
    34    42    43    1
    35    45    46    1
    36    33    34    1
    37    33    32    1
    38    37    38    1
    39    43    44    2
    40    34    35    2
    41    38    39    2
    42    38    40   am
    43    46    47   ar
    44    46    48   ar
    45    47    49   ar
    46    48    50   ar
    47    49    50   ar
    48    54    53    2
    49    74    76   ar
    50    74    73   ar
    51   120   118    1
    52    72    73    1
    53    72    69    1
    54    76    78   ar
    55   124   123    2
    56    73    75   ar
    57   118   119    1
    58   118   115    1
    59    68    69    1
    60    51    52    1
    61    67    65    1
    62    53    52    1
    63    64    63    2
    64    78    77   ar
    65   125   126    1
    66   125   122    1
    67    69    70    1
    68    65    66    1
    69    65    62    1
    70    75    77   ar
    71    61    62    1
    72   127   126    1
    73   127   121    1
    74   123   122    1
    75   123   128   am
    76    70    71    2
    77    52    55    1
    78   134   128    1
    79   134   133    1
    80   121   122    1
    81   121   116   am
    82    55    56    1
    83    62    63    1
    84   115   116    1
    85   115   114    1
    86   128   129    1
    87   116   117    2
    88   133   132    1
    89    56    57   ar
    90    56    58   ar
    91    57    59   ar
    92   114   109   am
    93   132   129    1
    94   129   130    1
    95   112   111    1
    96    59    60   ar
    97    58    60   ar
    98   110   109    2
    99    85    83    1
   100   109   108    1
   101    84    83    1
   102   105   104    1
   103   106   104    1
   104    83    80    1
   105   130   131    2
   106   111   108    1
   107   111   113    1
   108    91    90    1
   109   104   103    1
   110   103   100    1
   111   108   107    1
   112   107   101   am
   113    92    90    1
   114    79    80    1
   115   101   100    1
   116   101   102    2
   117   100    99    1
   118    90    87    1
   119    80    81    1
   120   155   153   ar
   121   155   154   ar
   122    87    88    1
   123    87    86    1
   124    88    89    2
   125   153   151   ar
   126   154   152   ar
   127    81    82    2
   128    99    95   am
   129   141   139    1
   130    96    95    2
   131   152   149   ar
   132   151   149   ar
   133   151   150   ar
   134    95    94    1
   135   140   139    1
   136   149   147   ar
   137   150   148   ar
   138   139   136    1
   139    98    97    1
   140    94    97    1
   141    94    93    1
   142   136   135    1
   143   136   137    1
   144   147   148   ar
   145   147   146    1
   146   143   146    1
   147   143   144    1
   148   143   142    1
   149   137   138    2
   150   144   145    2
