@<TRIPOS>MOLECULE
tmp/3kwbA00.pdb
 149 145 0 0 0
SMALL
GASTEIGER

@<TRIPOS>ATOM
      1  N          0.4950    9.6560   28.5760 N.3    19  GLN19      -0.1245
      2  CA        -0.8930    9.4520   28.1750 C.3    19  GLN19       0.1566
      3  C         -1.5340   10.6890   27.5500 C.2    19  GLN19       0.2260
      4  O         -2.5920   10.5980   26.9280 O.2    19  GLN19      -0.2867
      5  CB        -1.7280    8.9950   29.3680 C.3    19  GLN19       0.0367
      6  CG        -2.0160   10.0750   30.3890 C.3    19  GLN19       0.0905
      7  CD        -2.8420    9.5480   31.5460 C.2    19  GLN19       0.2608
      8  OE1       -2.3820    8.7020   32.3090 O.2    19  GLN19      -0.2717
      9  NE2       -4.0730   10.0340   31.6700 N.am   19  GLN19      -0.0878
     10  N         -7.7560   10.4360   29.4980 N.3    23  GLY23      -0.1225
     11  CA        -7.7690    9.8020   30.8060 C.3    23  GLY23       0.1811
     12  C         -7.6710    8.3010   30.6950 C.2    23  GLY23       0.2280
     13  O         -8.5240    7.5770   31.2020 O.2    23  GLY23      -0.2866
     14  N         -5.1610    6.3470   31.9280 N.3    25  CYS25      -0.1221
     15  CA        -4.1910    5.7870   32.8630 C.3    25  CYS25       0.1808
     16  C         -4.3980    4.2840   33.0790 C.2    25  CYS25       0.2601
     17  O         -3.4310    3.5290   33.1790 O.2    25  CYS25      -0.2717
     18  CB        -4.2690    6.5080   34.2070 C.3    25  CYS25       0.0970
     19  SG        -5.8820    6.3820   34.9580 S.3    25  CYS25      -0.0800
     20  N         -5.6550    3.8540   33.1410 N.am   26  TRP26      -0.1976
     21  CA        -5.9590    2.4460   33.3520 C.3    26  TRP26       0.1640
     22  C         -5.3610    1.5720   32.2440 C.2    26  TRP26       0.2290
     23  O         -5.0170    0.4150   32.4800 O.2    26  TRP26      -0.2864
     24  CB        -7.4730    2.2330   33.4210 C.3    26  TRP26       0.0576
     25  CG        -8.2040    2.6100   32.1670 C.ar   26  TRP26       0.0006
     26  CD1       -8.7790    3.8160   31.8780 C.ar   26  TRP26       0.0946
     27  CD2       -8.4470    1.7670   31.0350 C.ar   26  TRP26       0.0152
     28  NE1       -9.3710    3.7720   30.6380 N.ar   26  TRP26      -0.2442
     29  CE2       -9.1830    2.5260   30.1000 C.ar   26  TRP26       0.0810
     30  CE3       -8.1180    0.4420   30.7230 C.ar   26  TRP26       0.0012
     31  CZ2       -9.5950    2.0020   28.8700 C.ar   26  TRP26       0.0191
     32  CZ3       -8.5300   -0.0780   29.5020 C.ar   26  TRP26       0.0001
     33  CH2       -9.2620    0.7020   28.5930 C.ar   26  TRP26       0.0015
     34  N        -11.0560    7.1250   27.0900 N.3    63  CYS63      -0.1221
     35  CA       -10.3830    8.2220   27.7890 C.3    63  CYS63       0.1808
     36  C        -11.2270    8.6980   28.9580 C.2    63  CYS63       0.2602
     37  O        -10.7400    9.4160   29.8360 O.2    63  CYS63      -0.2717
     38  CB       -10.1540    9.4070   26.8490 C.3    63  CYS63       0.0970
     39  SG        -9.0460    9.0410   25.4620 S.3    63  CYS63      -0.0800
     40  N        -12.4960    8.2970   28.9570 N.am   64  GLY64      -0.1942
     41  CA       -13.4040    8.7100   30.0120 C.3    64  GLY64       0.2014
     42  C        -13.3280    7.8870   31.2800 C.2    64  GLY64       0.2639
     43  O        -14.0310    8.1760   32.2450 O.2    64  GLY64      -0.2714
     44  N        -12.4870    6.8570   31.2860 N.am   65  GLY65      -0.1939
     45  CA       -12.3630    6.0330   32.4740 C.3    65  GLY65       0.2014
     46  C        -12.3670    4.5440   32.1940 C.2    65  GLY65       0.2639
     47  O        -12.6530    4.1060   31.0780 O.2    65  GLY65      -0.2714
     48  N        -12.0440    3.7640   33.2210 N.am   66  GLY66      -0.1939
     49  CA       -12.0080    2.3190   33.0780 C.3    66  GLY66       0.2014
     50  C        -11.1890    1.6420   34.1620 C.2    66  GLY66       0.2639
     51  O        -10.5110    2.3060   34.9550 O.2    66  GLY66      -0.2714
     52  N        -11.2560    0.3130   34.1900 N.am   67  TYR67      -0.1959
     53  CA       -10.5360   -0.4880   35.1720 C.3    67  TYR67       0.1771
     54  C         -9.5480   -1.4330   34.5050 C.2    67  TYR67       0.2619
     55  O         -9.7850   -1.9170   33.3950 O.2    67  TYR67      -0.2715
     56  CB       -11.5200   -1.3080   36.0080 C.3    67  TYR67       0.0574
     57  CG       -12.4240   -0.4780   36.8780 C.ar   67  TYR67      -0.0198
     58  CD1      -11.9670    0.0630   38.0730 C.ar   67  TYR67      -0.0009
     59  CD2      -13.7260   -0.2120   36.4950 C.ar   67  TYR67      -0.0009
     60  CE1      -12.7900    0.8530   38.8650 C.ar   67  TYR67       0.0417
     61  CE2      -14.5540    0.5730   37.2720 C.ar   67  TYR67       0.0417
     62  CZ       -14.0820    1.1030   38.4550 C.ar   67  TYR67       0.1957
     63  OH       -14.9080    1.8880   39.2210 O.3    67  TYR67      -0.2866
     64  N         -8.4410   -1.6950   35.1940 N.am   68  MET68      -0.1977
     65  CA        -7.4150   -2.5960   34.6840 C.3    68  MET68       0.1605
     66  C         -7.9420   -4.0260   34.5850 C.2    68  MET68       0.2287
     67  O         -7.5530   -4.7810   33.6950 O.2    68  MET68      -0.2864
     68  CB        -6.1820   -2.5670   35.5890 C.3    68  MET68       0.0413
     69  CG        -5.4620   -1.2280   35.6250 C.3    68  MET68       0.0598
     70  SD        -6.3320    0.0100   36.5880 S.3    68  MET68      -0.1393
     71  CE        -5.6650   -0.3510   38.2350 C.3    68  MET68       0.0692
     72  N         -4.4260    1.4140   41.9610 N.3   134  ALA134     -0.1245
     73  CA        -5.1390    2.6790   41.8380 C.3   134  ALA134      0.1562
     74  C         -4.8660    3.5330   43.0690 C.2   134  ALA134      0.2260
     75  O         -4.6730    3.0110   44.1700 O.2   134  ALA134     -0.2867
     76  CB        -6.6400    2.4420   41.6880 C.3   134  ALA134      0.0290
     77  N         -4.6570   10.6160   43.2520 N.3   137  ALA137     -0.1231
     78  CA        -3.5530   11.4430   42.7870 C.3   137  ALA137      0.1694
     79  C         -4.0260   12.8660   42.5360 C.2   137  ALA137      0.2592
     80  O         -3.4090   13.6060   41.7720 O.2   137  ALA137     -0.2718
     81  CB        -2.9750   10.8530   41.5100 C.3   137  ALA137      0.0304
     82  N         -5.1130   13.2480   43.1970 N.am  138  SER138     -0.1952
     83  CA        -5.6920   14.5760   43.0250 C.3   138  SER138      0.1924
     84  C         -5.0080   15.6960   43.8090 C.2   138  SER138      0.2314
     85  O         -5.2260   16.8700   43.5200 O.2   138  SER138     -0.2863
     86  CB        -7.1730   14.5490   43.4080 C.3   138  SER138      0.2116
     87  OG        -7.3210   14.4760   44.8150 O.3   138  SER138     -0.2180
     88  N          0.9890   16.1520   42.2880 N.3   143  GLN143     -0.1245
     89  CA         1.2160   16.7660   40.9910 C.3   143  GLN143      0.1566
     90  C          2.6330   17.3130   40.8670 C.2   143  GLN143      0.2260
     91  O          3.2420   17.2370   39.8020 O.2   143  GLN143     -0.2867
     92  CB         0.2140   17.9010   40.7760 C.3   143  GLN143      0.0367
     93  CG         0.2910   18.5390   39.4050 C.3   143  GLN143      0.0905
     94  CD         0.0960   17.5250   38.2960 C.2   143  GLN143      0.2608
     95  OE1       -0.9250   16.8360   38.2440 O.2   143  GLN143     -0.2717
     96  NE2        1.0750   17.4230   37.4050 N.am  143  GLN143     -0.0878
     97  N        -10.3140    6.8690   44.3890 N.3   160  LEU160     -0.1231
     98  CA        -9.3970    6.2610   43.4300 C.3   160  LEU160      0.1693
     99  C         -9.6380    6.9150   42.0720 C.2   160  LEU160      0.2592
    100  O        -10.5490    6.5350   41.3370 O.2   160  LEU160     -0.2718
    101  CB        -9.6610    4.7560   43.3510 C.3   160  LEU160      0.0284
    102  CG        -9.6820    4.0520   44.7130 C.3   160  LEU160      0.0019
    103  CD1      -10.0070    2.5820   44.5330 C.3   160  LEU160      0.0001
    104  CD2       -8.3300    4.2280   45.4010 C.3   160  LEU160      0.0001
    105  N         -8.8130    7.8990   41.7390 N.am  161  ASN161     -0.1960
    106  CA        -8.9710    8.6370   40.4940 C.3   161  ASN161      0.1819
    107  C         -7.7970    8.5230   39.5200 C.2   161  ASN161      0.2621
    108  O         -7.7100    9.2810   38.5520 O.2   161  ASN161     -0.2715
    109  CB        -9.2140   10.1020   40.8350 C.3   161  ASN161      0.1195
    110  CG        -8.2030   10.6290   41.8340 C.2   161  ASN161      0.2630
    111  OD1       -7.0000   10.6250   41.5710 O.2   161  ASN161     -0.2716
    112  ND2       -8.6810   11.0700   42.9900 N.am  161  ASN161     -0.0877
    113  N         -6.8990    7.5780   39.7660 N.am  162  HIS162     -0.1959
    114  CA        -5.7520    7.4000   38.8860 C.3   162  HIS162      0.1787
    115  C         -5.1930    5.9870   39.0050 C.2   162  HIS162      0.2620
    116  O         -5.1780    5.4020   40.0950 O.2   162  HIS162     -0.2715
    117  CB        -4.6690    8.4340   39.2240 C.3   162  HIS162      0.0785
    118  CG        -3.5190    8.4510   38.2630 C.ar  162  HIS162      0.0821
    119  ND1       -3.6880    8.5650   36.9000 N.ar  162  HIS162     -0.2267
    120  CD2       -2.1820    8.4060   38.4720 C.ar  162  HIS162      0.1154
    121  CE1       -2.5060    8.5910   36.3110 C.ar  162  HIS162      0.1986
    122  NE2       -1.5750    8.4960   37.2430 N.ar  162  HIS162     -0.2212
    123  N         -4.7380    5.4460   37.8750 N.am  163  ALA163     -0.1977
    124  CA        -4.1810    4.0970   37.8270 C.3   163  ALA163      0.1597
    125  C         -2.7070    4.1730   37.4690 C.2   163  ALA163      0.2287
    126  O         -2.3220    4.8110   36.4870 O.2   163  ALA163     -0.2864
    127  CB        -4.9270    3.2560   36.8030 C.3   163  ALA163      0.0319
    128  N          2.5330   10.0370   32.9820 N.3   184  TRP184     -0.1241
    129  CA         2.3660   11.4530   32.6940 C.3   184  TRP184      0.1605
    130  C          3.6570   12.0020   32.0890 C.2   184  TRP184      0.2264
    131  O          3.9510   13.1890   32.2210 O.2   184  TRP184     -0.2867
    132  CB         2.0380   12.2420   33.9740 C.3   184  TRP184      0.0550
    133  CG         0.6720   12.0000   34.5400 C.ar  184  TRP184      0.0003
    134  CD1       -0.3670   11.3490   33.9360 C.ar  184  TRP184      0.0946
    135  CD2        0.1750   12.4650   35.8000 C.ar  184  TRP184      0.0152
    136  NE1       -1.4780   11.3850   34.7410 N.ar  184  TRP184     -0.2442
    137  CE2       -1.1730   12.0660   35.8910 C.ar  184  TRP184      0.0810
    138  CE3        0.7390   13.1850   36.8600 C.ar  184  TRP184      0.0012
    139  CZ2       -1.9670   12.3600   37.0020 C.ar  184  TRP184      0.0191
    140  CZ3       -0.0510   13.4750   37.9620 C.ar  184  TRP184      0.0001
    141  CH2       -1.3880   13.0650   38.0230 C.ar  184  TRP184      0.0015
    142  N         -7.1920   -1.2080   45.1080 N.3   209  LEU209     -0.1245
    143  CA        -7.5840   -1.7650   43.8190 C.3   209  LEU209      0.1561
    144  C         -6.3650   -2.2160   43.0290 C.2   209  LEU209      0.2260
    145  O         -6.0380   -1.6380   41.9940 O.2   209  LEU209     -0.2867
    146  CB        -8.3630   -0.7170   43.0210 C.3   209  LEU209      0.0270
    147  CG        -9.1350   -1.2460   41.8170 C.3   209  LEU209      0.0019
    148  CD1      -10.1460   -2.2780   42.2970 C.3   209  LEU209      0.0001
    149  CD2       -9.8310   -0.1030   41.1060 C.3   209  LEU209      0.0001
@<TRIPOS>BOND
     1    39    38    1
     2    38    35    1
     3     4     3    2
     4    34    35    1
     5     3     2    1
     6    35    36    1
     7     2     1    1
     8     2     5    1
     9    33    31   ar
    10    33    32   ar
    11    31    29   ar
    12    40    36   am
    13    40    41    1
    14    36    37    2
    15     5     6    1
    16    10    11    1
    17    32    30   ar
    18    41    42    1
    19    29    28   ar
    20    29    27   ar
    21     6     7    1
    22    28    26   ar
    23    12    11    1
    24    12    13    2
    25    30    27   ar
    26    27    25   ar
    27    47    46    2
    28    42    44   am
    29    42    43    2
    30    44    45    1
    31     7     9   am
    32     7     8    2
    33    26    25   ar
    34    14    15    1
    35   130   131    2
    36   130   129    1
    37    25    24    1
    38    46    45    1
    39    46    48   am
    40    22    23    2
    41    22    21    1
    42   129   128    1
    43   129   132    1
    44    15    16    1
    45    15    18    1
    46    49    48    1
    47    49    50    1
    48    16    20   am
    49    16    17    2
    50    20    21    1
    51    21    24    1
    52    55    54    2
    53    67    66    2
    54   134   133   ar
    55   134   136   ar
    56   132   133    1
    57    50    52   am
    58    50    51    2
    59    52    53    1
    60    18    19    1
    61    54    53    1
    62    54    64   am
    63   133   135   ar
    64    66    65    1
    65    65    64    1
    66    65    68    1
    67   136   137   ar
    68    53    56    1
    69    68    69    1
    70    69    70    1
    71   135   137   ar
    72   135   138   ar
    73   137   139   ar
    74    56    57    1
    75   121   119   ar
    76   121   122   ar
    77   126   125    2
    78    59    57   ar
    79    59    61   ar
    80    70    71    1
    81   127   124    1
    82   138   140   ar
    83    57    58   ar
    84   119   118   ar
    85   139   141   ar
    86   122   120   ar
    87    61    62   ar
    88    96    94   am
    89   125   124    1
    90   124   123    1
    91   123   115   am
    92   140   141   ar
    93    58    60   ar
    94    95    94    2
    95   118   120   ar
    96   118   117    1
    97    94    93    1
    98    62    60   ar
    99    62    63    1
   100   108   107    2
   101   114   115    1
   102   114   117    1
   103   114   113    1
   104   115   116    2
   105    93    92    1
   106   107   113   am
   107   107   106    1
   108    91    90    2
   109   106   109    1
   110   106   105    1
   111    92    89    1
   112   109   110    1
   113    90    89    1
   114    89    88    1
   115   149   147    1
   116   100    99    2
   117    81    78    1
   118   111   110    2
   119    76    73    1
   120   105    99   am
   121    80    79    2
   122   147   148    1
   123   147   146    1
   124   110   112   am
   125    73    72    1
   126    73    74    1
   127   145   144    2
   128    99    98    1
   129    79    78    1
   130    79    82   am
   131    78    77    1
   132   146   143    1
   133    83    82    1
   134    83    86    1
   135    83    84    1
   136   144   143    1
   137    74    75    2
   138   101    98    1
   139   101   102    1
   140    86    87    1
   141    98    97    1
   142    85    84    2
   143   143   142    1
   144   103   102    1
   145   102   104    1
