@<TRIPOS>MOLECULE
tmp/3kwfA02.pdb
 187 182 0 0 0
SMALL
GASTEIGER

@<TRIPOS>ATOM
      1  N         50.5190   62.2180   33.7340 N.3    87  ARG87      -0.1245
      2  CA        51.0510   61.3100   32.7380 C.3    87  ARG87       0.1563
      3  C         50.9170   61.8740   31.3220 C.2    87  ARG87       0.2260
      4  O         51.8810   61.8360   30.5490 O.2    87  ARG87      -0.2867
      5  CB        50.4060   59.9300   32.8490 C.3    87  ARG87       0.0307
      6  CG        51.1730   58.8390   32.1500 C.3    87  ARG87       0.0489
      7  CD        50.3550   57.5850   32.0430 C.3    87  ARG87       0.2205
      8  NE        50.2050   56.8710   33.3110 N.pl3  87  ARG87      -0.0865
      9  CZ        51.0580   55.9590   33.7770 C.cat  87  ARG87       0.5346
     10  NH1       52.1570   55.6650   33.0960 N.pl3  87  ARG87       0.1354
     11  NH2       50.8240   55.3570   34.9400 N.pl3  87  ARG87       0.1354
     12  N         44.0250   59.5440   33.7340 N.3   167  GLU167     -0.1231
     13  CA        44.8060   58.3580   34.0180 C.3   167  GLU167      0.1699
     14  C         44.0750   57.0660   33.6780 C.2   167  GLU167      0.2592
     15  O         44.6290   56.2030   32.9990 O.2   167  GLU167     -0.2718
     16  CB        45.2580   58.3530   35.4860 C.3   167  GLU167      0.0402
     17  CG        45.9870   57.0730   35.9460 C.3   167  GLU167      0.1161
     18  CD        47.3340   56.8450   35.2350 C.2   167  GLU167      0.3649
     19  OE1       47.9310   57.8140   34.6990 O.co2 167  GLU167     -0.2457
     20  OE2       47.7880   55.6810   35.2130 O.co2 167  GLU167     -0.2457
     21  N         42.8360   56.9290   34.1450 N.am  168  GLU168     -0.1966
     22  CA        42.1690   55.6280   34.1250 C.3   168  GLU168      0.1733
     23  C         41.2670   55.3570   32.9310 C.2   168  GLU168      0.2616
     24  O         41.0080   54.1900   32.6190 O.2   168  GLU168     -0.2715
     25  CB        41.3860   55.3890   35.4180 C.3   168  GLU168      0.0429
     26  CG        42.2130   55.5310   36.6900 C.3   168  GLU168      0.1163
     27  CD        43.3990   54.5720   36.7750 C.2   168  GLU168      0.3649
     28  OE1       43.6160   53.7490   35.8510 O.co2 168  GLU168     -0.2457
     29  OE2       44.1230   54.6380   37.7870 O.co2 168  GLU168     -0.2457
     30  N         40.7730   56.4130   32.2750 N.am  169  VAL169     -0.1977
     31  CA        39.7220   56.2180   31.2750 C.3   169  VAL169      0.1596
     32  C         40.2050   56.5700   29.8810 C.2   169  VAL169      0.2287
     33  O         40.3180   55.6960   29.0310 O.2   169  VAL169     -0.2864
     34  CB        38.3940   56.9610   31.6250 C.3   169  VAL169      0.0276
     35  CG1       37.2980   56.5680   30.6670 C.3   169  VAL169      0.0022
     36  CG2       37.9660   56.6790   33.0610 C.3   169  VAL169      0.0022
     37  N         43.1800   57.9930   28.9060 N.3   171  SER171     -0.1217
     38  CA        44.6330   58.1020   28.6820 C.3   171  SER171      0.1889
     39  C         44.9730   59.3620   27.8740 C.2   171  SER171      0.2288
     40  O         45.7630   59.3320   26.9320 O.2   171  SER171     -0.2866
     41  CB        45.1950   56.8310   28.0130 C.3   171  SER171      0.2089
     42  OG        44.8370   55.6640   28.7430 O.3   171  SER171     -0.2183
     43  N         40.8790   47.1660   29.8070 N.3   319  PHE319     -0.1227
     44  CA        40.9390   48.2370   30.7970 C.3   319  PHE319      0.1736
     45  C         39.6790   49.0990   30.7420 C.2   319  PHE319      0.2595
     46  O         39.3910   49.8350   31.6770 O.2   319  PHE319     -0.2718
     47  CB        42.2040   49.0860   30.6070 C.3   319  PHE319      0.0547
     48  CG        43.4730   48.3270   30.8690 C.ar  319  PHE319     -0.0202
     49  CD1       43.9650   48.1980   32.1670 C.ar  319  PHE319     -0.0042
     50  CD2       44.1490   47.6990   29.8300 C.ar  319  PHE319     -0.0042
     51  CE1       45.1240   47.4680   32.4220 C.ar  319  PHE319     -0.0003
     52  CE2       45.3100   46.9700   30.0700 C.ar  319  PHE319     -0.0003
     53  CZ        45.8070   46.8640   31.3650 C.ar  319  PHE319     -0.0000
     54  N         38.9440   48.9930   29.6380 N.am  320  ARG320     -0.1980
     55  CA        37.7040   49.7320   29.3920 C.3   320  ARG320      0.1597
     56  C         37.0330   49.0480   28.2040 C.2   320  ARG320      0.2287
     57  O         37.6970   48.3180   27.4650 O.2   320  ARG320     -0.2864
     58  CB        37.9720   51.2240   29.0750 C.3   320  ARG320      0.0334
     59  CG        38.6740   51.4760   27.7320 C.3   320  ARG320      0.0492
     60  CD        39.4200   52.8140   27.7030 C.3   320  ARG320      0.2205
     61  NE        38.7540   53.8560   26.9250 N.pl3 320  ARG320     -0.0865
     62  CZ        39.3360   54.5840   25.9670 C.cat 320  ARG320      0.5346
     63  NH1       38.6390   55.5230   25.3280 N.pl3 320  ARG320      0.1354
     64  NH2       40.6180   54.3980   25.6620 N.pl3 320  ARG320      0.1354
     65  N         55.5690   42.3150   37.3680 N.3   509  TYR509     -0.1241
     66  CA        54.5140   43.3240   37.3290 C.3   509  TYR509      0.1605
     67  C         53.2170   42.6810   37.7790 C.2   509  TYR509      0.2264
     68  O         52.7940   42.8730   38.9230 O.2   509  TYR509     -0.2867
     69  CB        54.3760   43.9820   35.9590 C.3   509  TYR509      0.0534
     70  CG        53.4430   45.1570   36.0120 C.ar  509  TYR509     -0.0201
     71  CD1       53.8530   46.3760   36.5760 C.ar  509  TYR509     -0.0009
     72  CD2       52.1340   45.0470   35.5350 C.ar  509  TYR509     -0.0009
     73  CE1       52.9840   47.4520   36.6470 C.ar  509  TYR509      0.0417
     74  CE2       51.2600   46.1080   35.6040 C.ar  509  TYR509      0.0417
     75  CZ        51.6780   47.3030   36.1550 C.ar  509  TYR509      0.1957
     76  OH        50.7910   48.3430   36.2090 O.3   509  TYR509     -0.2866
     77  N         45.6080   38.5740   27.2520 N.3   547  TYR547     -0.1241
     78  CA        45.8030   38.1060   25.8700 C.3   547  TYR547      0.1605
     79  C         45.7650   36.5710   25.7160 C.2   547  TYR547      0.2264
     80  O         46.1740   36.0120   24.6770 O.2   547  TYR547     -0.2867
     81  CB        47.0710   38.7400   25.2450 C.3   547  TYR547      0.0534
     82  CG        47.2240   40.2110   25.5720 C.ar  547  TYR547     -0.0201
     83  CD1       46.3960   41.1630   24.9800 C.ar  547  TYR547     -0.0009
     84  CD2       48.1790   40.6500   26.4950 C.ar  547  TYR547     -0.0009
     85  CE1       46.5110   42.5130   25.2730 C.ar  547  TYR547      0.0417
     86  CE2       48.3130   42.0330   26.8070 C.ar  547  TYR547      0.0417
     87  CZ        47.4660   42.9470   26.1880 C.ar  547  TYR547      0.1957
     88  OH        47.5540   44.2960   26.4700 O.3   547  TYR547     -0.2866
     89  N         55.4030   49.9280   40.6790 N.3   592  SER592     -0.1202
     90  CA        53.9480   50.0830   40.9370 C.3   592  SER592      0.2020
     91  C         53.1880   48.8370   41.3630 C.2   592  SER592      0.2618
     92  O         53.3210   48.4060   42.5230 O.2   592  SER592     -0.2717
     93  CB        53.1840   50.8700   39.8470 C.3   592  SER592      0.2103
     94  OG        53.5250   50.5040   38.5330 O.3   592  SER592     -0.2182
     95  N         52.3850   48.2650   40.4610 N.am  593  TYR593     -0.1975
     96  CA        51.7330   46.9860   40.7600 C.3   593  TYR593      0.1639
     97  C         52.7850   45.9120   41.0880 C.2   593  TYR593      0.2290
     98  O         52.5700   45.0570   41.9450 O.2   593  TYR593     -0.2864
     99  CB        50.8130   46.5130   39.6120 C.3   593  TYR593      0.0560
    100  CG        49.7670   45.5020   40.0610 C.ar  593  TYR593     -0.0198
    101  CD1       50.1090   44.1860   40.3290 C.ar  593  TYR593     -0.0009
    102  CD2       48.4290   45.8780   40.2330 C.ar  593  TYR593     -0.0009
    103  CE1       49.1480   43.2590   40.7560 C.ar  593  TYR593      0.0417
    104  CE2       47.4580   44.9630   40.6530 C.ar  593  TYR593      0.0417
    105  CZ        47.8230   43.6570   40.9170 C.ar  593  TYR593      0.1957
    106  OH        46.8740   42.7380   41.3310 O.3   593  TYR593     -0.2866
    107  N         51.7410   49.7840   45.6090 N.3   618  VAL618     -0.1245
    108  CA        50.4620   49.8910   46.2950 C.3   618  VAL618      0.1561
    109  C         50.6240   49.0100   47.5320 C.2   618  VAL618      0.2260
    110  O         51.3120   47.9900   47.4790 O.2   618  VAL618     -0.2867
    111  CB        49.2740   49.4190   45.4030 C.3   618  VAL618      0.0252
    112  CG1       48.0230   49.1860   46.2120 C.3   618  VAL618      0.0019
    113  CG2       48.9770   50.4340   44.2980 C.3   618  VAL618      0.0019
    114  N         44.4490   48.6710   48.9110 N.3   621  TRP621     -0.1241
    115  CA        43.6240   49.0900   47.7880 C.3   621  TRP621      0.1605
    116  C         42.7150   50.2850   48.0320 C.2   621  TRP621      0.2264
    117  O         42.3670   50.9940   47.0900 O.2   621  TRP621     -0.2867
    118  CB        42.8850   47.8890   47.1940 C.3   621  TRP621      0.0550
    119  CG        43.8750   47.0350   46.4800 C.ar  621  TRP621      0.0003
    120  CD1       44.3220   45.7920   46.8480 C.ar  621  TRP621      0.0946
    121  CD2       44.6320   47.4110   45.3230 C.ar  621  TRP621      0.0152
    122  NE1       45.2790   45.3550   45.9590 N.ar  621  TRP621     -0.2442
    123  CE2       45.4850   46.3330   45.0140 C.ar  621  TRP621      0.0810
    124  CE3       44.6470   48.5470   44.5000 C.ar  621  TRP621      0.0012
    125  CZ2       46.3410   46.3550   43.9180 C.ar  621  TRP621      0.0191
    126  CZ3       45.4940   48.5690   43.4180 C.ar  621  TRP621      0.0001
    127  CH2       46.3360   47.4790   43.1360 C.ar  621  TRP621      0.0015
    128  N         44.3290   53.5010   46.5530 N.3   624  TYR624     -0.1241
    129  CA        44.4330   53.7520   45.1110 C.3   624  TYR624      0.1605
    130  C         43.1100   54.3020   44.5450 C.2   624  TYR624      0.2264
    131  O         42.1100   54.3150   45.2540 O.2   624  TYR624     -0.2867
    132  CB        44.9490   52.5180   44.3460 C.3   624  TYR624      0.0534
    133  CG        45.4940   52.8960   42.9780 C.ar  624  TYR624     -0.0201
    134  CD1       46.4860   53.8720   42.8590 C.ar  624  TYR624     -0.0009
    135  CD2       44.9890   52.3270   41.8070 C.ar  624  TYR624     -0.0009
    136  CE1       46.9660   54.2570   41.6370 C.ar  624  TYR624      0.0417
    137  CE2       45.4830   52.7090   40.5540 C.ar  624  TYR624      0.0417
    138  CZ        46.4710   53.6800   40.4870 C.ar  624  TYR624      0.1957
    139  OH        46.9830   54.0890   39.2690 O.3   624  TYR624     -0.2866
    140  N         40.2470   52.4570   38.6920 N.3   628  TYR628     -0.1241
    141  CA        41.0570   51.2800   38.4860 C.3   628  TYR628      0.1605
    142  C         40.7010   50.2220   39.5430 C.2   628  TYR628      0.2264
    143  O         40.4460   49.0690   39.2020 O.2   628  TYR628     -0.2867
    144  CB        42.5420   51.6480   38.5760 C.3   628  TYR628      0.0534
    145  CG        43.5120   50.4720   38.4930 C.ar  628  TYR628     -0.0201
    146  CD1       43.7800   49.6720   39.6110 C.ar  628  TYR628     -0.0009
    147  CD2       44.1720   50.1840   37.3050 C.ar  628  TYR628     -0.0009
    148  CE1       44.6730   48.6060   39.5390 C.ar  628  TYR628      0.0417
    149  CE2       45.0600   49.1340   37.2180 C.ar  628  TYR628      0.0417
    150  CZ        45.3140   48.3460   38.3290 C.ar  628  TYR628      0.1957
    151  OH        46.2150   47.2990   38.2130 O.3   628  TYR628     -0.2866
    152  N         37.1660   48.4760   39.5130 N.3   631  ARG631     -0.1245
    153  CA        37.1110   47.5760   38.3500 C.3   631  ARG631      0.1563
    154  C         37.4300   46.1300   38.7160 C.2   631  ARG631      0.2260
    155  O         36.7930   45.2150   38.2100 O.2   631  ARG631     -0.2867
    156  CB        38.0580   48.0440   37.2450 C.3   631  ARG631      0.0307
    157  CG        38.0250   47.1730   36.0100 C.3   631  ARG631      0.0489
    158  CD        38.2720   47.9850   34.7630 C.3   631  ARG631      0.2205
    159  NE        39.6630   48.3750   34.6610 N.pl3 631  ARG631     -0.0865
    160  CZ        40.1030   49.6250   34.5680 C.cat 631  ARG631      0.5346
    161  NH1       39.2550   50.6470   34.5380 N.pl3 631  ARG631      0.1354
    162  NH2       41.4120   49.8400   34.4850 N.pl3 631  ARG631      0.1354
    163  N         50.1320   59.5980   41.7030 N.3   672  ASN672     -0.1225
    164  CA        49.4790   58.3740   41.2340 C.3   672  ASN672      0.1785
    165  C         49.3550   57.3560   42.3710 C.2   672  ASN672      0.2597
    166  O         48.2870   57.2230   42.9770 O.2   672  ASN672     -0.2718
    167  CB        50.2870   57.7940   40.0600 C.3   672  ASN672      0.1169
    168  CG        49.5870   56.6470   39.3630 C.2   672  ASN672      0.2627
    169  OD1       48.5730   56.1310   39.8420 O.2   672  ASN672     -0.2716
    170  ND2       50.1200   56.2440   38.2180 N.am  672  ASN672     -0.0877
    171  N         50.4440   56.6350   42.6580 N.am  673  VAL673     -0.1980
    172  CA        50.5000   55.7950   43.8490 C.3   673  VAL673      0.1595
    173  C         51.1120   56.6710   44.9150 C.2   673  VAL673      0.2287
    174  O         52.3040   56.9730   44.8690 O.2   673  VAL673     -0.2864
    175  CB        51.3250   54.4880   43.6410 C.3   673  VAL673      0.0276
    176  CG1       51.3470   53.6640   44.9120 C.3   673  VAL673      0.0022
    177  CG2       50.7370   53.6430   42.5150 C.3   673  VAL673      0.0022
    178  N         55.6620   59.0590   39.9610 N.3   702  HIS702     -0.1241
    179  CA        55.5610   57.6000   39.8090 C.3   702  HIS702      0.1621
    180  C         56.6450   57.0110   38.9080 C.2   702  HIS702      0.2264
    181  O         57.0720   55.8800   39.1170 O.2   702  HIS702     -0.2867
    182  CB        54.1650   57.1830   39.3250 C.3   702  HIS702      0.0745
    183  CG        53.8480   55.7430   39.5670 C.ar  702  HIS702      0.0817
    184  ND1       53.9320   55.1620   40.8150 N.ar  702  HIS702     -0.2268
    185  CD2       53.4400   54.7630   38.7240 C.ar  702  HIS702      0.1154
    186  CE1       53.5900   53.8870   40.7330 C.ar  702  HIS702      0.1986
    187  NE2       53.2870   53.6190   39.4750 N.ar  702  HIS702     -0.2212
@<TRIPOS>BOND
     1    80    79    2
     2    83    85   ar
     3    83    82   ar
     4    81    82    1
     5    81    78    1
     6    85    87   ar
     7    63    62    1
     8    82    84   ar
     9    64    62    1
    10    79    78    1
    11    78    77    1
    12    62    61    2
    13    87    88    1
    14    87    86   ar
    15    84    86   ar
    16    61    60    1
    17    40    39    2
    18    57    56    2
    19    60    59    1
    20    59    58    1
    21    39    38    1
    22    41    38    1
    23    41    42    1
    24    56    55    1
    25    38    37    1
    26    33    32    2
    27    58    55    1
    28    55    54    1
    29    54    45   am
    30    43    44    1
    31    50    52   ar
    32    50    48   ar
    33    32    31    1
    34    52    53   ar
    35     4     3    2
    36    47    44    1
    37    47    48    1
    38    35    34    1
    39    45    44    1
    40    45    46    2
    41    48    49   ar
    42    31    34    1
    43    31    30    1
    44     3     2    1
    45    53    51   ar
    46    34    36    1
    47     7     6    1
    48     7     8    1
    49     6     5    1
    50    49    51   ar
    51    30    23   am
    52    24    23    2
    53     2     5    1
    54     2     1    1
    55    23    22    1
    56    15    14    2
    57    10     9    1
    58     8     9    2
    59    14    13    1
    60    14    21   am
    61    12    13    1
    62     9    11    1
    63    13    16    1
    64    22    21    1
    65    22    25    1
    66   162   160    1
    67   161   160    1
    68   160   159    2
    69   159   158    1
    70    19    18   ar
    71   158   157    1
    72    20    18   ar
    73    18    17    1
    74    25    26    1
    75    16    17    1
    76    72    74   ar
    77    72    70   ar
    78    74    75   ar
    79    28    27   ar
    80    69    70    1
    81    69    66    1
    82   157   156    1
    83    70    71   ar
    84    75    76    1
    85    75    73   ar
    86    71    73   ar
    87    26    27    1
    88    27    29   ar
    89   149   147   ar
    90   149   150   ar
    91   156   153    1
    92   147   145   ar
    93    66    65    1
    94    66    67    1
    95    67    68    2
    96   155   154    2
    97   151   150    1
    98   170   168   am
    99   150   148   ar
   100   153   154    1
   101   153   152    1
   102   141   144    1
   103   141   140    1
   104   141   142    1
   105   145   144    1
   106   145   146   ar
   107    94    93    1
   108   185   187   ar
   109   185   183   ar
   110   180   181    2
   111   180   179    1
   112   143   142    2
   113   139   138    1
   114   182   183    1
   115   182   179    1
   116   168   169    2
   117   168   167    1
   118   187   186   ar
   119   148   146   ar
   120   183   184   ar
   121    99   100    1
   122    99    96    1
   123   179   178    1
   124    93    90    1
   125   167   164    1
   126   100   102   ar
   127   100   101   ar
   128   102   104   ar
   129   101   103   ar
   130    95    96    1
   131    95    91   am
   132   138   137   ar
   133   138   136   ar
   134   137   135   ar
   135   104   105   ar
   136    89    90    1
   137   186   184   ar
   138   103   105   ar
   139    96    97    1
   140   105   106    1
   141    90    91    1
   142    97    98    2
   143   164   163    1
   144   164   165    1
   145    91    92    2
   146   136   134   ar
   147   135   133   ar
   148   165   171   am
   149   165   166    2
   150   177   175    1
   151   171   172    1
   152   134   133   ar
   153   133   132    1
   154   127   126   ar
   155   127   125   ar
   156   126   124   ar
   157   175   172    1
   158   175   176    1
   159   172   173    1
   160   125   123   ar
   161   113   111    1
   162   132   129    1
   163   124   121   ar
   164   130   129    1
   165   130   131    2
   166   174   173    2
   167   123   121   ar
   168   123   122   ar
   169   129   128    1
   170   121   119   ar
   171   111   112    1
   172   111   108    1
   173   107   108    1
   174   122   120   ar
   175   108   109    1
   176   119   120   ar
   177   119   118    1
   178   117   116    2
   179   118   115    1
   180   110   109    2
   181   115   116    1
   182   115   114    1
