@<TRIPOS>MOLECULE
tmp/3kwjB02.pdb
 194 189 0 0 0
SMALL
GASTEIGER

@<TRIPOS>ATOM
      1  N         56.5750   69.6170   72.2790 N.3    87  ARG87      -0.1245
      2  CA        57.4860   69.2190   73.3380 C.3    87  ARG87       0.1563
      3  C         56.8260   69.3390   74.7170 C.2    87  ARG87       0.2260
      4  O         57.0310   68.4950   75.5730 O.2    87  ARG87      -0.2867
      5  CB        58.7810   70.0210   73.2530 C.3    87  ARG87       0.0307
      6  CG        59.9030   69.5700   74.1820 C.3    87  ARG87       0.0489
      7  CD        61.1990   70.4160   74.0830 C.3    87  ARG87       0.2205
      8  NE        61.7200   70.5190   72.7150 N.pl3  87  ARG87      -0.0865
      9  CZ        62.5860   69.6710   72.1940 C.cat  87  ARG87       0.5346
     10  NH1       63.0330   68.6610   72.9270 N.pl3  87  ARG87       0.1354
     11  NH2       63.0050   69.8230   70.9460 N.pl3  87  ARG87       0.1354
     12  N         58.6180   76.2640   71.8870 N.3   167  GLU167     -0.1231
     13  CA        59.8690   75.6240   71.5590 C.3   167  GLU167      0.1699
     14  C         61.0890   76.4080   71.9590 C.2   167  GLU167      0.2592
     15  O         61.9980   75.8560   72.5670 O.2   167  GLU167     -0.2718
     16  CB        59.9350   75.3340   70.0540 C.3   167  GLU167      0.0402
     17  CG        61.1090   74.4730   69.5790 C.3   167  GLU167      0.1161
     18  CD        61.3800   73.2320   70.4150 C.2   167  GLU167      0.3649
     19  OE1       60.5040   72.7450   71.1730 O.co2 167  GLU167     -0.2457
     20  OE2       62.5050   72.7330   70.3070 O.co2 167  GLU167     -0.2457
     21  N         61.1100   77.6900   71.6160 N.am  168  GLU168     -0.1966
     22  CA        62.3470   78.4490   71.6280 C.3   168  GLU168      0.1733
     23  C         62.4900   79.5220   72.7000 C.2   168  GLU168      0.2616
     24  O         63.5770   80.0880   72.8430 O.2   168  GLU168     -0.2715
     25  CB        62.6130   79.0510   70.2490 C.3   168  GLU168      0.0429
     26  CG        62.5580   78.0700   69.0830 C.3   168  GLU168      0.1163
     27  CD        63.6180   76.9870   69.1470 C.2   168  GLU168      0.3649
     28  OE1       64.2950   76.8700   70.1840 O.co2 168  GLU168     -0.2457
     29  OE2       63.7760   76.2450   68.1530 O.co2 168  GLU168     -0.2457
     30  N         61.4270   79.8020   73.4530 N.am  169  VAL169     -0.1977
     31  CA        61.4490   80.9320   74.3910 C.3   169  VAL169      0.1596
     32  C         61.0990   80.5210   75.8120 C.2   169  VAL169      0.2287
     33  O         61.9330   80.6440   76.7030 O.2   169  VAL169     -0.2864
     34  CB        60.4950   82.0590   73.9750 C.3   169  VAL169      0.0276
     35  CG1       60.6430   83.2260   74.9140 C.3   169  VAL169      0.0022
     36  CG2       60.7470   82.4810   72.5400 C.3   169  VAL169      0.0022
     37  N         60.0440   77.2720   76.8050 N.3   171  SER171     -0.1217
     38  CA        60.0740   75.8010   77.0150 C.3   171  SER171      0.1889
     39  C         58.8840   75.3160   77.8640 C.2   171  SER171      0.2288
     40  O         59.0470   74.5840   78.8470 O.2   171  SER171     -0.2866
     41  CB        61.4020   75.3080   77.6250 C.3   171  SER171      0.2089
     42  OG        62.5580   75.8180   76.9620 O.3   171  SER171     -0.2183
     43  N         70.4420   80.8360   76.0380 N.3   319  PHE319     -0.1227
     44  CA        69.4250   80.5790   75.0390 C.3   319  PHE319      0.1736
     45  C         68.4500   81.7300   75.0280 C.2   319  PHE319      0.2595
     46  O         67.8090   82.0050   74.0160 O.2   319  PHE319     -0.2718
     47  CB        68.7190   79.2660   75.3540 C.3   319  PHE319      0.0547
     48  CG        69.5340   78.0590   74.9890 C.ar  319  PHE319     -0.0202
     49  CD1       69.4500   77.5050   73.7110 C.ar  319  PHE319     -0.0042
     50  CD2       70.4110   77.4970   75.9070 C.ar  319  PHE319     -0.0042
     51  CE1       70.2120   76.4020   73.3710 C.ar  319  PHE319     -0.0003
     52  CE2       71.1790   76.3860   75.5730 C.ar  319  PHE319     -0.0003
     53  CZ        71.0800   75.8350   74.3070 C.ar  319  PHE319     -0.0000
     54  N         68.3540   82.4050   76.1680 N.am  320  ARG320     -0.1980
     55  CA        67.5720   83.6260   76.3160 C.3   320  ARG320      0.1597
     56  C         68.1300   84.3950   77.5300 C.2   320  ARG320      0.2287
     57  O         68.8470   83.7910   78.3400 O.2   320  ARG320     -0.2864
     58  CB        66.1050   83.2630   76.5410 C.3   320  ARG320      0.0334
     59  CG        65.9240   82.3400   77.7100 C.3   320  ARG320      0.0492
     60  CD        64.5310   82.2860   78.2310 C.3   320  ARG320      0.2205
     61  NE        64.1470   80.9100   78.5360 N.pl3 320  ARG320     -0.0865
     62  CZ        63.1190   80.5760   79.3120 C.cat 320  ARG320      0.5346
     63  NH1       62.3560   81.5190   79.8770 N.pl3 320  ARG320      0.1354
     64  NH2       62.8390   79.2890   79.5020 N.pl3 320  ARG320      0.1354
     65  N         76.7770   66.4230   68.9760 N.3   509  TYR509     -0.1241
     66  CA        75.6480   67.3440   68.9070 C.3   509  TYR509      0.1605
     67  C         76.2100   68.6400   68.3830 C.2   509  TYR509      0.2264
     68  O         75.8940   69.0360   67.2720 O.2   509  TYR509     -0.2867
     69  CB        74.9060   67.5220   70.2410 C.3   509  TYR509      0.0534
     70  CG        73.6700   68.4030   70.1200 C.ar  509  TYR509     -0.0201
     71  CD1       72.4770   67.9270   69.5630 C.ar  509  TYR509     -0.0009
     72  CD2       73.7020   69.7270   70.5420 C.ar  509  TYR509     -0.0009
     73  CE1       71.3500   68.7660   69.4340 C.ar  509  TYR509      0.0417
     74  CE2       72.5900   70.5690   70.4190 C.ar  509  TYR509      0.0417
     75  CZ        71.4180   70.0920   69.8680 C.ar  509  TYR509      0.1957
     76  OH        70.3370   70.9630   69.7590 O.3   509  TYR509     -0.2866
     77  N         74.9820   75.3220   69.5680 N.3   512  PRO512     -0.2116
     78  CA        75.5090   76.4410   70.3520 C.3   512  PRO512      0.1372
     79  C         75.2010   76.1920   71.7980 C.2   512  PRO512      0.2244
     80  O         74.0950   75.7680   72.0860 O.2   512  PRO512     -0.2868
     81  CB        74.7000   77.6470   69.8600 C.3   512  PRO512      0.0268
     82  CG        74.0570   77.2250   68.6010 C.3   512  PRO512      0.0207
     83  CD        73.8480   75.7320   68.7260 C.3   512  PRO512      0.0892
     84  N         79.3440   76.9000   78.5670 N.3   547  TYR547     -0.1241
     85  CA        79.7790   76.8870   79.9640 C.3   547  TYR547      0.1605
     86  C         81.2640   77.1530   80.1700 C.2   547  TYR547      0.2264
     87  O         81.7710   76.9970   81.2770 O.2   547  TYR547     -0.2867
     88  CB        79.3010   75.5970   80.6690 C.3   547  TYR547      0.0534
     89  CG        77.8890   75.2100   80.2750 C.ar  547  TYR547     -0.0201
     90  CD1       76.8000   75.9330   80.7340 C.ar  547  TYR547     -0.0009
     91  CD2       77.6430   74.1280   79.4270 C.ar  547  TYR547     -0.0009
     92  CE1       75.5010   75.6000   80.3640 C.ar  547  TYR547      0.0417
     93  CE2       76.3380   73.7850   79.0450 C.ar  547  TYR547      0.0417
     94  CZ        75.2800   74.5290   79.5180 C.ar  547  TYR547      0.1957
     95  OH        74.0050   74.2170   79.1460 O.3   547  TYR547     -0.2866
     96  N         69.4830   65.8160   65.0660 N.3   592  SER592     -0.1202
     97  CA        69.0850   67.2250   65.0770 C.3   592  SER592      0.2020
     98  C         70.2520   68.0970   64.6160 C.2   592  SER592      0.2618
     99  O         70.7460   67.9170   63.4950 O.2   592  SER592     -0.2717
    100  CB        68.6030   67.6100   66.4780 C.3   592  SER592      0.2103
    101  OG        67.8360   68.7820   66.4630 O.3   592  SER592     -0.2182
    102  N         70.7080   69.0230   65.4620 N.am  593  TYR593     -0.1975
    103  CA        71.9300   69.7580   65.1570 C.3   593  TYR593      0.1639
    104  C         73.0170   68.7250   64.8910 C.2   593  TYR593      0.2290
    105  O         73.8230   68.8620   63.9620 O.2   593  TYR593     -0.2864
    106  CB        72.3250   70.7090   66.2990 C.3   593  TYR593      0.0560
    107  CG        73.1530   71.9050   65.8430 C.ar  593  TYR593     -0.0198
    108  CD1       74.4950   71.7600   65.5340 C.ar  593  TYR593     -0.0009
    109  CD2       72.5890   73.1670   65.7170 C.ar  593  TYR593     -0.0009
    110  CE1       75.2440   72.8180   65.1120 C.ar  593  TYR593      0.0417
    111  CE2       73.3510   74.2560   65.3020 C.ar  593  TYR593      0.0417
    112  CZ        74.6710   74.0650   65.0050 C.ar  593  TYR593      0.1957
    113  OH        75.4470   75.1050   64.5920 O.3   593  TYR593     -0.2866
    114  N         69.0870   69.3170   60.4110 N.3   618  VAL618     -0.1245
    115  CA        68.8460   70.5750   59.7210 C.3   618  VAL618      0.1561
    116  C         69.7400   70.5410   58.4740 C.2   618  VAL618      0.2260
    117  O         70.8690   70.0590   58.5270 O.2   618  VAL618     -0.2867
    118  CB        69.1410   71.7830   60.6400 C.3   618  VAL618      0.0252
    119  CG1       69.3980   73.0530   59.8480 C.3   618  VAL618      0.0019
    120  CG2       67.9870   72.0030   61.5800 C.3   618  VAL618      0.0019
    121  N         69.5470   76.5680   56.9580 N.3   621  TRP621     -0.1241
    122  CA        69.0260   77.3690   58.0560 C.3   621  TRP621      0.1605
    123  C         67.7520   78.1220   57.7250 C.2   621  TRP621      0.2264
    124  O         66.9820   78.4610   58.6160 O.2   621  TRP621     -0.2867
    125  CB        70.1160   78.2570   58.6650 C.3   621  TRP621      0.0550
    126  CG        71.0930   77.4000   59.4190 C.ar  621  TRP621      0.0003
    127  CD1       72.3840   77.1340   59.0830 C.ar  621  TRP621      0.0946
    128  CD2       70.8230   76.6510   60.6020 C.ar  621  TRP621      0.0152
    129  NE1       72.9430   76.2780   59.9980 N.ar  621  TRP621     -0.2442
    130  CE2       71.9980   75.9600   60.9390 C.ar  621  TRP621      0.0810
    131  CE3       69.6930   76.4930   61.4230 C.ar  621  TRP621      0.0012
    132  CZ2       72.0780   75.1240   62.0580 C.ar  621  TRP621      0.0191
    133  CZ3       69.7730   75.6710   62.5260 C.ar  621  TRP621      0.0001
    134  CH2       70.9540   74.9980   62.8350 C.ar  621  TRP621      0.0015
    135  N         64.7510   76.1030   59.2290 N.3   624  TYR624     -0.1241
    136  CA        64.4640   76.0980   60.6640 C.3   624  TYR624      0.1605
    137  C         63.7630   77.3720   61.1500 C.2   624  TYR624      0.2264
    138  O         63.7520   78.3740   60.4510 O.2   624  TYR624     -0.2867
    139  CB        65.7320   75.8150   61.4670 C.3   624  TYR624      0.0534
    140  CG        65.4220   75.2450   62.8240 C.ar  624  TYR624     -0.0201
    141  CD1       64.5540   74.1600   62.9580 C.ar  624  TYR624     -0.0009
    142  CD2       65.9640   75.8030   63.9780 C.ar  624  TYR624     -0.0009
    143  CE1       64.2320   73.6450   64.2080 C.ar  624  TYR624      0.0417
    144  CE2       65.6610   75.2910   65.2270 C.ar  624  TYR624      0.0417
    145  CZ        64.7940   74.2130   65.3340 C.ar  624  TYR624      0.1957
    146  OH        64.4750   73.7200   66.5700 O.3   624  TYR624     -0.2866
    147  N         65.1920   80.5790   66.8140 N.3   628  TYR628     -0.1241
    148  CA        66.4230   79.8330   67.0400 C.3   628  TYR628      0.1605
    149  C         67.4880   80.3330   66.0810 C.2   628  TYR628      0.2264
    150  O         68.5090   80.8800   66.4860 O.2   628  TYR628     -0.2867
    151  CB        66.2210   78.3170   66.8640 C.3   628  TYR628      0.0534
    152  CG        67.4670   77.4790   67.1690 C.ar  628  TYR628     -0.0201
    153  CD1       68.4550   77.2800   66.2080 C.ar  628  TYR628     -0.0009
    154  CD2       67.6500   76.8960   68.4230 C.ar  628  TYR628     -0.0009
    155  CE1       69.5950   76.5240   66.4830 C.ar  628  TYR628      0.0417
    156  CE2       68.7920   76.1360   68.7090 C.ar  628  TYR628      0.0417
    157  CZ        69.7510   75.9580   67.7330 C.ar  628  TYR628      0.1957
    158  OH        70.8730   75.2120   68.0240 O.3   628  TYR628     -0.2866
    159  N         68.8630   83.8360   66.2200 N.3   631  ARG631     -0.1245
    160  CA        69.6400   84.1210   67.4140 C.3   631  ARG631      0.1563
    161  C         71.1380   83.9900   67.1550 C.2   631  ARG631      0.2260
    162  O         71.9560   84.7090   67.7510 O.2   631  ARG631     -0.2867
    163  CB        69.2260   83.2160   68.5520 C.3   631  ARG631      0.0307
    164  CG        69.8930   83.5340   69.8520 C.3   631  ARG631      0.0489
    165  CD        69.0830   83.1030   71.0150 C.3   631  ARG631      0.2205
    166  NE        68.8640   81.6720   70.9380 N.pl3 631  ARG631     -0.0865
    167  CZ        67.6960   81.0700   71.0860 C.cat 631  ARG631      0.5346
    168  NH1       66.5870   81.7440   71.3380 N.pl3 631  ARG631      0.1354
    169  NH2       67.6470   79.7590   70.9970 N.pl3 631  ARG631      0.1354
    170  N         59.1480   69.8630   64.1920 N.3   672  ASN672     -0.1225
    171  CA        60.2650   70.6820   64.6460 C.3   672  ASN672      0.1785
    172  C         61.2680   70.9660   63.5330 C.2   672  ASN672      0.2597
    173  O         61.3820   72.0940   63.0680 O.2   672  ASN672     -0.2718
    174  CB        60.9410   70.0360   65.8560 C.3   672  ASN672      0.1169
    175  CG        61.7690   71.0160   66.6600 C.2   672  ASN672      0.2627
    176  OD1       62.3730   71.9490   66.1160 O.2   672  ASN672     -0.2716
    177  ND2       61.8240   70.7950   67.9680 N.am  672  ASN672     -0.0877
    178  N         62.0120   69.9440   63.1340 N.am  673  VAL673     -0.1980
    179  CA        62.8720   70.0340   61.9830 C.3   673  VAL673      0.1595
    180  C         62.1380   69.2520   60.9120 C.2   673  VAL673      0.2287
    181  O         62.1330   68.0180   60.9100 O.2   673  VAL673     -0.2864
    182  CB        64.2140   69.4120   62.2790 C.3   673  VAL673      0.0276
    183  CG1       65.0820   69.4000   61.0330 C.3   673  VAL673      0.0022
    184  CG2       64.8840   70.1680   63.3750 C.3   673  VAL673      0.0022
    185  N         60.1610   64.4910   65.9530 N.3   702  HIS702     -0.1241
    186  CA        61.5770   64.7600   66.1140 C.3   702  HIS702      0.1621
    187  C         62.2520   63.7790   67.0500 C.2   702  HIS702      0.2264
    188  O         63.4460   63.5490   66.9420 O.2   702  HIS702     -0.2867
    189  CB        61.7690   66.1750   66.6420 C.3   702  HIS702      0.0745
    190  CG        63.1570   66.6970   66.4880 C.ar  702  HIS702      0.0817
    191  ND1       63.7400   66.9180   65.2580 N.ar  702  HIS702     -0.2268
    192  CD2       64.0740   67.0540   67.4100 C.ar  702  HIS702      0.1154
    193  CE1       64.9640   67.3830   65.4280 C.ar  702  HIS702      0.1986
    194  NE2       65.1910   67.4770   66.7260 N.ar  702  HIS702     -0.2212
@<TRIPOS>BOND
     1   121   122    1
     2   123   122    1
     3   123   124    2
     4   122   125    1
     5   116   117    2
     6   116   115    1
     7   125   126    1
     8   127   126   ar
     9   127   129   ar
    10   135   136    1
    11   126   128   ar
    12   115   114    1
    13   115   118    1
    14   119   118    1
    15   129   130   ar
    16   138   137    2
    17   128   130   ar
    18   128   131   ar
    19   118   120    1
    20   136   137    1
    21   136   139    1
    22   181   180    2
    23   180   179    1
    24   130   132   ar
    25   183   182    1
    26   131   133   ar
    27   139   140    1
    28   179   182    1
    29   179   178    1
    30   132   134   ar
    31   182   184    1
    32   133   134   ar
    33   140   141   ar
    34   140   142   ar
    35   141   143   ar
    36   173   172    2
    37   178   172   am
    38    99    98    2
    39   172   171    1
    40   105   104    2
    41   142   144   ar
    42   170   171    1
    43   143   145   ar
    44   113   112    1
    45    98    97    1
    46    98   102   am
    47   171   174    1
    48   104   103    1
    49   112   110   ar
    50   112   111   ar
    51    96    97    1
    52    97   100    1
    53   110   108   ar
    54   103   102    1
    55   103   106    1
    56   144   145   ar
    57   191   193   ar
    58   191   190   ar
    59   111   109   ar
    60   145   146    1
    61   193   194   ar
    62   108   107   ar
    63   109   107   ar
    64   107   106    1
    65   174   175    1
    66   185   186    1
    67   149   150    2
    68   149   148    1
    69   186   189    1
    70   186   187    1
    71   176   175    2
    72   153   155   ar
    73   153   152   ar
    74   159   160    1
    75   101   100    1
    76   155   157   ar
    77   190   189    1
    78   190   192   ar
    79   175   177   am
    80   194   192   ar
    81   147   148    1
    82   151   148    1
    83   151   152    1
    84   188   187    2
    85   161   160    1
    86   161   162    2
    87   152   154   ar
    88    68    67    2
    89   160   163    1
    90   157   158    1
    91   157   156   ar
    92    29    27   ar
    93    67    66    1
    94   154   156   ar
    95   163   164    1
    96    82    83    1
    97    82    81    1
    98    83    77    1
    99    66    65    1
   100    66    69    1
   101    26    27    1
   102    26    25    1
   103    27    28   ar
   104    73    71   ar
   105    73    75   ar
   106    71    70   ar
   107    77    78    1
   108    17    16    1
   109    17    18    1
   110    76    75    1
   111   164   165    1
   112    81    78    1
   113    75    74   ar
   114    16    13    1
   115    70    69    1
   116    70    72   ar
   117    25    22    1
   118    20    18   ar
   119    78    79    1
   120    18    19   ar
   121    74    72   ar
   122   166   165    1
   123   166   167    2
   124    11     9    1
   125   169   167    1
   126   167   168    1
   127    13    12    1
   128    13    14    1
   129    21    22    1
   130    21    14   am
   131    22    23    1
   132    79    80    2
   133    14    15    2
   134     9     8    2
   135     9    10    1
   136     1     2    1
   137    36    34    1
   138    23    24    2
   139    23    30   am
   140     8     7    1
   141     5     2    1
   142     5     6    1
   143     2     3    1
   144    51    49   ar
   145    51    53   ar
   146    30    31    1
   147    49    48   ar
   148    34    31    1
   149    34    35    1
   150    46    45    2
   151     7     6    1
   152    53    52   ar
   153    31    32    1
   154     3     4    2
   155    48    47    1
   156    48    50   ar
   157    45    44    1
   158    45    54   am
   159    44    47    1
   160    44    43    1
   161    52    50   ar
   162    32    33    2
   163    54    55    1
   164    55    58    1
   165    55    56    1
   166    58    59    1
   167    37    38    1
   168    42    41    1
   169    38    41    1
   170    38    39    1
   171    56    57    2
   172    59    60    1
   173    39    40    2
   174    60    61    1
   175    61    62    2
   176    84    85    1
   177    93    91   ar
   178    93    94   ar
   179    95    94    1
   180    62    64    1
   181    62    63    1
   182    91    89   ar
   183    94    92   ar
   184    85    86    1
   185    85    88    1
   186    86    87    2
   187    89    88    1
   188    89    90   ar
   189    92    90   ar
