@<TRIPOS>MOLECULE
tmp/3kwkA00.pdb
 123 119 0 0 0
SMALL
GASTEIGER

@<TRIPOS>ATOM
      1  N         13.1100    0.1150   93.2780 N.3    12  ARG12      -0.1231
      2  CA        13.8970    0.7950   92.2780 C.3    12  ARG12       0.1694
      3  C         15.4050    0.5850   92.5230 C.2    12  ARG12       0.2592
      4  O         15.8860    0.6370   93.6660 O.2    12  ARG12      -0.2718
      5  CB        13.5890    2.3030   92.2760 C.3    12  ARG12       0.0321
      6  CG        14.3380    3.1470   91.2810 C.3    12  ARG12       0.0489
      7  CD        14.7290    4.5560   91.7610 C.3    12  ARG12       0.2205
      8  NE        15.5310    4.4590   92.9900 N.pl3  12  ARG12      -0.0865
      9  CZ        16.8230    4.1120   93.0360 C.cat  12  ARG12       0.5346
     10  NH1       17.5450    3.9710   91.9200 N.pl3  12  ARG12       0.1354
     11  NH2       17.4030    3.9550   94.2190 N.pl3  12  ARG12       0.1354
     12  N         16.1260    0.3410   91.4450 N.am   13  LYS13      -0.1966
     13  CA        17.5910    0.3110   91.4940 C.3    13  LYS13       0.1728
     14  C         18.1780    0.7910   90.2000 C.2    13  LYS13       0.2616
     15  O         17.4590    0.8640   89.1880 O.2    13  LYS13      -0.2715
     16  CB        18.1300   -1.0820   91.8640 C.3    13  LYS13       0.0311
     17  CG        18.2600   -2.1190   90.7350 C.3    13  LYS13       0.0038
     18  CD        16.9280   -2.4920   90.1320 C.3    13  LYS13       0.0206
     19  CE        16.0650   -3.4220   90.9790 C.3    13  LYS13       0.1093
     20  NZ        14.6460   -3.6040   90.4610 N.3    13  LYS13      -0.1314
     21  N         19.4660    1.1290   90.2360 N.am   14  SER14      -0.1950
     22  CA        20.1720    1.5790   89.0410 C.3    14  SER14       0.1924
     23  C         20.4480    0.3500   88.1650 C.2    14  SER14       0.2314
     24  O         21.0340   -0.6540   88.6300 O.2    14  SER14      -0.2863
     25  CB        21.4690    2.2650   89.3970 C.3    14  SER14       0.2116
     26  OG        21.2370    3.5750   89.9710 O.3    14  SER14      -0.2180
     27  N         22.2880   -0.8030   84.5930 N.3    16  ARG16      -0.1245
     28  CA        23.3080   -0.3470   83.6820 C.3    16  ARG16       0.1563
     29  C         23.6350   -1.2780   82.5240 C.2    16  ARG16       0.2260
     30  O         24.5930   -1.0490   81.7580 O.2    16  ARG16      -0.2867
     31  CB        24.6080   -0.1060   84.4630 C.3    16  ARG16       0.0307
     32  CG        24.4350    0.8550   85.6370 C.3    16  ARG16       0.0489
     33  CD        25.7620    1.1940   86.2920 C.3    16  ARG16       0.2205
     34  NE        25.6130    2.2680   87.2710 N.pl3  16  ARG16      -0.0865
     35  CZ        25.2180    2.1000   88.5330 C.cat  16  ARG16       0.5346
     36  NH1       24.9210    0.9170   89.0640 N.pl3  16  ARG16       0.1354
     37  NH2       25.0930    3.1500   89.2990 N.pl3  16  ARG16       0.1354
     38  N         31.0810    8.0330   82.9350 N.3    64  TYR64      -0.1241
     39  CA        30.3000    7.0230   83.6510 C.3    64  TYR64       0.1605
     40  C         28.9140    6.8510   83.0080 C.2    64  TYR64       0.2264
     41  O         27.9250    6.5630   83.6950 O.2    64  TYR64      -0.2867
     42  CB        30.1990    7.3430   85.1430 C.3    64  TYR64       0.0534
     43  CG        31.5580    7.5250   85.7660 C.ar   64  TYR64      -0.0201
     44  CD1       32.3390    6.4360   86.0770 C.ar   64  TYR64      -0.0009
     45  CD2       32.0760    8.7990   85.9820 C.ar   64  TYR64      -0.0009
     46  CE1       33.6180    6.6040   86.6030 C.ar   64  TYR64       0.0417
     47  CE2       33.3400    8.9760   86.5060 C.ar   64  TYR64       0.0417
     48  CZ        34.1060    7.8820   86.8160 C.ar   64  TYR64       0.1957
     49  OH        35.3750    8.0320   87.3280 O.3    64  TYR64      -0.2866
     50  N         19.1710    4.3360   84.8110 N.3   108  VAL108     -0.1231
     51  CA        20.1820    4.8380   85.7570 C.3   108  VAL108      0.1692
     52  C         20.3890    6.3460   85.5090 C.2   108  VAL108      0.2592
     53  O         20.4960    6.7890   84.3570 O.2   108  VAL108     -0.2718
     54  CB        21.5220    4.0600   85.5890 C.3   108  VAL108      0.0266
     55  CG1       22.0820    4.0970   84.1200 C.3   108  VAL108      0.0020
     56  CG2       22.5940    4.5330   86.6010 C.3   108  VAL108      0.0020
     57  N         20.4640    7.0760   86.6130 N.am  109  TRP109     -0.1962
     58  CA        20.8530    8.4860   86.5880 C.3   109  TRP109      0.1771
     59  C         22.3420    8.5640   86.3750 C.2   109  TRP109      0.2620
     60  O         23.1080    8.0670   87.1970 O.2   109  TRP109     -0.2715
     61  CB        20.4560    9.0760   87.9410 C.3   109  TRP109      0.0590
     62  CG        20.8050   10.5290   88.2320 C.ar  109  TRP109      0.0006
     63  CD1       21.9140   11.2250   87.8760 C.ar  109  TRP109      0.0946
     64  CD2       20.0240   11.3850   89.0490 C.ar  109  TRP109      0.0152
     65  NE1       21.8320   12.5190   88.3840 N.ar  109  TRP109     -0.2442
     66  CE2       20.6750   12.6420   89.0920 C.ar  109  TRP109      0.0810
     67  CE3       18.8060   11.2140   89.7130 C.ar  109  TRP109      0.0012
     68  CZ2       20.2030   13.7010   89.8510 C.ar  109  TRP109      0.0191
     69  CZ3       18.3190   12.2700   90.4620 C.ar  109  TRP109      0.0001
     70  CH2       19.0060   13.5070   90.4890 C.ar  109  TRP109      0.0015
     71  N         22.7760    9.1540   85.2750 N.am  110  THR110     -0.1937
     72  CA        24.1900    9.4640   85.0710 C.3   110  THR110      0.2028
     73  C         24.3750   10.9840   85.0690 C.2   110  THR110      0.2642
     74  O         23.6870   11.6920   84.3370 O.2   110  THR110     -0.2714
     75  CB        24.7940    8.7600   83.8340 C.3   110  THR110      0.1808
     76  OG1       24.4500    9.4500   82.6230 O.3   110  THR110     -0.2208
     77  CG2       24.3290    7.2530   83.7220 C.3   110  THR110      0.0379
     78  N         25.2920   11.4630   85.9120 N.am  111  ALA111     -0.1977
     79  CA        25.4260   12.9110   86.0910 C.3   111  ALA111      0.1597
     80  C         25.9530   13.5730   84.8560 C.2   111  ALA111      0.2287
     81  O         26.9210   13.1080   84.2640 O.2   111  ALA111     -0.2864
     82  CB        26.4030   13.2200   87.2660 C.3   111  ALA111      0.0319
     83  N         25.5070   17.7370   84.9050 N.3   113  TYR113     -0.1241
     84  CA        25.6780   18.5700   86.1170 C.3   113  TYR113      0.1605
     85  C         26.0860   17.6700   87.3040 C.2   113  TYR113      0.2264
     86  O         25.5080   16.5940   87.4870 O.2   113  TYR113     -0.2867
     87  CB        24.3860   19.3190   86.4080 C.3   113  TYR113      0.0534
     88  CG        24.4600   20.2130   87.6410 C.ar  113  TYR113     -0.0201
     89  CD1       24.2320   19.6820   88.8950 C.ar  113  TYR113     -0.0009
     90  CD2       24.8610   21.5450   87.5520 C.ar  113  TYR113     -0.0009
     91  CE1       24.4150   20.4440   90.0370 C.ar  113  TYR113      0.0417
     92  CE2       24.9920   22.3220   88.6510 C.ar  113  TYR113      0.0417
     93  CZ        24.7750   21.7890   89.9050 C.ar  113  TYR113      0.1957
     94  OH        24.9260   22.5350   91.0560 O.3   113  TYR113     -0.2866
     95  N         30.9770   17.5250   81.0800 N.3   118  ARG118     -0.1245
     96  CA        29.8850   16.6130   80.7170 C.3   118  ARG118      0.1563
     97  C         28.7150   17.3940   80.1760 C.2   118  ARG118      0.2260
     98  O         28.0680   17.0050   79.2280 O.2   118  ARG118     -0.2867
     99  CB        29.4390   15.8030   81.9370 C.3   118  ARG118      0.0307
    100  CG        30.5230   14.9100   82.5120 C.3   118  ARG118      0.0489
    101  CD        29.9490   13.9610   83.5380 C.3   118  ARG118      0.2205
    102  NE        30.9800   13.4510   84.4530 N.pl3 118  ARG118     -0.0865
    103  CZ        30.7180   12.6370   85.4810 C.cat 118  ARG118      0.5346
    104  NH1       29.4720   12.2210   85.7010 N.pl3 118  ARG118      0.1354
    105  NH2       31.6970   12.2520   86.2990 N.pl3 118  ARG118      0.1354
    106  N         19.0020   -2.1890   96.4650 N.3   149  LYS149     -0.1245
    107  CA        19.8060   -1.8890   97.6500 C.3   149  LYS149      0.1561
    108  C         18.8810   -1.6240   98.8200 C.2   149  LYS149      0.2260
    109  O         17.8250   -0.9840   98.6700 O.2   149  LYS149     -0.2867
    110  CB        20.7130   -0.6950   97.3970 C.3   149  LYS149      0.0271
    111  CG        21.7830   -1.0230   96.3350 C.3   149  LYS149      0.0035
    112  CD        22.5940    0.1430   95.8860 C.3   149  LYS149      0.0206
    113  CE        23.5470   -0.2450   94.6970 C.3   149  LYS149      0.1093
    114  NZ        22.7580   -0.5760   93.3800 N.3   149  LYS149     -0.1314
    115  N         18.9250    0.4180  101.9100 N.3   151  LYS151     -0.1245
    116  CA        19.7150    1.5020  102.4450 C.3   151  LYS151      0.1561
    117  C         19.2410    1.9910  103.7960 C.2   151  LYS151      0.2260
    118  O         19.8320    2.8960  104.3690 O.2   151  LYS151     -0.2867
    119  CB        19.7040    2.6830  101.4950 C.3   151  LYS151      0.0271
    120  CG        20.0630    2.3920  100.0300 C.3   151  LYS151      0.0035
    121  CD        20.2500    3.7330   99.3010 C.3   151  LYS151      0.0206
    122  CE        20.6080    3.5730   97.8560 C.3   151  LYS151      0.1093
    123  NZ        19.3960    3.5030   97.0260 N.3   151  LYS151     -0.1314
@<TRIPOS>BOND
     1    98    97    2
     2    97    96    1
     3    96    95    1
     4    96    99    1
     5    30    29    2
     6    99   100    1
     7   100   101    1
     8    29    28    1
     9    76    75    1
    10    38    39    1
    11    40    39    1
    12    40    41    2
    13   101   102    1
    14    39    42    1
    15    28    31    1
    16    28    27    1
    17    77    75    1
    18    75    72    1
    19    55    54    1
    20    81    80    2
    21    74    73    2
    22    53    52    2
    23   102   103    2
    24    31    32    1
    25    50    51    1
    26    80    79    1
    27    83    84    1
    28    73    72    1
    29    73    78   am
    30    72    71    1
    31    42    43    1
    32    71    59   am
    33   103   104    1
    34   103   105    1
    35    52    51    1
    36    52    57   am
    37    54    51    1
    38    54    56    1
    39    32    33    1
    40    43    45   ar
    41    43    44   ar
    42    78    79    1
    43    45    47   ar
    44    44    46   ar
    45    79    82    1
    46    84    87    1
    47    84    85    1
    48    33    34    1
    49    59    58    1
    50    59    60    2
    51    87    88    1
    52    47    48   ar
    53    58    57    1
    54    58    61    1
    55    46    48   ar
    56    48    49    1
    57    34    35    2
    58    85    86    2
    59    90    88   ar
    60    90    92   ar
    61    88    89   ar
    62    63    62   ar
    63    63    65   ar
    64    61    62    1
    65    23    24    2
    66    23    22    1
    67    62    64   ar
    68    65    66   ar
    69    35    36    1
    70    35    37    1
    71    92    93   ar
    72    89    91   ar
    73    22    25    1
    74    22    21    1
    75    64    66   ar
    76    64    67   ar
    77    66    68   ar
    78    15    14    2
    79    25    26    1
    80    67    69   ar
    81    68    70   ar
    82    93    91   ar
    83    93    94    1
    84    18    17    1
    85    18    19    1
    86    14    21   am
    87    14    13    1
    88    20    19    1
    89    69    70   ar
    90    17    16    1
    91     6     7    1
    92     6     5    1
    93    12    13    1
    94    12     3   am
    95    13    16    1
    96     7     8    1
    97    10     9    1
    98     5     2    1
    99     2     3    1
   100     2     1    1
   101     3     4    2
   102     8     9    2
   103     9    11    1
   104   114   113    1
   105   113   112    1
   106   112   111    1
   107   111   110    1
   108   106   107    1
   109   123   122    1
   110   110   107    1
   111   107   108    1
   112   122   121    1
   113   109   108    2
   114   121   120    1
   115   120   119    1
   116   119   116    1
   117   115   116    1
   118   116   117    1
   119   117   118    2
