@<TRIPOS>MOLECULE
tmp/3kwsA00.pdb
 69 64 0 0 0
SMALL
GASTEIGER

@<TRIPOS>ATOM
      1  N         51.4660   94.4490   70.6980 N.3    92  GLY92      -0.1210
      2  CA        50.2530   93.6040   70.6970 C.3    92  GLY92       0.1956
      3  C         50.4060   92.2850   71.4330 C.2    92  GLY92       0.2613
      4  O         49.6170   91.3390   71.2090 O.2    92  GLY92      -0.2717
      5  N         51.3650   92.2500   72.3600 N.am   93  SER93      -0.1938
      6  CA        51.6930   91.0240   73.0670 C.3    93  SER93       0.2055
      7  C         50.5770   90.5710   73.9820 C.2    93  SER93       0.2643
      8  O         49.8370   91.3970   74.5240 O.2    93  SER93      -0.2714
      9  CB        52.9490   91.2360   73.9200 C.3    93  SER93       0.2130
     10  OG        53.2580   90.0880   74.7060 O.3    93  SER93      -0.2179
     11  N         50.4350   89.2520   74.1390 N.am   94  THR94      -0.1950
     12  CA        49.4880   88.7160   75.1110 C.3    94  THR94       0.1897
     13  C         49.9150   88.9260   76.5850 C.2    94  THR94       0.2313
     14  O         49.1040   88.8050   77.4760 O.2    94  THR94      -0.2863
     15  CB        49.2720   87.2150   74.8900 C.3    94  THR94       0.1794
     16  OG1       50.5450   86.5300   74.7930 O.3    94  THR94      -0.2208
     17  CG2       48.4680   86.9810   73.6010 C.3    94  THR94       0.0378
     18  N         47.1060   97.6720   77.2070 N.3   132  GLY132     -0.1210
     19  CA        46.5290   96.6410   76.3840 C.3   132  GLY132      0.1956
     20  C         47.1430   95.2680   76.4720 C.2   132  GLY132      0.2613
     21  O         46.9830   94.4810   75.5600 O.2   132  GLY132     -0.2717
     22  N         47.8130   94.9790   77.5720 N.am  133  THR133     -0.1938
     23  CA        48.4920   93.6990   77.7530 C.3   133  THR133      0.2028
     24  C         48.3300   93.1730   79.1980 C.2   133  THR133      0.2642
     25  O         47.4110   93.6040   79.9010 O.2   133  THR133     -0.2714
     26  CB        49.9690   93.8260   77.2560 C.3   133  THR133      0.1808
     27  OG1       50.5470   92.5280   77.0860 O.3   133  THR133     -0.2208
     28  CG2       50.8350   94.6240   78.1950 C.3   133  THR133      0.0379
     29  N         49.1880   92.2570   79.6270 N.am  134  SER134     -0.1949
     30  CA        49.1020   91.6830   80.9660 C.3   134  SER134      0.1924
     31  C         50.4880   91.3300   81.4340 C.2   134  SER134      0.2314
     32  O         51.4210   91.3670   80.6530 O.2   134  SER134     -0.2863
     33  CB        48.2310   90.4110   80.9360 C.3   134  SER134      0.2116
     34  OG        48.8490   89.2870   80.2840 O.3   134  SER134     -0.2180
     35  N         42.1800   92.5080   85.2210 N.3   164  PRO164     -0.2116
     36  CA        42.3280   92.0760   83.8210 C.3   164  PRO164      0.1372
     37  C         43.7680   92.1000   83.2600 C.2   164  PRO164      0.2244
     38  O         43.9920   91.5970   82.1530 O.2   164  PRO164     -0.2868
     39  CB        41.4690   93.0900   83.0610 C.3   164  PRO164      0.0268
     40  CG        40.3860   93.4320   84.0200 C.3   164  PRO164      0.0207
     41  CD        41.0610   93.4610   85.3780 C.3   164  PRO164      0.0892
     42  N         47.5560   87.6180   84.7860 N.3   167  ARG167     -0.1245
     43  CA        47.2430   86.3180   84.2610 C.3   167  ARG167      0.1563
     44  C         48.3120   85.3100   84.6560 C.2   167  ARG167      0.2260
     45  O         49.2400   85.6440   85.3870 O.2   167  ARG167     -0.2867
     46  CB        47.0780   86.4500   82.7530 C.3   167  ARG167      0.0307
     47  CG        45.9640   87.3690   82.2890 C.3   167  ARG167      0.0489
     48  CD        44.6470   86.7250   82.6200 C.3   167  ARG167      0.2205
     49  NE        43.4600   87.3840   82.1310 N.pl3 167  ARG167     -0.0865
     50  CZ        42.6300   88.1190   82.8620 C.cat 167  ARG167      0.5346
     51  NH1       42.8770   88.4210   84.1500 N.pl3 167  ARG167      0.1354
     52  NH2       41.5520   88.6120   82.2540 N.pl3 167  ARG167      0.1354
     53  N         46.9580   82.4170   80.0780 N.3   191  GLN191     -0.1245
     54  CA        47.2360   83.3920   79.0030 C.3   191  GLN191      0.1566
     55  C         48.3040   82.9830   78.0100 C.2   191  GLN191      0.2260
     56  O         48.4220   83.5820   76.9420 O.2   191  GLN191     -0.2867
     57  CB        47.6050   84.6900   79.7150 C.3   191  GLN191      0.0367
     58  CG        47.7540   85.9580   78.8810 C.3   191  GLN191      0.0905
     59  CD        46.4370   86.4590   78.3110 C.2   191  GLN191      0.2608
     60  OE1       45.3710   85.9210   78.6230 O.2   191  GLN191     -0.2717
     61  NE2       46.4970   87.5000   77.4880 N.am  191  GLN191     -0.0878
     62  N         44.8540   81.3740   73.2250 N.3   225  ASN225     -0.1240
     63  CA        46.1390   82.0550   73.1480 C.3   225  ASN225      0.1653
     64  C         47.1770   81.1110   72.5160 C.2   225  ASN225      0.2266
     65  O         46.8010   80.1650   71.8100 O.2   225  ASN225     -0.2867
     66  CB        46.5190   82.5890   74.5370 C.3   225  ASN225      0.1155
     67  CG        45.5260   83.6530   75.0380 C.2   225  ASN225      0.2627
     68  OD1       45.3870   84.7110   74.4230 O.2   225  ASN225     -0.2716
     69  ND2       44.8420   83.3730   76.1510 N.am  225  ASN225     -0.0877
@<TRIPOS>BOND
     1     2     1    1
     2     2     3    1
     3     4     3    2
     4     3     5   am
     5    65    64    2
     6     5     6    1
     7    64    63    1
     8     6     9    1
     9     6     7    1
    10    63    62    1
    11    63    66    1
    12    17    15    1
    13     9    10    1
    14     7    11   am
    15     7     8    2
    16    11    12    1
    17    68    67    2
    18    66    67    1
    19    16    15    1
    20    15    12    1
    21    67    69   am
    22    12    13    1
    23    21    20    2
    24    19    20    1
    25    19    18    1
    26    20    22   am
    27    13    14    2
    28    56    55    2
    29    27    26    1
    30    26    23    1
    31    26    28    1
    32    61    59   am
    33    22    23    1
    34    23    24    1
    35    55    54    1
    36    59    60    2
    37    59    58    1
    38    58    57    1
    39    54    57    1
    40    54    53    1
    41    24    29   am
    42    24    25    2
    43    29    30    1
    44    34    33    1
    45    32    31    2
    46    33    30    1
    47    30    31    1
    48    49    48    1
    49    49    50    2
    50    38    37    2
    51    52    50    1
    52    47    48    1
    53    47    46    1
    54    46    43    1
    55    50    51    1
    56    39    36    1
    57    39    40    1
    58    37    36    1
    59    36    35    1
    60    40    41    1
    61    43    44    1
    62    43    42    1
    63    44    45    2
    64    35    41    1
