@<TRIPOS>MOLECULE
tmp/3kwwA07.pdb
 86 81 0 0 0
SMALL
GASTEIGER

@<TRIPOS>ATOM
      1  N         25.4590    6.6840   17.8320 N.3    70  ASN70      -0.1240
      2  CA        25.7900    7.1290   19.1830 C.3    70  ASN70       0.1653
      3  C         26.3510    6.0070   20.0610 C.2    70  ASN70       0.2266
      4  O         27.2790    6.2290   20.8330 O.2    70  ASN70      -0.2867
      5  CB        24.5850    7.8060   19.8400 C.3    70  ASN70       0.1155
      6  CG        24.5550    9.3030   19.5890 C.2    70  ASN70       0.2627
      7  OD1       25.3000   10.0540   20.2140 O.2    70  ASN70      -0.2716
      8  ND2       23.6980    9.7440   18.6670 N.am   70  ASN70      -0.0877
      9  N         30.0310    5.6940   19.1160 N.3    73  THR73      -0.1203
     10  CA        30.7810    6.8560   19.5680 C.3    73  THR73       0.1994
     11  C         30.9360    6.9050   21.0930 C.2    73  THR73       0.2617
     12  O         32.0010    7.2720   21.5910 O.2    73  THR73      -0.2717
     13  CB        30.1510    8.1650   19.0260 C.3    73  THR73       0.1784
     14  OG1       30.0960    8.0980   17.5940 O.3    73  THR73      -0.2211
     15  CG2       30.9760    9.3710   19.4300 C.3    73  THR73       0.0376
     16  N         29.8860    6.5260   21.8240 N.am   74  TYR74      -0.1975
     17  CA        29.9520    6.4550   23.2880 C.3    74  TYR74       0.1639
     18  C         30.9360    5.4070   23.8150 C.2    74  TYR74       0.2290
     19  O         31.5400    5.5910   24.8770 O.2    74  TYR74      -0.2864
     20  CB        28.5540    6.3080   23.9090 C.3    74  TYR74       0.0560
     21  CG        27.9340    7.6550   24.1860 C.ar   74  TYR74      -0.0198
     22  CD1       27.1960    8.3240   23.2040 C.ar   74  TYR74      -0.0009
     23  CD2       28.1280    8.2920   25.4160 C.ar   74  TYR74      -0.0009
     24  CE1       26.6550    9.5900   23.4430 C.ar   74  TYR74       0.0417
     25  CE2       27.5850    9.5520   25.6660 C.ar   74  TYR74       0.0417
     26  CZ        26.8530   10.1950   24.6770 C.ar   74  TYR74       0.1957
     27  OH        26.3250   11.4460   24.9250 O.3    74  TYR74      -0.2866
     28  N         34.1490    7.1320   23.4450 N.3    77  SER77      -0.1217
     29  CA        34.1750    8.1230   24.5200 C.3    77  SER77       0.1889
     30  C         34.5300    7.5300   25.8890 C.2    77  SER77       0.2288
     31  O         35.2560    8.1540   26.6680 O.2    77  SER77      -0.2866
     32  CB        32.8320    8.8540   24.6140 C.3    77  SER77       0.2089
     33  OG        32.5320    9.5470   23.4120 O.3    77  SER77      -0.2183
     34  N         24.2740   11.3590   29.5480 N.3    97  ARG97      -0.1245
     35  CA        23.9990   12.6450   28.9260 C.3    97  ARG97       0.1563
     36  C         22.5130   12.9400   28.9740 C.2    97  ARG97       0.2260
     37  O         21.6950   12.0700   28.6750 O.2    97  ARG97      -0.2867
     38  CB        24.5080   12.6980   27.4730 C.3    97  ARG97       0.0307
     39  CG        24.2060   14.0310   26.7850 C.3    97  ARG97       0.0489
     40  CD        24.9320   14.2180   25.4680 C.3    97  ARG97       0.2205
     41  NE        24.5300   15.4810   24.8560 N.pl3  97  ARG97      -0.0865
     42  CZ        23.9810   15.6030   23.6500 C.cat  97  ARG97       0.5346
     43  NH1       23.7830   14.5420   22.8840 N.pl3  97  ARG97       0.1354
     44  NH2       23.6340   16.7990   23.2050 N.pl3  97  ARG97       0.1354
     45  N         35.5270   19.5310   21.4030 N.3   147  TRP147     -0.1241
     46  CA        34.1880   19.9830   21.0430 C.3   147  TRP147      0.1605
     47  C         34.2240   21.4030   20.4800 C.2   147  TRP147      0.2264
     48  O         33.5050   21.7080   19.5390 O.2   147  TRP147     -0.2867
     49  CB        33.2090   19.8570   22.2140 C.3   147  TRP147      0.0550
     50  CG        32.8400   18.4190   22.5190 C.ar  147  TRP147      0.0003
     51  CD1       33.2530   17.2950   21.8450 C.ar  147  TRP147      0.0946
     52  CD2       31.9620   17.9620   23.5530 C.ar  147  TRP147      0.0152
     53  NE1       32.6950   16.1720   22.4080 N.ar  147  TRP147     -0.2442
     54  CE2       31.8980   16.5520   23.4570 C.ar  147  TRP147      0.0810
     55  CE3       31.2270   18.6070   24.5580 C.ar  147  TRP147      0.0012
     56  CZ2       31.1280   15.7730   24.3310 C.ar  147  TRP147      0.0191
     57  CZ3       30.4620   17.8340   25.4220 C.ar  147  TRP147      0.0001
     58  CH2       30.4230   16.4280   25.3030 C.ar  147  TRP147      0.0015
     59  N         35.5850   21.0340   16.9570 N.3   150  ALA150     -0.1245
     60  CA        34.5690   20.4380   16.0760 C.3   150  ALA150      0.1562
     61  C         33.2620   21.2420   15.9670 C.2   150  ALA150      0.2260
     62  O         32.3010   20.7820   15.3480 O.2   150  ALA150     -0.2867
     63  CB        34.2730   19.0000   16.5100 C.3   150  ALA150      0.0290
     64  N         30.9330   21.8390   18.1160 N.3   152  VAL152     -0.1245
     65  CA        29.8320   21.0590   18.6740 C.3   152  VAL152      0.1561
     66  C         28.7080   21.9610   19.1990 C.2   152  VAL152      0.2260
     67  O         27.5340   21.7310   18.8870 O.2   152  VAL152     -0.2867
     68  CB        30.3400   20.0440   19.7450 C.3   152  VAL152      0.0252
     69  CG1       29.1920   19.3970   20.4820 C.3   152  VAL152      0.0019
     70  CG2       31.2010   18.9650   19.0820 C.3   152  VAL152      0.0019
     71  N         26.3090   23.2500   16.6090 N.3   155  ALA155     -0.1231
     72  CA        25.3400   22.2130   16.2430 C.3   155  ALA155      0.1694
     73  C         24.2660   22.0200   17.3220 C.2   155  ALA155      0.2591
     74  O         23.0880   21.8470   16.9990 O.2   155  ALA155     -0.2718
     75  CB        26.0500   20.8920   15.9450 C.3   155  ALA155      0.0304
     76  N         24.6850   22.0400   18.5900 N.am  156  ARG156     -0.1980
     77  CA        23.7600   21.9000   19.7170 C.3   156  ARG156      0.1597
     78  C         22.7230   23.0200   19.7090 C.2   156  ARG156      0.2287
     79  O         21.5280   22.7650   19.8760 O.2   156  ARG156     -0.2864
     80  CB        24.5110   21.8700   21.0590 C.3   156  ARG156      0.0334
     81  CG        25.5330   20.7400   21.2050 C.3   156  ARG156      0.0492
     82  CD        24.8770   19.3930   21.4740 C.3   156  ARG156      0.2205
     83  NE        25.7250   18.2740   21.0630 N.pl3 156  ARG156     -0.0865
     84  CZ        26.5180   17.5740   21.8720 C.cat 156  ARG156      0.5346
     85  NH1       26.6040   17.8580   23.1660 N.pl3 156  ARG156      0.1354
     86  NH2       27.2400   16.5780   21.3790 N.pl3 156  ARG156      0.1354
@<TRIPOS>BOND
     1    62    61    2
     2    75    72    1
     3    61    60    1
     4    60    63    1
     5    60    59    1
     6    72    71    1
     7    72    73    1
     8    74    73    2
     9    73    76   am
    10    14    13    1
    11     1     2    1
    12    64    65    1
    13    76    77    1
    14     8     6   am
    15    65    66    1
    16    65    68    1
    17    67    66    2
    18    13    15    1
    19    13    10    1
    20    70    68    1
    21     9    10    1
    22     2     5    1
    23     2     3    1
    24    48    47    2
    25    10    11    1
    26     6     5    1
    27     6     7    2
    28    78    77    1
    29    78    79    2
    30    77    80    1
    31    68    69    1
    32     3     4    2
    33    47    46    1
    34    46    45    1
    35    46    49    1
    36    80    81    1
    37    83    82    1
    38    83    84    2
    39    11    12    2
    40    11    16   am
    41    81    82    1
    42    86    84    1
    43    16    17    1
    44    51    53   ar
    45    51    50   ar
    46    84    85    1
    47    49    50    1
    48    53    54   ar
    49    50    52   ar
    50    43    42    1
    51    22    24   ar
    52    22    21   ar
    53    44    42    1
    54    17    18    1
    55    17    20    1
    56    33    32    1
    57    24    26   ar
    58    28    29    1
    59    54    52   ar
    60    54    56   ar
    61    52    55   ar
    62    42    41    2
    63    18    19    2
    64    20    21    1
    65    21    23   ar
    66    56    58   ar
    67    29    32    1
    68    29    30    1
    69    55    57   ar
    70    26    27    1
    71    26    25   ar
    72    41    40    1
    73    58    57   ar
    74    23    25   ar
    75    40    39    1
    76    30    31    2
    77    39    38    1
    78    38    35    1
    79    37    36    2
    80    35    36    1
    81    35    34    1
