@<TRIPOS>MOLECULE
tmp/3kwwA00.pdb
 243 231 0 0 0
SMALL
GASTEIGER

@<TRIPOS>ATOM
      1  N         20.7460    9.6360   27.8070 N.3     9  TYR9       -0.1241
      2  CA        21.6530    8.6050   27.3230 C.3     9  TYR9        0.1605
      3  C         22.4620    8.0330   28.4740 C.2     9  TYR9        0.2264
      4  O         23.0660    8.7780   29.2400 O.2     9  TYR9       -0.2867
      5  CB        22.6310    9.1580   26.2760 C.3     9  TYR9        0.0534
      6  CG        22.0420    9.6990   24.9840 C.ar    9  TYR9       -0.0201
      7  CD1       20.6840    9.5860   24.6890 C.ar    9  TYR9       -0.0009
      8  CD2       22.8760   10.3090   24.0320 C.ar    9  TYR9       -0.0009
      9  CE1       20.1640   10.0820   23.4840 C.ar    9  TYR9        0.0417
     10  CE2       22.3770   10.7850   22.8330 C.ar    9  TYR9        0.0417
     11  CZ        21.0170   10.6700   22.5630 C.ar    9  TYR9        0.1957
     12  OH        20.5100   11.1650   21.3800 O.3     9  TYR9       -0.2866
     13  N         15.3210    6.9240   11.1580 N.3    62  ARG62      -0.1245
     14  CA        16.1740    8.0620   11.4990 C.3    62  ARG62       0.1563
     15  C         16.6440    7.9680   12.9560 C.2    62  ARG62       0.2260
     16  O         17.8320    8.1020   13.2420 O.2    62  ARG62      -0.2867
     17  CB        15.4520    9.3910   11.2080 C.3    62  ARG62       0.0307
     18  CG        15.7140   10.5210   12.2060 C.3    62  ARG62       0.0489
     19  CD        15.5220   11.8980   11.5870 C.3    62  ARG62       0.2205
     20  NE        16.7800   12.4400   11.0750 N.pl3  62  ARG62      -0.0865
     21  CZ        16.9830   13.7130   10.7470 C.cat  62  ARG62       0.5346
     22  NH1       16.0090   14.6110   10.8700 N.pl3  62  ARG62       0.1354
     23  NH2       18.1690   14.0900   10.2930 N.pl3  62  ARG62       0.1354
     24  N         19.1830    5.0270   13.3640 N.3    65  ALA65      -0.1231
     25  CA        20.4980    5.4020   12.8460 C.3    65  ALA65       0.1694
     26  C         21.2450    6.3110   13.8300 C.2    65  ALA65       0.2591
     27  O         22.4280    6.1060   14.1020 O.2    65  ALA65      -0.2718
     28  CB        20.3790    6.0620   11.4660 C.3    65  ALA65       0.0304
     29  N         20.5420    7.3060   14.3620 N.am   66  ILE66      -0.1980
     30  CA        21.0970    8.2100   15.3770 C.3    66  ILE66       0.1595
     31  C         21.5940    7.4400   16.6090 C.2    66  ILE66       0.2287
     32  O         22.7490    7.5920   17.0150 O.2    66  ILE66      -0.2864
     33  CB        20.0760    9.3200   15.7640 C.3    66  ILE66       0.0276
     34  CG1       19.9510   10.3380   14.6210 C.3    66  ILE66       0.0022
     35  CG2       20.4620   10.0060   17.0930 C.3    66  ILE66       0.0022
     36  CD1       18.5850   11.0370   14.5340 C.3    66  ILE66       0.0001
     37  N         24.6200    4.9870   15.7920 N.3    69  ALA69      -0.1231
     38  CA        25.8780    5.7300   15.6340 C.3    69  ALA69       0.1694
     39  C         26.3880    6.2550   16.9820 C.2    69  ALA69       0.2592
     40  O         27.5960    6.2650   17.2420 O.2    69  ALA69      -0.2718
     41  CB        25.7040    6.8640   14.6550 C.3    69  ALA69       0.0304
     42  N         25.4590    6.6840   17.8320 N.am   70  ASN70      -0.1974
     43  CA        25.7900    7.1290   19.1830 C.3    70  ASN70       0.1688
     44  C         26.3510    6.0070   20.0610 C.2    70  ASN70       0.2292
     45  O         27.2790    6.2290   20.8330 O.2    70  ASN70      -0.2864
     46  CB        24.5850    7.8060   19.8400 C.3    70  ASN70       0.1181
     47  CG        24.5550    9.3030   19.5890 C.2    70  ASN70       0.2629
     48  OD1       25.3000   10.0540   20.2140 O.2    70  ASN70      -0.2716
     49  ND2       23.6980    9.7440   18.6670 N.am   70  ASN70      -0.0877
     50  N         30.0310    5.6940   19.1160 N.3    73  THR73      -0.1203
     51  CA        30.7810    6.8560   19.5680 C.3    73  THR73       0.1994
     52  C         30.9360    6.9050   21.0930 C.2    73  THR73       0.2617
     53  O         32.0010    7.2720   21.5910 O.2    73  THR73      -0.2717
     54  CB        30.1510    8.1650   19.0260 C.3    73  THR73       0.1784
     55  OG1       30.0960    8.0980   17.5940 O.3    73  THR73      -0.2211
     56  CG2       30.9760    9.3710   19.4300 C.3    73  THR73       0.0376
     57  N         29.8860    6.5260   21.8240 N.am   74  TYR74      -0.1975
     58  CA        29.9520    6.4550   23.2880 C.3    74  TYR74       0.1639
     59  C         30.9360    5.4070   23.8150 C.2    74  TYR74       0.2290
     60  O         31.5400    5.5910   24.8770 O.2    74  TYR74      -0.2864
     61  CB        28.5540    6.3080   23.9090 C.3    74  TYR74       0.0560
     62  CG        27.9340    7.6550   24.1860 C.ar   74  TYR74      -0.0198
     63  CD1       27.1960    8.3240   23.2040 C.ar   74  TYR74      -0.0009
     64  CD2       28.1280    8.2920   25.4160 C.ar   74  TYR74      -0.0009
     65  CE1       26.6550    9.5900   23.4430 C.ar   74  TYR74       0.0417
     66  CE2       27.5850    9.5520   25.6660 C.ar   74  TYR74       0.0417
     67  CZ        26.8530   10.1950   24.6770 C.ar   74  TYR74       0.1957
     68  OH        26.3250   11.4460   24.9250 O.3    74  TYR74      -0.2866
     69  N         33.7620    4.6410   22.1660 N.3    76  GLU76      -0.1231
     70  CA        35.0150    5.3890   21.9810 C.3    76  GLU76       0.1699
     71  C         35.2190    6.4080   23.0990 C.2    76  GLU76       0.2592
     72  O         36.3250    6.5380   23.6290 O.2    76  GLU76      -0.2718
     73  CB        35.0340    6.0910   20.6090 C.3    76  GLU76       0.0402
     74  CG        36.3250    6.8630   20.3030 C.3    76  GLU76       0.1161
     75  CD        36.2640    7.6980   19.0130 C.2    76  GLU76       0.3649
     76  OE1       35.3090    7.5450   18.2150 O.co2  76  GLU76      -0.2457
     77  OE2       37.1860    8.5170   18.8000 O.co2  76  GLU76      -0.2457
     78  N         34.1490    7.1320   23.4450 N.am   77  SER77      -0.1952
     79  CA        34.1750    8.1230   24.5200 C.3    77  SER77       0.1924
     80  C         34.5300    7.5300   25.8890 C.2    77  SER77       0.2314
     81  O         35.2560    8.1540   26.6680 O.2    77  SER77      -0.2863
     82  CB        32.8320    8.8540   24.6140 C.3    77  SER77       0.2116
     83  OG        32.5320    9.5470   23.4120 O.3    77  SER77      -0.2180
     84  N         38.0850    6.8780   25.9320 N.3    80  ASN80      -0.1225
     85  CA        38.7610    8.1700   26.0660 C.3    80  ASN80       0.1785
     86  C         38.8020    8.6480   27.5150 C.2    80  ASN80       0.2597
     87  O         39.8580    9.0310   28.0110 O.2    80  ASN80      -0.2718
     88  CB        38.1240    9.2350   25.1580 C.3    80  ASN80       0.1169
     89  CG        38.4070    9.0010   23.6750 C.2    80  ASN80       0.2627
     90  OD1       37.8120    9.6440   22.8150 O.2    80  ASN80      -0.2716
     91  ND2       39.3080    8.0850   23.3760 N.am   80  ASN80      -0.0877
     92  N         37.6590    8.5850   28.1970 N.am   81  LEU81      -0.1980
     93  CA        37.5700    9.0120   29.5970 C.3    81  LEU81       0.1596
     94  C         38.3690    8.1450   30.5640 C.2    81  LEU81       0.2287
     95  O         38.9510    8.6570   31.5270 O.2    81  LEU81      -0.2864
     96  CB        36.1120    9.1490   30.0500 C.3    81  LEU81       0.0297
     97  CG        35.5350   10.5630   29.8930 C.3    81  LEU81       0.0022
     98  CD1       35.4810   10.9940   28.4270 C.3    81  LEU81       0.0001
     99  CD2       34.1660   10.6850   30.5410 C.3    81  LEU81       0.0001
    100  N         41.7660    9.6020   30.1310 N.3    84  TYR84      -0.1241
    101  CA        41.8730   10.9330   30.7560 C.3    84  TYR84       0.1605
    102  C         42.0860   10.8610   32.2660 C.2    84  TYR84       0.2264
    103  O         42.7050   11.7550   32.8590 O.2    84  TYR84      -0.2867
    104  CB        40.6300   11.8010   30.5070 C.3    84  TYR84       0.0534
    105  CG        40.2510   12.1080   29.0680 C.ar   84  TYR84      -0.0201
    106  CD1       41.1590   11.9570   28.0160 C.ar   84  TYR84      -0.0009
    107  CD2       38.9800   12.6070   28.7720 C.ar   84  TYR84      -0.0009
    108  CE1       40.7910   12.2540   26.7030 C.ar   84  TYR84       0.0417
    109  CE2       38.6090   12.9220   27.4650 C.ar   84  TYR84       0.0417
    110  CZ        39.5160   12.7360   26.4390 C.ar   84  TYR84       0.1957
    111  OH        39.1430   13.0320   25.1450 O.3    84  TYR84      -0.2866
    112  N         29.0190    6.8310   31.3230 N.3    95  ILE95      -0.1245
    113  CA        28.7460    8.1880   30.8440 C.3    95  ILE95       0.1561
    114  C         27.2400    8.3890   30.7300 C.2    95  ILE95       0.2260
    115  O         26.5300    7.5580   30.1600 O.2    95  ILE95      -0.2867
    116  CB        29.4140    8.5090   29.4700 C.3    95  ILE95       0.0252
    117  CG1       30.9380    8.3560   29.5450 C.3    95  ILE95       0.0019
    118  CG2       29.0680    9.9540   29.0270 C.3    95  ILE95       0.0019
    119  CD1       31.6390    8.4600   28.1990 C.3    95  ILE95       0.0001
    120  N         24.2740   11.3590   29.5480 N.3    97  ARG97      -0.1245
    121  CA        23.9990   12.6450   28.9260 C.3    97  ARG97       0.1563
    122  C         22.5130   12.9400   28.9740 C.2    97  ARG97       0.2260
    123  O         21.6950   12.0700   28.6750 O.2    97  ARG97      -0.2867
    124  CB        24.5080   12.6980   27.4730 C.3    97  ARG97       0.0307
    125  CG        24.2060   14.0310   26.7850 C.3    97  ARG97       0.0489
    126  CD        24.9320   14.2180   25.4680 C.3    97  ARG97       0.2205
    127  NE        24.5300   15.4810   24.8560 N.pl3  97  ARG97      -0.0865
    128  CZ        23.9810   15.6030   23.6500 C.cat  97  ARG97       0.5346
    129  NH1       23.7830   14.5420   22.8840 N.pl3  97  ARG97       0.1354
    130  NH2       23.6340   16.7990   23.2050 N.pl3  97  ARG97       0.1354
    131  N         19.8540   16.0360   27.5910 N.3    99  TYR99      -0.1241
    132  CA        19.7230   17.2360   26.7780 C.3    99  TYR99       0.1605
    133  C         18.2790   17.4480   26.3540 C.2    99  TYR99       0.2264
    134  O         17.4790   16.5120   26.3670 O.2    99  TYR99      -0.2867
    135  CB        20.6560   17.1860   25.5500 C.3    99  TYR99       0.0534
    136  CG        20.2460   16.2060   24.4650 C.ar   99  TYR99      -0.0201
    137  CD1       20.7920   14.9200   24.4180 C.ar   99  TYR99      -0.0009
    138  CD2       19.3330   16.5710   23.4750 C.ar   99  TYR99      -0.0009
    139  CE1       20.4390   14.0250   23.4160 C.ar   99  TYR99       0.0417
    140  CE2       18.9660   15.6740   22.4660 C.ar   99  TYR99       0.0417
    141  CZ        19.5220   14.4040   22.4470 C.ar   99  TYR99       0.1957
    142  OH        19.1650   13.5140   21.4560 O.3    99  TYR99      -0.2866
    143  N         26.5010   16.4430   30.7070 N.3   116  SER116     -0.1202
    144  CA        27.0660   15.1000   30.7830 C.3   116  SER116      0.2020
    145  C         27.6960   14.8150   32.1390 C.2   116  SER116      0.2618
    146  O         28.1650   15.7190   32.8280 O.2   116  SER116     -0.2717
    147  CB        28.1180   14.8910   29.6920 C.3   116  SER116      0.2103
    148  OG        27.5320   14.8330   28.4060 O.3   116  SER116     -0.2182
    149  N         27.7030   13.5390   32.5030 N.am  117  ALA117     -0.1979
    150  CA        28.3160   13.0860   33.7310 C.3   117  ALA117      0.1597
    151  C         29.1960   11.8650   33.4590 C.2   117  ALA117      0.2287
    152  O         28.9750   11.1240   32.4970 O.2   117  ALA117     -0.2864
    153  CB        27.2440   12.7540   34.7600 C.3   117  ALA117      0.0319
    154  N         30.4590   16.2690   34.4860 N.3   123  TYR123     -0.1241
    155  CA        31.6860   16.2130   33.6980 C.3   123  TYR123      0.1605
    156  C         31.8210   17.4510   32.8210 C.2   123  TYR123      0.2264
    157  O         32.8030   18.1710   32.9080 O.2   123  TYR123     -0.2867
    158  CB        31.7220   14.9190   32.8680 C.3   123  TYR123      0.0534
    159  CG        32.9510   14.7550   31.9960 C.ar  123  TYR123     -0.0201
    160  CD1       34.1760   14.3640   32.5440 C.ar  123  TYR123     -0.0009
    161  CD2       32.8840   14.9790   30.6220 C.ar  123  TYR123     -0.0009
    162  CE1       35.3070   14.2120   31.7400 C.ar  123  TYR123      0.0417
    163  CE2       33.9990   14.8270   29.8130 C.ar  123  TYR123      0.0417
    164  CZ        35.2050   14.4420   30.3770 C.ar  123  TYR123      0.1957
    165  OH        36.3040   14.2960   29.5760 O.3   123  TYR123     -0.2866
    166  N         37.8940   17.1870   26.5860 N.3   143  THR143     -0.1218
    167  CA        36.6130   17.0660   25.8880 C.3   143  THR143      0.1862
    168  C         36.1560   18.4270   25.3480 C.2   143  THR143      0.2287
    169  O         35.6960   18.5250   24.2110 O.2   143  THR143     -0.2866
    170  CB        35.5270   16.4400   26.8070 C.3   143  THR143      0.1770
    171  OG1       35.9450   15.1270   27.2140 O.3   143  THR143     -0.2211
    172  CG2       34.1930   16.3230   26.0850 C.3   143  THR143      0.0375
    173  N         38.2060   19.5790   22.1380 N.3   146  LYS146     -0.1231
    174  CA        37.8330   18.8850   20.9030 C.3   146  LYS146      0.1693
    175  C         36.3870   19.1540   20.4600 C.2   146  LYS146      0.2592
    176  O         36.0600   19.0180   19.2800 O.2   146  LYS146     -0.2718
    177  CB        38.1850   17.3890   20.9550 C.3   146  LYS146      0.0285
    178  CG        37.1220   16.4470   21.4420 C.3   146  LYS146      0.0035
    179  CD        37.5320   15.0000   21.1380 C.3   146  LYS146      0.0206
    180  CE        38.6670   14.5230   22.0350 C.3   146  LYS146      0.1093
    181  NZ        38.9720   13.0710   21.8370 N.3   146  LYS146     -0.1314
    182  N         35.5270   19.5310   21.4030 N.am  147  TRP147     -0.1976
    183  CA        34.1880   19.9830   21.0430 C.3   147  TRP147      0.1640
    184  C         34.2240   21.4030   20.4800 C.2   147  TRP147      0.2290
    185  O         33.5050   21.7080   19.5390 O.2   147  TRP147     -0.2864
    186  CB        33.2090   19.8570   22.2140 C.3   147  TRP147      0.0576
    187  CG        32.8400   18.4190   22.5190 C.ar  147  TRP147      0.0006
    188  CD1       33.2530   17.2950   21.8450 C.ar  147  TRP147      0.0946
    189  CD2       31.9620   17.9620   23.5530 C.ar  147  TRP147      0.0152
    190  NE1       32.6950   16.1720   22.4080 N.ar  147  TRP147     -0.2442
    191  CE2       31.8980   16.5520   23.4570 C.ar  147  TRP147      0.0810
    192  CE3       31.2270   18.6070   24.5580 C.ar  147  TRP147      0.0012
    193  CZ2       31.1280   15.7730   24.3310 C.ar  147  TRP147      0.0191
    194  CZ3       30.4620   17.8340   25.4220 C.ar  147  TRP147      0.0001
    195  CH2       30.4230   16.4280   25.3030 C.ar  147  TRP147      0.0015
    196  N         35.5850   21.0340   16.9570 N.3   150  ALA150     -0.1245
    197  CA        34.5690   20.4380   16.0760 C.3   150  ALA150      0.1562
    198  C         33.2620   21.2420   15.9670 C.2   150  ALA150      0.2260
    199  O         32.3010   20.7820   15.3480 O.2   150  ALA150     -0.2867
    200  CB        34.2730   19.0000   16.5100 C.3   150  ALA150      0.0290
    201  N         30.9330   21.8390   18.1160 N.3   152  VAL152     -0.1245
    202  CA        29.8320   21.0590   18.6740 C.3   152  VAL152      0.1561
    203  C         28.7080   21.9610   19.1990 C.2   152  VAL152      0.2260
    204  O         27.5340   21.7310   18.8870 O.2   152  VAL152     -0.2867
    205  CB        30.3400   20.0440   19.7450 C.3   152  VAL152      0.0252
    206  CG1       29.1920   19.3970   20.4820 C.3   152  VAL152      0.0019
    207  CG2       31.2010   18.9650   19.0820 C.3   152  VAL152      0.0019
    208  N         26.3090   23.2500   16.6090 N.3   155  ALA155     -0.1231
    209  CA        25.3400   22.2130   16.2430 C.3   155  ALA155      0.1694
    210  C         24.2660   22.0200   17.3220 C.2   155  ALA155      0.2591
    211  O         23.0880   21.8470   16.9990 O.2   155  ALA155     -0.2718
    212  CB        26.0500   20.8920   15.9450 C.3   155  ALA155      0.0304
    213  N         24.6850   22.0400   18.5900 N.am  156  ARG156     -0.1980
    214  CA        23.7600   21.9000   19.7170 C.3   156  ARG156      0.1597
    215  C         22.7230   23.0200   19.7090 C.2   156  ARG156      0.2287
    216  O         21.5280   22.7650   19.8760 O.2   156  ARG156     -0.2864
    217  CB        24.5110   21.8700   21.0590 C.3   156  ARG156      0.0334
    218  CG        25.5330   20.7400   21.2050 C.3   156  ARG156      0.0492
    219  CD        24.8770   19.3930   21.4740 C.3   156  ARG156      0.2205
    220  NE        25.7250   18.2740   21.0630 N.pl3 156  ARG156     -0.0865
    221  CZ        26.5180   17.5740   21.8720 C.cat 156  ARG156      0.5346
    222  NH1       26.6040   17.8580   23.1660 N.pl3 156  ARG156      0.1354
    223  NH2       27.2400   16.5780   21.3790 N.pl3 156  ARG156      0.1354
    224  N         20.1010   22.6940   16.8260 N.3   159  TYR159     -0.1241
    225  CA        19.1370   21.6650   17.2430 C.3   159  TYR159      0.1605
    226  C         18.1780   22.1500   18.3290 C.2   159  TYR159      0.2264
    227  O         16.9680   22.0000   18.1950 O.2   159  TYR159     -0.2867
    228  CB        19.8410   20.3810   17.7190 C.3   159  TYR159      0.0534
    229  CG        18.8930   19.4060   18.4230 C.ar  159  TYR159     -0.0201
    230  CD1       17.9930   18.6230   17.6920 C.ar  159  TYR159     -0.0009
    231  CD2       18.8850   19.2910   19.8140 C.ar  159  TYR159     -0.0009
    232  CE1       17.1120   17.7470   18.3220 C.ar  159  TYR159      0.0417
    233  CE2       18.0110   18.4160   20.4580 C.ar  159  TYR159      0.0417
    234  CZ        17.1280   17.6460   19.7030 C.ar  159  TYR159      0.1957
    235  OH        16.2660   16.7830   20.3320 O.3   159  TYR159     -0.2866
    236  N         14.9320   22.1160   15.6800 N.3   163  LEU163     -0.1245
    237  CA        14.2500   20.8180   15.6720 C.3   163  LEU163      0.1561
    238  C         13.7090   20.3540   17.0250 C.2   163  LEU163      0.2260
    239  O         12.6360   19.7540   17.0770 O.2   163  LEU163     -0.2867
    240  CB        15.1420   19.7310   15.0590 C.3   163  LEU163      0.0270
    241  CG        15.3580   19.7670   13.5400 C.3   163  LEU163      0.0019
    242  CD1       16.4160   18.7560   13.1620 C.3   163  LEU163      0.0001
    243  CD2       14.0720   19.5050   12.7490 C.3   163  LEU163      0.0001
@<TRIPOS>BOND
     1    23    21    1
     2    21    22    1
     3    21    20    2
     4    20    19    1
     5    13    14    1
     6    17    14    1
     7    17    18    1
     8    28    25    1
     9    14    15    1
    10    19    18    1
    11   243   241    1
    12    25    24    1
    13    25    26    1
    14    15    16    2
    15   242   241    1
    16   241   240    1
    17    26    27    2
    18    26    29   am
    19    29    30    1
    20    36    34    1
    21    34    33    1
    22    41    38    1
    23   240   237    1
    24   199   198    2
    25    30    33    1
    26    30    31    1
    27    38    37    1
    28    38    39    1
    29   237   236    1
    30   237   238    1
    31    33    35    1
    32   212   209    1
    33   198   197    1
    34   197   200    1
    35   197   196    1
    36   209   208    1
    37   209   210    1
    38    31    32    2
    39   224   225    1
    40    39    40    2
    41    39    42   am
    42   211   210    2
    43   238   239    2
    44   225   228    1
    45   225   226    1
    46   210   213   am
    47    55    54    1
    48   230   232   ar
    49   230   229   ar
    50   228   229    1
    51    42    43    1
    52   201   202    1
    53   227   226    2
    54    76    75   ar
    55   232   234   ar
    56   229   231   ar
    57   213   214    1
    58    49    47   am
    59   202   203    1
    60   202   205    1
    61    77    75   ar
    62   204   203    2
    63    75    74    1
    64    54    56    1
    65    54    51    1
    66   207   205    1
    67    50    51    1
    68    43    46    1
    69    43    44    1
    70   176   175    2
    71   185   184    2
    72    51    52    1
    73    47    46    1
    74    47    48    2
    75   234   235    1
    76   234   233   ar
    77   215   214    1
    78   215   216    2
    79   214   217    1
    80   205   206    1
    81   231   233   ar
    82    44    45    2
    83    74    73    1
    84   175   174    1
    85   175   182   am
    86   184   183    1
    87    73    70    1
    88   174   177    1
    89   174   173    1
    90   177   178    1
    91   183   182    1
    92   183   186    1
    93   217   218    1
    94   220   219    1
    95   220   221    2
    96    52    53    2
    97    52    57   am
    98   179   178    1
    99   179   180    1
   100   218   219    1
   101   223   221    1
   102    12    11    1
   103   142   141    1
   104    57    58    1
   105   181   180    1
   106   188   190   ar
   107   188   187   ar
   108   221   222    1
   109    70    69    1
   110    70    71    1
   111   186   187    1
   112   190   191   ar
   113   141   140   ar
   114   141   139   ar
   115   140   138   ar
   116   187   189   ar
   117    11    10   ar
   118    11     9   ar
   119    90    89    2
   120    10     8   ar
   121   129   128    1
   122    71    78   am
   123    71    72    2
   124    63    65   ar
   125    63    62   ar
   126   130   128    1
   127    58    59    1
   128    58    61    1
   129    91    89   am
   130    83    82    1
   131   139   137   ar
   132    65    67   ar
   133    78    79    1
   134   191   189   ar
   135   191   193   ar
   136   138   136   ar
   137     9     7   ar
   138   189   192   ar
   139   128   127    2
   140    89    88    1
   141    59    60    2
   142    61    62    1
   143     8     6   ar
   144    62    64   ar
   145   169   168    2
   146   193   195   ar
   147   137   136   ar
   148   136   135    1
   149    79    82    1
   150    79    80    1
   151   192   194   ar
   152    67    68    1
   153    67    66   ar
   154     7     6   ar
   155   127   126    1
   156     6     5    1
   157   111   110    1
   158    88    85    1
   159   195   194   ar
   160   168   167    1
   161    64    66   ar
   162   126   125    1
   163   135   132    1
   164   167   166    1
   165   167   170    1
   166    80    81    2
   167    84    85    1
   168    85    86    1
   169   172   170    1
   170     5     2    1
   171   133   134    2
   172   133   132    1
   173   110   108   ar
   174   110   109   ar
   175   108   106   ar
   176   132   131    1
   177   125   124    1
   178   170   171    1
   179     2     1    1
   180     2     3    1
   181   109   107   ar
   182   124   121    1
   183    86    87    2
   184    86    92   am
   185   106   105   ar
   186    92    93    1
   187   119   117    1
   188   148   147    1
   189    98    97    1
   190     3     4    2
   191   123   122    2
   192   107   105   ar
   193   121   122    1
   194   121   120    1
   195   118   116    1
   196   105   104    1
   197   116   117    1
   198   116   113    1
   199   165   164    1
   200    93    96    1
   201    93    94    1
   202   147   144    1
   203   163   164   ar
   204   163   161   ar
   205    97    96    1
   206    97    99    1
   207   100   101    1
   208   115   114    2
   209   164   162   ar
   210   104   101    1
   211    94    95    2
   212   161   159   ar
   213   143   144    1
   214   114   113    1
   215   101   102    1
   216   144   145    1
   217   113   112    1
   218   162   160   ar
   219   159   160   ar
   220   159   158    1
   221   145   149   am
   222   145   146    2
   223   102   103    2
   224   152   151    2
   225   149   150    1
   226   156   157    2
   227   156   155    1
   228   158   155    1
   229   151   150    1
   230   155   154    1
   231   150   153    1
