@<TRIPOS>MOLECULE
tmp/3kwwA04.pdb
 106 103 0 0 0
SMALL
GASTEIGER

@<TRIPOS>ATOM
      1  N          0.5660   24.4170   30.8880 N.3     1  GLY1       -0.1210
      2  CA         1.4940   25.5760   31.0220 C.3     1  GLY1        0.1956
      3  C          2.8050   25.3640   30.2850 C.2     1  GLY1        0.2613
      4  O          2.8280   25.2870   29.0550 O.2     1  GLY1       -0.2717
      5  N          3.8940   25.2680   31.0440 N.am    2  SER2       -0.1938
      6  CA         5.2360   25.1050   30.4790 C.3     2  SER2        0.2055
      7  C          5.5020   23.6500   30.0980 C.2     2  SER2        0.2643
      8  O          4.8920   22.7380   30.6550 O.2     2  SER2       -0.2714
      9  CB         6.2920   25.5970   31.4700 C.3     2  SER2        0.2130
     10  OG         6.0630   26.9530   31.8090 O.3     2  SER2       -0.2179
     11  N          6.4130   23.4390   29.1500 N.am    3  HIS3       -0.1973
     12  CA         6.7090   22.0950   28.6590 C.3     3  HIS3        0.1656
     13  C          8.1790   21.8820   28.3230 C.2     3  HIS3        0.2291
     14  O          8.9110   22.8290   28.0180 O.2     3  HIS3       -0.2864
     15  CB         5.8270   21.7530   27.4510 C.3     3  HIS3        0.0771
     16  CG         4.3700   21.6560   27.7820 C.ar    3  HIS3        0.0820
     17  ND1        3.8250   20.5640   28.4230 N.ar    3  HIS3       -0.2267
     18  CD2        3.3500   22.5250   27.5880 C.ar    3  HIS3        0.1154
     19  CE1        2.5280   20.7600   28.5990 C.ar    3  HIS3        0.1986
     20  NE2        2.2150   21.9390   28.0950 N.ar    3  HIS3       -0.2212
     21  N          7.8580   16.1370   29.1400 N.3    29  ASP29      -0.1225
     22  CA         7.5440   16.3490   30.5470 C.3    29  ASP29       0.1805
     23  C          7.7690   15.0390   31.2930 C.2    29  ASP29       0.2597
     24  O          8.8670   14.4880   31.2240 O.2    29  ASP29      -0.2718
     25  CB         6.1150   16.8780   30.7140 C.3    29  ASP29       0.1424
     26  CG         5.8700   18.1270   29.9040 C.2    29  ASP29       0.3668
     27  OD1        6.7620   19.0020   29.8940 O.co2  29  ASP29      -0.2456
     28  OD2        4.7990   18.2300   29.2770 O.co2  29  ASP29      -0.2456
     29  N          6.7350   14.5210   31.9590 N.am   30  ASP30      -0.1974
     30  CA         6.8700   13.2940   32.7380 C.3    30  ASP30       0.1709
     31  C          6.3710   12.0520   31.9900 C.2    30  ASP30       0.2293
     32  O          6.0800   11.0240   32.6020 O.2    30  ASP30      -0.2864
     33  CB         6.1850   13.4560   34.1080 C.3    30  ASP30       0.1436
     34  CG         6.8350   14.5390   34.9500 C.2    30  ASP30       0.3671
     35  OD1        8.0700   14.6980   34.8730 O.co2  30  ASP30      -0.2456
     36  OD2        6.1220   15.2440   35.6830 O.co2  30  ASP30      -0.2456
     37  N         -0.8540   14.9140   27.3550 N.3   179  LEU179     -0.1231
     38  CA         0.2980   15.7940   27.6010 C.3   179  LEU179      0.1693
     39  C         -0.1080   17.1830   28.0720 C.2   179  LEU179      0.2592
     40  O          0.5980   17.8050   28.8640 O.2   179  LEU179     -0.2718
     41  CB         1.1930   15.9060   26.3540 C.3   179  LEU179      0.0284
     42  CG         1.8310   14.6330   25.7890 C.3   179  LEU179      0.0019
     43  CD1        2.7280   14.9750   24.5970 C.3   179  LEU179      0.0001
     44  CD2        2.6170   13.8700   26.8670 C.3   179  LEU179      0.0001
     45  N         -1.2460   17.6590   27.5810 N.am  180  GLN180     -0.1966
     46  CA        -1.7550   18.9670   27.9570 C.3   180  GLN180      0.1733
     47  C         -2.9890   18.8280   28.8510 C.2   180  GLN180      0.2616
     48  O         -3.8600   19.6930   28.8630 O.2   180  GLN180     -0.2715
     49  CB        -2.0690   19.8030   26.7140 C.3   180  GLN180      0.0408
     50  CG        -0.8720   20.0410   25.7980 C.3   180  GLN180      0.0908
     51  CD        -1.1680   21.0750   24.7360 C.2   180  GLN180      0.2608
     52  OE1       -1.4090   22.2400   25.0490 O.2   180  GLN180     -0.2717
     53  NE2       -1.1580   20.6570   23.4740 N.am  180  GLN180     -0.0878
     54  N         -3.0470   17.7260   29.5940 N.am  181  ARG181     -0.1963
     55  CA        -4.0850   17.5100   30.5920 C.3   181  ARG181      0.1729
     56  C         -3.4260   17.2700   31.9450 C.2   181  ARG181      0.2616
     57  O         -2.6440   16.3240   32.1150 O.2   181  ARG181     -0.2715
     58  CB        -4.9700   16.3190   30.2100 C.3   181  ARG181      0.0348
     59  CG        -6.2360   16.1730   31.0590 C.3   181  ARG181      0.0492
     60  CD        -6.9430   14.8470   30.7820 C.3   181  ARG181      0.2205
     61  NE        -6.3250   13.7160   31.4820 N.pl3 181  ARG181     -0.0865
     62  CZ        -5.9420   12.5750   30.9050 C.cat 181  ARG181      0.5346
     63  NH1       -6.1030   12.3840   29.6020 N.pl3 181  ARG181      0.1354
     64  NH2       -5.4140   11.6060   31.6440 N.pl3 181  ARG181      0.1354
     65  N         -3.7310   18.1460   32.8970 N.am  182  ALA182     -0.1977
     66  CA        -3.2800   17.9600   34.2650 C.3   182  ALA182      0.1597
     67  C         -4.3540   17.2330   35.0670 C.2   182  ALA182      0.2287
     68  O         -5.5010   17.6750   35.1370 O.2   182  ALA182     -0.2864
     69  CB        -2.9170   19.2910   34.9120 C.3   182  ALA182      0.0319
     70  N         -1.0000   13.9910   37.6260 N.3   209  TYR209     -0.1228
     71  CA        -0.1000   14.2470   36.5120 C.3   209  TYR209      0.1721
     72  C         -0.1540   15.7440   36.1970 C.2   209  TYR209      0.2437
     73  O         -1.2490   16.2990   36.0500 O.2   209  TYR209     -0.2733
     74  CB        -0.4810   13.4350   35.2580 C.3   209  TYR209      0.0547
     75  CG         0.5130   13.6630   34.1330 C.ar  209  TYR209     -0.0200
     76  CD1        1.6080   12.8170   33.9630 C.ar  209  TYR209     -0.0009
     77  CD2        0.3850   14.7650   33.2720 C.ar  209  TYR209     -0.0009
     78  CE1        2.5490   13.0540   32.9600 C.ar  209  TYR209      0.0417
     79  CE2        1.3170   15.0120   32.2820 C.ar  209  TYR209      0.0417
     80  CZ         2.3940   14.1490   32.1290 C.ar  209  TYR209      0.1957
     81  OH         3.3070   14.3840   31.1350 O.3   209  TYR209     -0.2866
     82  N          1.0160   16.4030   36.0530 N.am  210  PRO210     -0.2729
     83  CA         2.3890   15.8780   36.1520 C.3   210  PRO210      0.1401
     84  C          2.8660   15.5960   37.5880 C.2   210  PRO210      0.2269
     85  O          2.1100   15.7900   38.5440 O.2   210  PRO210     -0.2865
     86  CB         3.2360   16.9790   35.5000 C.3   210  PRO210      0.0296
     87  CG         2.4730   18.2170   35.6730 C.3   210  PRO210      0.0237
     88  CD         1.0000   17.8400   35.7130 C.3   210  PRO210      0.0939
     89  N          5.1700   17.0770   39.4240 N.3   212  GLU212     -0.1245
     90  CA         5.3600   18.2770   40.2500 C.3   212  GLU212      0.1567
     91  C          4.1820   18.5060   41.2010 C.2   212  GLU212      0.2260
     92  O          3.0330   18.6390   40.7720 O.2   212  GLU212     -0.2867
     93  CB         5.5910   19.5150   39.3730 C.3   212  GLU212      0.0388
     94  CG         5.8250   20.8240   40.1420 C.3   212  GLU212      0.1160
     95  CD         7.0410   20.7760   41.0640 C.2   212  GLU212      0.3649
     96  OE1        8.0740   20.1790   40.6810 O.co2 212  GLU212     -0.2457
     97  OE2        6.9650   21.3450   42.1740 O.co2 212  GLU212     -0.2457
     98  N         -0.8730   21.6970   39.6720 N.3   264  GLU264     -0.1245
     99  CA        -1.3870   22.4830   38.5500 C.3   264  GLU264      0.1567
    100  C         -2.7620   22.0160   38.0520 C.2   264  GLU264      0.2260
    101  O         -3.4860   22.7800   37.4150 O.2   264  GLU264     -0.2867
    102  CB        -0.3590   22.5710   37.4070 C.3   264  GLU264      0.0388
    103  CG        -0.3080   21.3770   36.4760 C.3   264  GLU264      0.1160
    104  CD         0.3560   21.7050   35.1470 C.2   264  GLU264      0.3649
    105  OE1        1.5960   21.5980   35.0640 O.co2 264  GLU264     -0.2457
    106  OE2       -0.3640   22.0690   34.1880 O.co2 264  GLU264     -0.2457
@<TRIPOS>BOND
     1    53    51   am
     2    43    42    1
     3    51    52    2
     4    51    50    1
     5    42    41    1
     6    42    44    1
     7    50    49    1
     8    41    38    1
     9    49    46    1
    10    37    38    1
    11    15    16    1
    12    15    12    1
    13    45    46    1
    14    45    39   am
    15    18    16   ar
    16    18    20   ar
    17    38    39    1
    18    16    17   ar
    19    46    47    1
    20    14    13    2
    21    39    40    2
    22    20    19   ar
    23    13    12    1
    24    17    19   ar
    25    12    11    1
    26    47    48    2
    27    47    54   am
    28     4     3    2
    29    21    22    1
    30    11     7   am
    31    28    26   ar
    32    54    55    1
    33    63    62    1
    34    27    26   ar
    35    26    25    1
    36     7     6    1
    37     7     8    2
    38    58    55    1
    39    58    59    1
    40     3     2    1
    41     3     5   am
    42     6     5    1
    43     6     9    1
    44    22    25    1
    45    22    23    1
    46    55    56    1
    47    60    59    1
    48    60    61    1
    49     1     2    1
    50    62    61    2
    51    62    64    1
    52    81    80    1
    53    24    23    2
    54    23    29   am
    55     9    10    1
    56    56    57    2
    57    56    65   am
    58    29    30    1
    59    31    32    2
    60    31    30    1
    61    80    79   ar
    62    80    78   ar
    63    79    77   ar
    64    30    33    1
    65    65    66    1
    66    78    76   ar
    67    77    75   ar
    68    76    75   ar
    69    33    34    1
    70    75    74    1
    71   106   104   ar
    72    66    69    1
    73    66    67    1
    74    35    34   ar
    75    34    36   ar
    76   105   104   ar
    77    67    68    2
    78   104   103    1
    79    74    71    1
    80    86    87    1
    81    86    83    1
    82    87    88    1
    83    88    82    1
    84    73    72    2
    85    82    83    1
    86    82    72   am
    87    83    84    1
    88    72    71    1
    89   103   102    1
    90    71    70    1
    91   102    99    1
    92   101   100    2
    93    84    85    2
    94   100    99    1
    95    99    98    1
    96    93    94    1
    97    93    90    1
    98    89    90    1
    99    94    95    1
   100    90    91    1
   101    96    95   ar
   102    92    91    2
   103    95    97   ar
