@<TRIPOS>MOLECULE
tmp/3kwyA01.pdb
 159 151 0 0 0
SMALL
GASTEIGER

@<TRIPOS>ATOM
      1  N         -0.8750  -25.6520   35.6110 N.3    19  VAL19      -0.1245
      2  CA        -0.3800  -25.2060   34.2970 C.3    19  VAL19       0.1561
      3  C         -0.9910  -26.0080   33.1270 C.2    19  VAL19       0.2260
      4  O         -1.3310  -25.4510   32.0730 O.2    19  VAL19      -0.2867
      5  CB         1.1720  -25.1890   34.2100 C.3    19  VAL19       0.0252
      6  CG1        1.6190  -24.5650   32.9000 C.3    19  VAL19       0.0019
      7  CG2        1.7690  -24.4050   35.3760 C.3    19  VAL19       0.0019
      8  N         -4.6630  -24.6330   32.8860 N.3    22  ILE22      -0.1231
      9  CA        -4.6240  -23.3110   32.2700 C.3    22  ILE22       0.1692
     10  C         -4.4490  -23.4200   30.7550 C.2    22  ILE22       0.2592
     11  O         -5.1220  -22.7050   30.0060 O.2    22  ILE22      -0.2718
     12  CB        -3.5000  -22.4210   32.9250 C.3    22  ILE22       0.0266
     13  CG1       -3.9760  -21.8850   34.2820 C.3    22  ILE22       0.0019
     14  CG2       -3.0130  -21.2860   31.9790 C.3    22  ILE22       0.0020
     15  CD1       -2.8840  -21.2550   35.1130 C.3    22  ILE22       0.0001
     16  N         -3.5580  -24.3180   30.3170 N.am   23  CYS23      -0.1970
     17  CA        -3.2600  -24.5180   28.8930 C.3    23  CYS23       0.1712
     18  C         -4.4190  -25.1090   28.0990 C.2    23  CYS23       0.2296
     19  O         -4.7260  -24.6210   27.0090 O.2    23  CYS23      -0.2864
     20  CB        -1.9890  -25.3580   28.6920 C.3    23  CYS23       0.0983
     21  SG        -0.4680  -24.4530   29.0760 S.3    23  CYS23      -0.0798
     22  N         -6.9660  -22.4980   27.7070 N.3    26  ALA26      -0.1245
     23  CA        -6.5500  -21.4900   26.7280 C.3    26  ALA26       0.1562
     24  C         -6.7700  -21.9740   25.2820 C.2    26  ALA26       0.2260
     25  O         -7.3150  -21.2300   24.4630 O.2    26  ALA26      -0.2867
     26  CB        -5.0980  -21.0660   26.9560 C.3    26  ALA26       0.0290
     27  N         -4.0030  -12.1350   20.8760 N.3    59  TRP59      -0.1227
     28  CA        -4.7060  -13.2710   21.5130 C.3    59  TRP59       0.1737
     29  C         -4.4560  -13.4380   23.0220 C.2    59  TRP59       0.2595
     30  O         -5.3990  -13.6760   23.7870 O.2    59  TRP59      -0.2718
     31  CB        -4.4160  -14.6030   20.7720 C.3    59  TRP59       0.0564
     32  CG        -2.9760  -15.1000   20.9130 C.ar   59  TRP59       0.0003
     33  CD1       -1.9170  -14.7900   20.1110 C.ar   59  TRP59       0.0946
     34  CD2       -2.4680  -15.9800   21.9230 C.ar   59  TRP59       0.0152
     35  NE1       -0.7700  -15.4060   20.5750 N.ar   59  TRP59      -0.2442
     36  CE2       -1.0900  -16.1540   21.6760 C.ar   59  TRP59       0.0810
     37  CE3       -3.0470  -16.6350   23.0210 C.ar   59  TRP59       0.0012
     38  CZ2       -0.2770  -16.9460   22.4960 C.ar   59  TRP59       0.0191
     39  CZ3       -2.2490  -17.4210   23.8240 C.ar   59  TRP59       0.0001
     40  CH2       -0.8750  -17.5750   23.5580 C.ar   59  TRP59       0.0015
     41  N         -3.2030  -13.3290   23.4570 N.am   60  ASN60      -0.1974
     42  CA        -2.8870  -13.5920   24.8670 C.3    60  ASN60       0.1688
     43  C         -3.4400  -12.5450   25.8200 C.2    60  ASN60       0.2292
     44  O         -3.9120  -12.8800   26.8980 O.2    60  ASN60      -0.2864
     45  CB        -1.3790  -13.8500   25.1050 C.3    60  ASN60       0.1181
     46  CG        -0.5090  -12.7440   24.5680 C.2    60  ASN60       0.2629
     47  OD1       -0.6220  -12.3700   23.4040 O.2    60  ASN60      -0.2716
     48  ND2        0.3530  -12.2010   25.4090 N.am   60  ASN60      -0.0877
     49  N         -7.3330  -13.0170   25.9990 N.3    63  LEU63      -0.1231
     50  CA        -7.6600  -14.1370   26.9120 C.3    63  LEU63       0.1693
     51  C         -7.4840  -13.7790   28.3800 C.2    63  LEU63       0.2591
     52  O         -8.3140  -14.1650   29.2110 O.2    63  LEU63      -0.2718
     53  CB        -6.8270  -15.3900   26.6130 C.3    63  LEU63       0.0284
     54  CG        -7.0640  -16.1490   25.2960 C.3    63  LEU63       0.0019
     55  CD1       -6.5960  -17.6000   25.4640 C.3    63  LEU63       0.0001
     56  CD2       -8.5200  -16.1080   24.8620 C.3    63  LEU63       0.0001
     57  N         -6.3860  -13.0890   28.6980 N.am   64  ILE64      -0.1980
     58  CA        -6.1590  -12.6290   30.0620 C.3    64  ILE64       0.1595
     59  C         -7.2800  -11.6790   30.5390 C.2    64  ILE64       0.2287
     60  O         -7.7790  -11.8020   31.6680 O.2    64  ILE64      -0.2864
     61  CB        -4.7430  -11.9950   30.2190 C.3    64  ILE64       0.0276
     62  CG1       -3.6620  -13.0820   30.1460 C.3    64  ILE64       0.0022
     63  CG2       -4.6220  -11.2350   31.5320 C.3    64  ILE64       0.0022
     64  CD1       -2.3270  -12.5600   29.6520 C.3    64  ILE64       0.0001
     65  N        -10.4740  -13.9370   31.4240 N.3    67  PHE67      -0.1241
     66  CA       -10.4950  -14.7440   32.6490 C.3    67  PHE67       0.1605
     67  C        -10.3820  -13.9190   33.9230 C.2    67  PHE67       0.2264
     68  O        -10.8970  -14.3300   34.9540 O.2    67  PHE67      -0.2867
     69  CB        -9.5880  -16.0130   32.6210 C.3    67  PHE67       0.0534
     70  CG        -8.0930  -15.7500   32.5330 C.ar   67  PHE67      -0.0203
     71  CD1       -7.4100  -15.0660   33.5430 C.ar   67  PHE67      -0.0042
     72  CD2       -7.3590  -16.2640   31.4660 C.ar   67  PHE67      -0.0042
     73  CE1       -6.0190  -14.8730   33.4670 C.ar   67  PHE67      -0.0003
     74  CE2       -5.9730  -16.0890   31.3720 C.ar   67  PHE67      -0.0003
     75  CZ        -5.3010  -15.3950   32.3700 C.ar   67  PHE67      -0.0000
     76  N         -8.8590  -17.7820   40.3300 N.3    78  ILE78      -0.1245
     77  CA        -9.2960  -17.5350   38.9530 C.3    78  ILE78       0.1561
     78  C        -10.2980  -18.5780   38.4630 C.2    78  ILE78       0.2260
     79  O        -10.0870  -19.7840   38.6470 O.2    78  ILE78      -0.2867
     80  CB        -8.0610  -17.3710   37.9880 C.3    78  ILE78       0.0252
     81  CG1       -7.6230  -15.9050   37.9740 C.3    78  ILE78       0.0019
     82  CG2       -8.3740  -17.8020   36.5600 C.3    78  ILE78       0.0019
     83  CD1       -6.1870  -15.7580   37.9020 C.3    78  ILE78       0.0001
     84  N        -11.6470  -20.4910   35.4390 N.3    80  LEU80      -0.1245
     85  CA       -11.3540  -20.9160   34.0750 C.3    80  LEU80       0.1561
     86  C        -12.6340  -21.2420   33.3030 C.2    80  LEU80       0.2260
     87  O        -13.6460  -21.6150   33.8920 O.2    80  LEU80      -0.2867
     88  CB       -10.4160  -22.1320   34.0620 C.3    80  LEU80       0.0270
     89  CG        -9.0130  -22.0800   34.6770 C.3    80  LEU80       0.0019
     90  CD1       -8.3710  -23.4610   34.6250 C.3    80  LEU80       0.0001
     91  CD2       -8.0930  -21.0390   34.0180 C.3    80  LEU80       0.0001
     92  N          4.3020  -20.9950   39.8400 N.3    96  VAL96      -0.1245
     93  CA         3.7850  -19.8310   39.0850 C.3    96  VAL96       0.1561
     94  C          3.0290  -18.7680   39.9490 C.2    96  VAL96       0.2260
     95  O          2.1760  -18.0180   39.4370 O.2    96  VAL96      -0.2867
     96  CB         2.9260  -20.2850   37.8560 C.3    96  VAL96       0.0252
     97  CG1        3.7460  -21.2160   36.9140 C.3    96  VAL96       0.0019
     98  CG2        1.6540  -20.9960   38.2920 C.3    96  VAL96       0.0019
     99  N          3.4190  -14.5340   38.8200 N.3    99  ILE99      -0.1231
    100  CA         2.5390  -14.1030   37.7270 C.3    99  ILE99       0.1692
    101  C          1.0300  -14.1450   38.0840 C.2    99  ILE99       0.2592
    102  O          0.2590  -13.2370   37.7140 O.2    99  ILE99      -0.2718
    103  CB         2.8540  -14.8480   36.3730 C.3    99  ILE99       0.0266
    104  CG1        2.1410  -14.1710   35.1970 C.3    99  ILE99       0.0019
    105  CG2        2.4840  -16.3620   36.4380 C.3    99  ILE99       0.0020
    106  CD1        2.4990  -14.7900   33.8790 C.3    99  ILE99       0.0001
    107  N          0.6280  -15.1860   38.8060 N.am  100  PHE100     -0.1976
    108  CA        -0.7580  -15.3470   39.2830 C.3   100  PHE100      0.1639
    109  C         -1.1890  -14.1770   40.1640 C.2   100  PHE100      0.2290
    110  O         -2.2680  -13.6170   39.9790 O.2   100  PHE100     -0.2864
    111  CB        -0.8930  -16.6450   40.0730 C.3   100  PHE100      0.0560
    112  CG        -2.2980  -17.1820   40.1400 C.ar  100  PHE100     -0.0200
    113  CD1       -2.7760  -18.0310   39.1420 C.ar  100  PHE100     -0.0042
    114  CD2       -3.1320  -16.8720   41.2230 C.ar  100  PHE100     -0.0042
    115  CE1       -4.0520  -18.5590   39.2060 C.ar  100  PHE100     -0.0003
    116  CE2       -4.4230  -17.3910   41.3030 C.ar  100  PHE100     -0.0003
    117  CZ        -4.8900  -18.2410   40.2940 C.ar  100  PHE100     -0.0000
    118  N         -1.8050  -10.8830   38.1260 N.3   103  VAL103     -0.1245
    119  CA        -3.1740  -10.9030   37.6040 C.3   103  VAL103      0.1561
    120  C         -4.2000  -10.5390   38.6900 C.2   103  VAL103      0.2260
    121  O         -5.0680   -9.6870   38.4720 O.2   103  VAL103     -0.2867
    122  CB        -3.5220  -12.2400   36.9230 C.3   103  VAL103      0.0252
    123  CG1       -5.0010  -12.3510   36.6570 C.3   103  VAL103      0.0019
    124  CG2       -2.7740  -12.3590   35.6310 C.3   103  VAL103      0.0019
    125  N          3.4150  -13.9410   30.6250 N.3   186  CYS186     -0.1235
    126  CA         2.7150  -15.1840   30.2990 C.3   186  CYS186      0.1677
    127  C          3.2870  -15.9040   29.0980 C.2   186  CYS186      0.2270
    128  O          3.4630  -17.1100   29.1510 O.2   186  CYS186     -0.2867
    129  CB         1.2250  -14.9230   30.0830 C.3   186  CYS186      0.0956
    130  SG         0.3160  -14.6390   31.6240 S.3   186  CYS186     -0.0801
    131  N          6.5160  -17.7340   29.9370 N.3   189  HIS189     -0.1226
    132  CA         6.1850  -18.9620   30.6580 C.3   189  HIS189      0.1752
    133  C          5.7170  -20.0390   29.7010 C.2   189  HIS189      0.2595
    134  O          6.1420  -21.1820   29.8300 O.2   189  HIS189     -0.2718
    135  CB         5.1070  -18.7300   31.7210 C.3   189  HIS189      0.0759
    136  CG         5.5980  -18.0360   32.9540 C.ar  189  HIS189      0.0818
    137  ND1        6.1500  -18.7110   34.0210 N.ar  189  HIS189     -0.2268
    138  CD2        5.5990  -16.7260   33.2990 C.ar  189  HIS189      0.1154
    139  CE1        6.4830  -17.8430   34.9610 C.ar  189  HIS189      0.1986
    140  NE2        6.1580  -16.6330   34.5470 N.ar  189  HIS189     -0.2212
    141  N          4.8560  -19.6820   28.7410 N.am  190  LEU190     -0.1980
    142  CA         4.3480  -20.6560   27.7720 C.3   190  LEU190      0.1596
    143  C          5.4540  -21.2450   26.8950 C.2   190  LEU190      0.2287
    144  O          5.4020  -22.4300   26.5670 O.2   190  LEU190     -0.2864
    145  CB         3.2440  -20.0720   26.8950 C.3   190  LEU190      0.0297
    146  CG         1.8780  -19.7720   27.5260 C.3   190  LEU190      0.0022
    147  CD1        1.1460  -18.7310   26.7020 C.3   190  LEU190      0.0001
    148  CD2        1.0510  -21.0430   27.6770 C.3   190  LEU190      0.0001
    149  N          7.1690  -23.7860   29.0730 N.3   193  PHE193     -0.1241
    150  CA         6.3570  -24.9960   29.2200 C.3   193  PHE193      0.1605
    151  C          6.4370  -25.8630   27.9660 C.2   193  PHE193      0.2264
    152  O          6.4580  -27.0920   28.0520 O.2   193  PHE193     -0.2867
    153  CB         4.8970  -24.6670   29.5550 C.3   193  PHE193      0.0534
    154  CG         4.0770  -25.8740   29.9250 C.ar  193  PHE193     -0.0203
    155  CD1        4.3280  -26.5690   31.1110 C.ar  193  PHE193     -0.0042
    156  CD2        3.0550  -26.3290   29.0820 C.ar  193  PHE193     -0.0042
    157  CE1        3.5680  -27.7080   31.4580 C.ar  193  PHE193     -0.0003
    158  CE2        2.2860  -27.4600   29.4280 C.ar  193  PHE193     -0.0003
    159  CZ         2.5540  -28.1490   30.6230 C.ar  193  PHE193     -0.0000
@<TRIPOS>BOND
     1    33    35   ar
     2    33    32   ar
     3    35    36   ar
     4    31    32    1
     5    31    28    1
     6    27    28    1
     7    32    34   ar
     8    28    29    1
     9    36    34   ar
    10    36    38   ar
    11    34    37   ar
    12    38    40   ar
    13    37    39   ar
    14    29    41   am
    15    29    30    2
    16    47    46    2
    17    41    42    1
    18    40    39   ar
    19    25    24    2
    20    46    45    1
    21    46    48   am
    22    56    54    1
    23    42    45    1
    24    42    43    1
    25    24    23    1
    26    54    55    1
    27    54    53    1
    28    43    44    2
    29    49    50    1
    30   144   143    2
    31    53    50    1
    32   147   146    1
    33    23    26    1
    34    23    22    1
    35   145   146    1
    36   145   142    1
    37   143   142    1
    38    50    51    1
    39    19    18    2
    40   146   148    1
    41   142   141    1
    42   151   152    2
    43   151   150    1
    44    18    17    1
    45    51    57   am
    46    51    52    2
    47    20    17    1
    48    20    21    1
    49    57    58    1
    50   141   133   am
    51    17    16    1
    52   149   150    1
    53   156   158   ar
    54   156   154   ar
    55   127   128    2
    56   127   126    1
    57   150   153    1
    58   158   159   ar
    59   153   154    1
    60    64    62    1
    61   133   134    2
    62   133   132    1
    63   154   155   ar
    64   131   132    1
    65    11    10    2
    66    58    61    1
    67    58    59    1
    68   129   126    1
    69   129   130    1
    70    62    61    1
    71    61    63    1
    72   126   125    1
    73    16    10   am
    74    59    60    2
    75   159   157   ar
    76   132   135    1
    77    10     9    1
    78   155   157   ar
    79    74    72   ar
    80    74    75   ar
    81    65    66    1
    82    72    70   ar
    83   135   136    1
    84    14    12    1
    85     4     3    2
    86     9     8    1
    87     9    12    1
    88    75    73   ar
    89    70    69    1
    90    70    71   ar
    91    69    66    1
    92    66    67    1
    93     6     5    1
    94    12    13    1
    95   136   138   ar
    96   136   137   ar
    97     3     2    1
    98   138   140   ar
    99    86    87    2
   100    86    85    1
   101    73    71   ar
   102   106   104    1
   103    67    68    2
   104    91    89    1
   105   137   139   ar
   106    88    85    1
   107    88    89    1
   108    85    84    1
   109     5     2    1
   110     5     7    1
   111    13    15    1
   112     2     1    1
   113   140   139   ar
   114    90    89    1
   115   104   103    1
   116   124   122    1
   117   103   105    1
   118   103   100    1
   119    82    80    1
   120   123   122    1
   121    97    96    1
   122   122   119    1
   123   119   118    1
   124   119   120    1
   125   102   101    2
   126   100   101    1
   127   100    99    1
   128    96    98    1
   129    96    93    1
   130    83    81    1
   131    81    80    1
   132    80    77    1
   133   101   107   am
   134    78    79    2
   135    78    77    1
   136   121   120    2
   137   107   108    1
   138    77    76    1
   139    93    92    1
   140    93    94    1
   141   113   115   ar
   142   113   112   ar
   143   115   117   ar
   144   108   111    1
   145   108   109    1
   146    95    94    2
   147   110   109    2
   148   111   112    1
   149   112   114   ar
   150   117   116   ar
   151   114   116   ar
