@<TRIPOS>MOLECULE
tmp/3kwzA00.pdb
 130 124 0 0 0
SMALL
GASTEIGER

@<TRIPOS>ATOM
      1  N          0.7270  -14.6700    2.5800 N.3    19  GLN19      -0.1245
      2  CA         1.7600  -13.6090    2.6150 C.3    19  GLN19       0.1566
      3  C          1.8380  -12.7430    1.3240 C.2    19  GLN19       0.2260
      4  O          2.4400  -11.6780    1.2830 O.2    19  GLN19      -0.2867
      5  CB         3.1050  -14.2710    2.9190 C.3    19  GLN19       0.0367
      6  CG         3.6220  -15.1670    1.8420 C.3    19  GLN19       0.0905
      7  CD         4.8470  -16.0340    2.2430 C.2    19  GLN19       0.2608
      8  OE1        5.8250  -15.9940    1.5340 O.2    19  GLN19      -0.2717
      9  NE2        4.7610  -16.8480    3.2880 N.am   19  GLN19      -0.0878
     10  N          8.0960  -12.0320    1.1950 N.3    23  GLY23      -0.1225
     11  CA         8.8350  -13.1130    1.8650 C.3    23  GLY23       0.1811
     12  C          8.7620  -12.9950    3.4030 C.2    23  GLY23       0.2280
     13  O          9.7630  -13.0260    4.0600 O.2    23  GLY23      -0.2866
     14  N          7.0370  -15.2200    5.4610 N.3    25  CYS25      -0.1235
     15  CA         6.7500  -16.5040    6.0540 C.3    25  CYS25       0.1677
     16  C          7.1600  -16.5660    7.5390 C.2    25  CYS25       0.2270
     17  O          6.4500  -17.1470    8.3490 O.2    25  CYS25      -0.2867
     18  CB         7.4670  -17.6540    5.3320 C.3    25  CYS25       0.0956
     19  SG         9.2680  -17.6550    5.3070 S.3    25  CYS25      -0.0801
     20  N         10.3660   -8.3610    3.7510 N.3    63  CYS63      -0.1221
     21  CA         9.8860   -9.2630    2.6850 C.3    63  CYS63       0.1808
     22  C         11.0010  -10.0650    1.9780 C.2    63  CYS63       0.2602
     23  O         10.7370  -10.8720    1.0990 O.2    63  CYS63      -0.2717
     24  CB         9.0710   -8.4550    1.6450 C.3    63  CYS63       0.0970
     25  SG         7.4860   -7.8220    2.2410 S.3    63  CYS63      -0.0800
     26  N         12.2440   -9.8590    2.3990 N.am   64  GLY64      -0.1942
     27  CA        13.3680  -10.6600    1.9750 C.3    64  GLY64       0.2014
     28  C         13.6980  -11.8430    2.8500 C.2    64  GLY64       0.2639
     29  O         14.7230  -12.5070    2.6500 O.2    64  GLY64      -0.2714
     30  N         12.8870  -12.1020    3.8570 N.am   65  GLY65      -0.1939
     31  CA        13.1480  -13.2280    4.7610 C.3    65  GLY65       0.2014
     32  C         13.5600  -12.7910    6.1690 C.2    65  GLY65       0.2639
     33  O         13.7260  -11.5980    6.4560 O.2    65  GLY65      -0.2714
     34  N         13.7620  -13.7930    7.0130 N.am   66  GLY66      -0.1939
     35  CA        13.9570  -13.6110    8.4600 C.3    66  GLY66       0.2014
     36  C         13.8290  -14.8620    9.2750 C.2    66  GLY66       0.2639
     37  O         13.4570  -15.9030    8.8020 O.2    66  GLY66      -0.2714
     38  N         14.0890  -14.7090   10.5720 N.am   67  TYR67      -0.1959
     39  CA        14.0650  -15.7570   11.5730 C.3    67  TYR67       0.1771
     40  C         13.0200  -15.4800   12.6280 C.2    67  TYR67       0.2619
     41  O         12.7480  -14.3600   13.0130 O.2    67  TYR67      -0.2715
     42  CB        15.4130  -15.8500   12.2460 C.3    67  TYR67       0.0574
     43  CG        16.4900  -16.2880   11.3330 C.ar   67  TYR67      -0.0198
     44  CD1       17.5440  -15.4400   11.0000 C.ar   67  TYR67      -0.0009
     45  CD2       16.4660  -17.5580   10.7970 C.ar   67  TYR67      -0.0009
     46  CE1       18.5590  -15.8590   10.1730 C.ar   67  TYR67       0.0417
     47  CE2       17.4690  -17.9930    9.9710 C.ar   67  TYR67       0.0417
     48  CZ        18.5130  -17.1340    9.6610 C.ar   67  TYR67       0.1957
     49  OH        19.4780  -17.5640    8.8300 O.3    67  TYR67      -0.2866
     50  N         12.4020  -16.5480   13.0930 N.am   68  MET68      -0.1977
     51  CA        11.3620  -16.4500   14.0990 C.3    68  MET68       0.1605
     52  C         11.9170  -15.9880   15.4460 C.2    68  MET68       0.2287
     53  O         11.3100  -15.1880   16.0930 O.2    68  MET68      -0.2864
     54  CB        10.6170  -17.7920   14.1890 C.3    68  MET68       0.0413
     55  CG         9.8960  -18.1670   12.8840 C.3    68  MET68       0.0598
     56  SD        11.0180  -18.8670   11.7430 S.3    68  MET68      -0.1393
     57  CE        10.9470  -20.5680   12.2830 C.3    68  MET68       0.0692
     58  N         11.5510  -24.3140   10.6480 N.3   134  ALA134     -0.1245
     59  CA        12.0950  -23.9630    9.3580 C.3   134  ALA134      0.1562
     60  C         12.3000  -25.2290    8.6060 C.2   134  ALA134      0.2260
     61  O         12.6230  -26.2700    9.1890 O.2   134  ALA134     -0.2867
     62  CB        13.3970  -23.2360    9.5090 C.3   134  ALA134      0.0290
     63  N         11.8490  -25.8310   -1.0240 N.3   138  SER138     -0.1217
     64  CA        12.2360  -25.4630   -2.4120 C.3   138  SER138      0.1889
     65  C         11.7580  -26.4050   -3.5230 C.2   138  SER138      0.2288
     66  O         11.7460  -26.0430   -4.6930 O.2   138  SER138     -0.2866
     67  CB        13.7410  -25.2740   -2.5470 C.3   138  SER138      0.2089
     68  OG        14.4200  -26.5030   -2.3740 O.3   138  SER138     -0.2183
     69  N          5.7550  -27.7720   -3.3180 N.3   143  GLN143     -0.1245
     70  CA         4.8410  -26.7080   -3.7600 C.3   143  GLN143      0.1566
     71  C          3.4960  -27.2270   -4.3290 C.2   143  GLN143      0.2260
     72  O          2.4280  -26.5940   -4.1050 O.2   143  GLN143     -0.2867
     73  CB         5.5520  -25.7930   -4.7350 C.3   143  GLN143      0.0367
     74  CG         6.7570  -25.1110   -4.1510 C.3   143  GLN143      0.0905
     75  CD         7.5440  -24.3690   -5.1840 C.2   143  GLN143      0.2608
     76  OE1        7.2060  -23.2530   -5.5280 O.2   143  GLN143     -0.2717
     77  NE2        8.6250  -24.9660   -5.6630 N.am  143  GLN143     -0.0878
     78  N         17.6490  -24.7220    4.8230 N.3   160  LEU160     -0.1231
     79  CA        16.4600  -24.1860    5.4510 C.3   160  LEU160      0.1693
     80  C         16.1740  -22.8340    4.8170 C.2   160  LEU160      0.2592
     81  O         16.9880  -21.9090    4.8710 O.2   160  LEU160     -0.2718
     82  CB        16.6800  -24.0320    6.9420 C.3   160  LEU160      0.0284
     83  CG        16.9680  -25.2890    7.7630 C.3   160  LEU160      0.0019
     84  CD1       17.2910  -24.8810    9.2770 C.3   160  LEU160      0.0001
     85  CD2       15.8310  -26.2790    7.6750 C.3   160  LEU160      0.0001
     86  N         15.0270  -22.7150    4.1640 N.am  161  ASN161     -0.1960
     87  CA        14.7160  -21.5170    3.3260 C.3   161  ASN161      0.1819
     88  C         13.2890  -21.0070    3.4580 C.2   161  ASN161      0.2621
     89  O         12.8860  -20.1360    2.7050 O.2   161  ASN161     -0.2715
     90  CB        14.9950  -21.8430    1.8410 C.3   161  ASN161      0.1195
     91  CG        14.3860  -23.1530    1.3960 C.2   161  ASN161      0.2630
     92  OD1       13.1630  -23.3820    1.5100 O.2   161  ASN161     -0.2716
     93  ND2       15.2160  -24.0160    0.8340 N.am  161  ASN161     -0.0877
     94  N         12.5270  -21.6150    4.3510 N.am  162  HIS162     -0.1959
     95  CA        11.1360  -21.2970    4.5190 C.3   162  HIS162      0.1787
     96  C         10.6370  -21.5980    5.9500 C.2   162  HIS162      0.2616
     97  O         10.9610  -22.6340    6.5190 O.2   162  HIS162     -0.2715
     98  CB        10.3540  -22.1060    3.5140 C.3   162  HIS162      0.0785
     99  CG         8.9220  -21.6920    3.4090 C.ar  162  HIS162      0.0821
    100  ND1        8.5440  -20.4210    3.0390 N.ar  162  HIS162     -0.2267
    101  CD2        7.7780  -22.3750    3.6340 C.ar  162  HIS162      0.1154
    102  CE1        7.2280  -20.3430    3.0460 C.ar  162  HIS162      0.1986
    103  NE2        6.7380  -21.5100    3.4070 N.ar  162  HIS162     -0.2212
    104  N          9.8420  -20.6780    6.5060 N.am  163  ALA163     -0.2030
    105  CA         9.2740  -20.7760    7.8530 C.3   163  ALA163      0.1283
    106  C          7.8150  -21.1400    7.8270 C.3   163  ALA163      0.2036
    107  O          6.9720  -20.5230    7.0740 O.3   163  ALA163     -0.2185
    108  CB         9.4700  -19.4390    8.6380 C.3   163  ALA163      0.0262
    109  N          0.8100  -19.6270    2.4380 N.3   184  TRP184     -0.1241
    110  CA         0.5750  -19.3930    0.9930 C.3   184  TRP184      0.1605
    111  C         -0.9460  -19.3700    0.6360 C.2   184  TRP184      0.2264
    112  O         -1.3030  -19.6160   -0.4880 O.2   184  TRP184     -0.2867
    113  CB         1.3180  -20.4600    0.1830 C.3   184  TRP184      0.0550
    114  CG         2.8250  -20.3260    0.2060 C.ar  184  TRP184      0.0003
    115  CD1        3.5610  -19.2360    0.5910 C.ar  184  TRP184      0.0946
    116  CD2        3.7760  -21.3220   -0.1840 C.ar  184  TRP184      0.0152
    117  NE1        4.8900  -19.4940    0.4570 N.ar  184  TRP184     -0.2442
    118  CE2        5.0490  -20.7710   -0.0100 C.ar  184  TRP184      0.0810
    119  CE3        3.6730  -22.5910   -0.6990 C.ar  184  TRP184      0.0012
    120  CZ2        6.2190  -21.4770   -0.3140 C.ar  184  TRP184      0.0191
    121  CZ3        4.8350  -23.2960   -0.9810 C.ar  184  TRP184      0.0001
    122  CH2        6.0790  -22.7410   -0.7880 C.ar  184  TRP184      0.0015
    123  N         15.6480  -26.0870   13.0720 N.3   209  LEU209     -0.1245
    124  CA        15.4870  -24.6820   13.5410 C.3   209  LEU209      0.1561
    125  C         14.0760  -24.3640   14.1260 C.2   209  LEU209      0.2260
    126  O         13.3430  -23.4180   13.6780 O.2   209  LEU209     -0.2867
    127  CB        15.9170  -23.6660   12.4310 C.3   209  LEU209      0.0270
    128  CG        16.3630  -22.2550   12.8740 C.3   209  LEU209      0.0019
    129  CD1       17.6590  -22.2460   13.7090 C.3   209  LEU209      0.0001
    130  CD2       16.4280  -21.2980   11.6810 C.3   209  LEU209      0.0001
@<TRIPOS>BOND
     1    77    75   am
     2    76    75    2
     3    75    74    1
     4    73    74    1
     5    73    70    1
     6    66    65    2
     7    71    72    2
     8    71    70    1
     9    70    69    1
    10    65    64    1
    11    67    64    1
    12    67    68    1
    13    64    63    1
    14   121   122   ar
    15   121   119   ar
    16   122   120   ar
    17   119   116   ar
    18   112   111    2
    19   120   118   ar
    20   116   118   ar
    21   116   114   ar
    22   118   117   ar
    23   113   114    1
    24   113   110    1
    25   114   115   ar
    26   117   115   ar
    27   111   110    1
    28    93    91   am
    29   110   109    1
    30    23    22    2
    31    10    11    1
    32     4     3    2
    33     3     2    1
    34    91    92    2
    35    91    90    1
    36     8     7    2
    37    24    25    1
    38    24    21    1
    39    90    87    1
    40     6     7    1
    41     6     5    1
    42    11    12    1
    43    27    26    1
    44    27    28    1
    45    22    26   am
    46    22    21    1
    47     7     9   am
    48     1     2    1
    49     2     5    1
    50    29    28    2
    51    21    20    1
    52    89    88    2
    53    28    30   am
    54   100   102   ar
    55   100    99   ar
    56   102   103   ar
    57    87    88    1
    58    87    86    1
    59    12    13    2
    60   103   101   ar
    61    99    98    1
    62    99   101   ar
    63    88    94   am
    64    98    95    1
    65    30    31    1
    66    86    80   am
    67    94    95    1
    68    95    96    1
    69    31    32    1
    70    80    81    2
    71    80    79    1
    72    78    79    1
    73    19    18    1
    74    18    15    1
    75    79    82    1
    76    14    15    1
    77    96   104   am
    78    96    97    2
    79    15    16    1
    80    32    33    2
    81    32    34   am
    82   104   105    1
    83    82    83    1
    84    34    35    1
    85   107   106    1
    86    16    17    2
    87    85    83    1
    88    83    84    1
    89   106   105    1
    90   105   108    1
    91    35    36    1
    92    60    61    2
    93    60    59    1
    94    37    36    2
    95    49    48    1
    96    36    38   am
    97    59    62    1
    98    59    58    1
    99    48    47   ar
   100    48    46   ar
   101    47    45   ar
   102    46    44   ar
   103    38    39    1
   104    45    43   ar
   105    44    43   ar
   106    43    42    1
   107    39    42    1
   108    39    40    1
   109   130   128    1
   110    56    57    1
   111    56    55    1
   112   127   128    1
   113   127   124    1
   114    40    41    2
   115    40    50   am
   116   128   129    1
   117    55    54    1
   118   123   124    1
   119    50    51    1
   120   124   125    1
   121   126   125    2
   122    51    54    1
   123    51    52    1
   124    52    53    2
