@<TRIPOS>MOLECULE
tmp/3kx1A00.pdb
 129 127 0 0 0
SMALL
GASTEIGER

@<TRIPOS>ATOM
      1  N        -14.7920    0.8260   -2.4470 N.3    17  GLN17      -0.1245
      2  CA       -13.8050    1.9030   -2.4940 C.3    17  GLN17       0.1566
      3  C        -13.0520    2.1010   -1.1640 C.2    17  GLN17       0.2260
      4  O        -12.0170    2.7250   -1.1360 O.2    17  GLN17      -0.2867
      5  CB       -14.4730    3.2120   -2.9270 C.3    17  GLN17       0.0367
      6  CG       -15.5330    3.7680   -1.9670 C.3    17  GLN17       0.0905
      7  CD       -16.1620    5.0670   -2.4310 C.2    17  GLN17       0.2608
      8  OE1      -15.6790    6.1540   -2.0640 O.2    17  GLN17      -0.2717
      9  NE2      -17.2980    4.9900   -3.1460 N.am   17  GLN17      -0.0878
     10  N        -11.9340    8.6520   -1.1440 N.3    21  GLY21      -0.1225
     11  CA       -12.9390    9.3990   -1.9250 C.3    21  GLY21       0.1811
     12  C        -12.9160    9.1790   -3.4460 C.2    21  GLY21       0.2280
     13  O        -12.8860   10.1450   -4.2210 O.2    21  GLY21      -0.2866
     14  N        -15.2760    7.2170   -5.2460 N.3    23  CYS23      -0.1221
     15  CA       -16.5780    6.8750   -5.8180 C.3    23  CYS23       0.1808
     16  C        -16.6510    7.2490   -7.3190 C.2    23  CYS23       0.2601
     17  O        -17.1790    6.4870   -8.0960 O.2    23  CYS23      -0.2717
     18  CB       -17.7030    7.5860   -5.0580 C.3    23  CYS23       0.0970
     19  SG       -17.7410    9.4050   -5.2000 S.3    23  CYS23      -0.0800
     20  N        -16.1350    8.4280   -7.6760 N.am   24  TRP24      -0.1976
     21  CA       -16.0840    8.9800   -9.0530 C.3    24  TRP24       0.1640
     22  C        -15.3240    8.0980  -10.0260 C.2    24  TRP24       0.2290
     23  O        -15.7340    7.9880  -11.1650 O.2    24  TRP24      -0.2864
     24  CB       -15.4710   10.3920   -9.0580 C.3    24  TRP24       0.0576
     25  CG       -14.0380   10.4390   -8.5800 C.ar   24  TRP24       0.0006
     26  CD1      -13.6230   10.5830   -7.2960 C.ar   24  TRP24       0.0946
     27  CD2      -12.8490   10.3260   -9.3760 C.ar   24  TRP24       0.0152
     28  NE1      -12.2550   10.5590   -7.2370 N.ar   24  TRP24      -0.2442
     29  CE2      -11.7490   10.4300   -8.4990 C.ar   24  TRP24       0.0810
     30  CE3      -12.6050   10.1380  -10.7400 C.ar   24  TRP24       0.0012
     31  CZ2      -10.4290   10.3440   -8.9410 C.ar   24  TRP24       0.0191
     32  CZ3      -11.2950   10.0510  -11.1710 C.ar   24  TRP24       0.0001
     33  CH2      -10.2280   10.1410  -10.2780 C.ar   24  TRP24       0.0015
     34  N         -8.2520   10.6550   -3.9230 N.3    61  CYS61      -0.1221
     35  CA        -9.1290   10.2240   -2.8270 C.3    61  CYS61       0.1808
     36  C         -9.9420   11.3540   -2.1510 C.2    61  CYS61       0.2602
     37  O        -10.7170   11.0870   -1.2530 O.2    61  CYS61      -0.2717
     38  CB        -8.3200    9.4380   -1.7770 C.3    61  CYS61       0.0970
     39  SG        -7.7960    7.7880   -2.2750 S.3    61  CYS61      -0.0800
     40  N         -9.7780   12.6030   -2.5910 N.am   62  GLY62      -0.1942
     41  CA       -10.6360   13.7070   -2.1500 C.3    62  GLY62       0.2014
     42  C        -11.7270   14.1390   -3.1250 C.2    62  GLY62       0.2639
     43  O        -12.2110   15.3080   -3.0870 O.2    62  GLY62      -0.2714
     44  N        -12.1170   13.2300   -4.0170 N.am   63  GLY63      -0.1939
     45  CA       -13.1890   13.5070   -4.9800 C.3    63  GLY63       0.2014
     46  C        -12.7440   13.8530   -6.4010 C.2    63  GLY63       0.2639
     47  O        -11.5550   14.0020   -6.7130 O.2    63  GLY63      -0.2714
     48  N        -13.7280   13.9270   -7.2910 N.am   64  GLY64      -0.1939
     49  CA       -13.4570   14.0940   -8.6980 C.3    64  GLY64       0.2014
     50  C        -14.7290   13.9630   -9.5030 C.2    64  GLY64       0.2639
     51  O        -15.7570   13.5510   -8.9940 O.2    64  GLY64      -0.2714
     52  N        -14.6410   14.4010  -10.7510 N.am   65  TYR65      -0.1959
     53  CA       -15.7410   14.3440  -11.6910 C.3    65  TYR65       0.1771
     54  C        -15.5320   13.1900  -12.6660 C.2    65  TYR65       0.2619
     55  O        -14.4030   12.8660  -13.0590 O.2    65  TYR65      -0.2715
     56  CB       -15.8420   15.6690  -12.4290 C.3    65  TYR65       0.0574
     57  CG       -16.2330   16.8320  -11.5360 C.ar   65  TYR65      -0.0198
     58  CD1      -15.2750   17.6990  -11.0040 C.ar   65  TYR65      -0.0009
     59  CD2      -17.5700   17.0770  -11.2540 C.ar   65  TYR65      -0.0009
     60  CE1      -15.6580   18.7930  -10.2090 C.ar   65  TYR65       0.0417
     61  CE2      -17.9580   18.1290  -10.4650 C.ar   65  TYR65       0.0417
     62  CZ       -16.9910   18.9870   -9.9470 C.ar   65  TYR65       0.1957
     63  OH       -17.3920   20.0060   -9.1600 O.3    65  TYR65      -0.2866
     64  N        -16.6300   12.5390  -13.0320 N.am   66  MET66      -0.1977
     65  CA       -16.5850   11.4630  -14.0240 C.3    66  MET66       0.1605
     66  C        -16.1590   12.0340  -15.3900 C.2    66  MET66       0.2287
     67  O        -15.3100   11.4670  -16.0240 O.2    66  MET66      -0.2864
     68  CB       -17.9210   10.6970  -14.0940 C.3    66  MET66       0.0413
     69  CG       -18.3480   10.0570  -12.7700 C.3    66  MET66       0.0598
     70  SD       -18.9440   11.2390  -11.5890 S.3    66  MET66      -0.1393
     71  CE       -20.6960   11.1500  -11.9030 C.3    66  MET66       0.0692
     72  N        -24.4930   11.4510  -10.1970 N.3   132  ALA132     -0.1245
     73  CA       -24.0940   11.9400   -8.8810 C.3   132  ALA132      0.1562
     74  C        -25.3280   12.3960   -8.1430 C.2   132  ALA132      0.2260
     75  O        -26.3350   12.8520   -8.7290 O.2   132  ALA132     -0.2867
     76  CB       -23.0290   13.0630   -8.9630 C.3   132  ALA132      0.0290
     77  N        -24.6710   17.6120   -4.4390 N.3   158  LEU158     -0.1231
     78  CA       -24.1130   16.4010   -5.0300 C.3   158  LEU158      0.1693
     79  C        -22.7800   16.0780   -4.3580 C.2   158  LEU158      0.2592
     80  O        -21.8380   16.8530   -4.4330 O.2   158  LEU158     -0.2718
     81  CB       -23.9630   16.5770   -6.5450 C.3   158  LEU158      0.0284
     82  CG       -25.2540   16.9190   -7.2890 C.3   158  LEU158      0.0019
     83  CD1      -25.0550   16.8150   -8.7940 C.3   158  LEU158      0.0001
     84  CD2      -26.3940   16.0370   -6.8560 C.3   158  LEU158      0.0001
     85  N        -22.7240   14.9430   -3.6590 N.am  159  ASN159     -0.1960
     86  CA       -21.5640   14.5900   -2.8200 C.3   159  ASN159      0.1819
     87  C        -21.1190   13.1190   -2.9460 C.2   159  ASN159      0.2621
     88  O        -20.1780   12.6800   -2.2760 O.2   159  ASN159     -0.2715
     89  CB       -21.8590   14.9410   -1.3600 C.3   159  ASN159      0.1195
     90  CG       -23.1560   14.3500   -0.8810 C.2   159  ASN159      0.2630
     91  OD1      -23.3700   13.1270   -0.9780 O.2   159  ASN159     -0.2716
     92  ND2      -24.0690   15.2090   -0.4230 N.am  159  ASN159     -0.0877
     93  N        -21.7550   12.3770   -3.8470 N.am  160  HIS160     -0.1959
     94  CA       -21.4010   10.9890   -4.0650 C.3   160  HIS160      0.1787
     95  C        -21.7120   10.6300   -5.4960 C.2   160  HIS160      0.2620
     96  O        -22.7130   11.0980   -6.0450 O.2   160  HIS160     -0.2715
     97  CB       -22.1700   10.0910   -3.0820 C.3   160  HIS160      0.0785
     98  CG       -21.7110    8.6660   -3.0740 C.ar  160  HIS160      0.0821
     99  ND1      -20.3990    8.3110   -2.8840 N.ar  160  HIS160     -0.2267
    100  CD2      -22.3950    7.5070   -3.2530 C.ar  160  HIS160      0.1154
    101  CE1      -20.2880    6.9950   -2.9670 C.ar  160  HIS160      0.1986
    102  NE2      -21.4860    6.4840   -3.1750 N.ar  160  HIS160     -0.2212
    103  N        -20.8290    9.8030   -6.0780 N.am  161  ALA161     -0.1977
    104  CA       -20.8820    9.3880   -7.4690 C.3   161  ALA161      0.1597
    105  C        -21.2010    7.9230   -7.5200 C.2   161  ALA161      0.2287
    106  O        -20.4980    7.1020   -6.8730 O.2   161  ALA161     -0.2864
    107  CB       -19.5250    9.6400   -8.1720 C.3   161  ALA161      0.0319
    108  N        -19.7890    0.6660   -2.2360 N.3   182  TRP182     -0.1241
    109  CA       -19.5820    0.4820   -0.8210 C.3   182  TRP182      0.1605
    110  C        -19.5750   -1.0150   -0.4330 C.2   182  TRP182      0.2264
    111  O        -19.8460   -1.3470    0.7080 O.2   182  TRP182     -0.2867
    112  CB       -20.6650    1.2600   -0.0470 C.3   182  TRP182      0.0550
    113  CG       -20.4810    2.7400   -0.0560 C.ar  182  TRP182      0.0003
    114  CD1      -19.3790    3.4530   -0.4630 C.ar  182  TRP182      0.0946
    115  CD2      -21.4240    3.7010    0.4070 C.ar  182  TRP182      0.0152
    116  NE1      -19.5900    4.7950   -0.2780 N.ar  182  TRP182     -0.2442
    117  CE2      -20.8470    4.9730    0.2360 C.ar  182  TRP182      0.0810
    118  CE3      -22.7170    3.6080    0.9420 C.ar  182  TRP182      0.0012
    119  CZ2      -21.5130    6.1380    0.5880 C.ar  182  TRP182      0.0191
    120  CZ3      -23.3820    4.7580    1.2680 C.ar  182  TRP182      0.0001
    121  CH2      -22.7800    6.0120    1.0950 C.ar  182  TRP182      0.0015
    122  N        -25.9500   15.6430  -12.6170 N.3   207  LEU207     -0.1245
    123  CA       -24.5840   15.4310  -13.0970 C.3   207  LEU207      0.1561
    124  C        -24.3610   14.0480  -13.7740 C.2   207  LEU207      0.2260
    125  O        -23.4890   13.2630  -13.3580 O.2   207  LEU207     -0.2867
    126  CB       -23.5820   15.6750  -11.9530 C.3   207  LEU207      0.0270
    127  CG       -22.1630   16.1140  -12.4090 C.3   207  LEU207      0.0019
    128  CD1      -22.0280   17.5710  -13.0140 C.3   207  LEU207      0.0001
    129  CD2      -21.1940   15.9410  -11.3210 C.3   207  LEU207      0.0001
@<TRIPOS>BOND
     1    67    66    2
     2    66    65    1
     3    68    65    1
     4    68    69    1
     5    65    64    1
     6   124   125    2
     7   124   123    1
     8   123   122    1
     9   123   126    1
    10    55    54    2
    11    64    54   am
    12   128   127    1
    13    69    70    1
    14    54    53    1
    15    56    53    1
    16    56    57    1
    17   127   126    1
    18   127   129    1
    19    71    70    1
    20    53    52    1
    21    57    59   ar
    22    57    58   ar
    23    59    61   ar
    24    32    30   ar
    25    32    33   ar
    26    23    22    2
    27    58    60   ar
    28    52    50   am
    29    30    27   ar
    30    61    62   ar
    31    33    31   ar
    32    60    62   ar
    33    72    73    1
    34    22    21    1
    35    62    63    1
    36    50    51    2
    37    50    49    1
    38    27    25   ar
    39    27    29   ar
    40    24    21    1
    41    24    25    1
    42    21    20    1
    43    76    73    1
    44    31    29   ar
    45    73    74    1
    46    83    82    1
    47    75    74    2
    48    49    48    1
    49    25    26   ar
    50    29    28   ar
    51   107   104    1
    52    17    16    2
    53    20    16   am
    54   105   104    1
    55   105   106    2
    56   104   103    1
    57    16    15    1
    58    26    28   ar
    59    48    46   am
    60    82    84    1
    61    82    81    1
    62    47    46    2
    63    81    78    1
    64    46    45    1
    65   103    95   am
    66    96    95    2
    67    15    14    1
    68    15    18    1
    69    95    94    1
    70    19    18    1
    71    78    77    1
    72    78    79    1
    73    45    44    1
    74    80    79    2
    75    79    85   am
    76    13    12    2
    77    94    93    1
    78    94    97    1
    79    44    42   am
    80    34    35    1
    81    93    87   am
    82    85    86    1
    83    12    11    1
    84   100   102   ar
    85   100    98   ar
    86   102   101   ar
    87     9     7   am
    88    42    43    2
    89    42    41    1
    90    97    98    1
    91    98    99   ar
    92   101    99   ar
    93    87    86    1
    94    87    88    2
    95     5     2    1
    96     5     6    1
    97    35    36    1
    98    35    38    1
    99    86    89    1
   100    40    36   am
   101    40    41    1
   102     2     1    1
   103     2     3    1
   104     7     8    2
   105     7     6    1
   106    39    38    1
   107   108   109    1
   108    36    37    2
   109    11    10    1
   110    89    90    1
   111     3     4    2
   112    91    90    2
   113    90    92   am
   114   109   110    1
   115   109   112    1
   116   114   116   ar
   117   114   113   ar
   118   110   111    2
   119   116   117   ar
   120   113   112    1
   121   113   115   ar
   122   117   115   ar
   123   117   119   ar
   124   115   118   ar
   125   119   121   ar
   126   118   120   ar
   127   121   120   ar
