@<TRIPOS>MOLECULE
tmp/3kx2A00.pdb
 169 158 0 0 0
SMALL
GASTEIGER

@<TRIPOS>ATOM
      1  N        -11.9500  -11.0600   29.1170 N.3    89  ILE89      -0.1245
      2  CA       -11.6540  -12.1640   28.2060 C.3    89  ILE89       0.1561
      3  C        -12.5430  -13.3860   28.4470 C.2    89  ILE89       0.2260
      4  O        -13.1790  -13.8900   27.5190 O.2    89  ILE89      -0.2867
      5  CB       -10.1750  -12.5830   28.2880 C.3    89  ILE89       0.0252
      6  CG1       -9.2850  -11.4900   27.6950 C.3    89  ILE89       0.0019
      7  CG2       -9.9530  -13.8920   27.5560 C.3    89  ILE89       0.0019
      8  CD1       -7.8160  -11.6900   27.9730 C.3    89  ILE89       0.0001
      9  N        -16.4200  -16.4280   26.8370 N.3    93  LEU93      -0.1245
     10  CA       -16.6860  -17.8700   26.7870 C.3    93  LEU93       0.1561
     11  C        -18.1700  -18.1840   26.6260 C.2    93  LEU93       0.2260
     12  O        -19.0070  -17.5810   27.2910 O.2    93  LEU93      -0.2867
     13  CB       -16.1210  -18.5690   28.0250 C.3    93  LEU93       0.0270
     14  CG       -14.5920  -18.4900   28.1000 C.3    93  LEU93       0.0019
     15  CD1      -14.0350  -18.9300   29.4500 C.3    93  LEU93       0.0001
     16  CD2      -13.9640  -19.2780   26.9720 C.3    93  LEU93       0.0001
     17  N        -15.5640  -29.1600   24.8040 N.3   118  THR118     -0.1203
     18  CA       -14.4480  -28.7090   25.6230 C.3   118  THR118      0.1994
     19  C        -13.9830  -27.3540   25.0960 C.2   118  THR118      0.2618
     20  O        -13.9930  -27.0930   23.8850 O.2   118  THR118     -0.2717
     21  CB       -13.2910  -29.7370   25.7720 C.3   118  THR118      0.1784
     22  OG1      -12.1040  -29.2640   25.1250 O.3   118  THR118     -0.2211
     23  CG2      -13.6810  -31.0920   25.2420 C.3   118  THR118      0.0376
     24  N        -13.6400  -26.4700   26.0230 N.am  119  GLY119     -0.1942
     25  CA       -13.2540  -25.1210   25.6740 C.3   119  GLY119      0.2014
     26  C        -14.3820  -24.1310   25.9000 C.2   119  GLY119      0.2640
     27  O        -14.1590  -22.9260   25.8860 O.2   119  GLY119     -0.2714
     28  N        -15.5940  -24.6290   26.1180 N.am  120  SER120     -0.1935
     29  CA       -16.7570  -23.7470   26.1980 C.3   120  SER120      0.2055
     30  C        -16.8480  -23.0190   27.5450 C.2   120  SER120      0.2644
     31  O        -17.6290  -22.0810   27.6970 O.2   120  SER120     -0.2714
     32  CB       -18.0540  -24.5090   25.8830 C.3   120  SER120      0.2130
     33  OG       -18.3600  -25.4130   26.9130 O.3   120  SER120     -0.2179
     34  N        -16.0420  -23.4560   28.5130 N.am  121  GLY121     -0.1939
     35  CA       -15.9660  -22.8000   29.8090 C.3   121  GLY121      0.2014
     36  C        -16.5790  -23.5260   31.0070 C.2   121  GLY121      0.2639
     37  O        -16.7800  -22.9230   32.0650 O.2   121  GLY121     -0.2714
     38  N        -16.8590  -24.8190   30.8650 N.am  122  LYS122     -0.1963
     39  CA       -17.4870  -25.5930   31.9450 C.3   122  LYS122      0.1728
     40  C        -16.7070  -25.5730   33.2660 C.2   122  LYS122      0.2617
     41  O        -17.2130  -25.1390   34.2900 O.2   122  LYS122     -0.2715
     42  CB       -17.7220  -27.0400   31.5030 C.3   122  LYS122      0.0311
     43  CG       -18.6510  -27.1900   30.3040 C.3   122  LYS122      0.0038
     44  CD       -18.9840  -28.6640   30.0630 C.3   122  LYS122      0.0206
     45  CE       -17.7040  -29.4870   29.8030 C.3   122  LYS122      0.1093
     46  NZ       -16.9620  -28.9940   28.6040 N.3   122  LYS122     -0.1314
     47  N        -15.4670  -26.0420   33.2400 N.am  123  THR123     -0.1937
     48  CA       -14.7010  -26.2230   34.4720 C.3   123  THR123      0.2028
     49  C        -14.2610  -24.9300   35.1420 C.2   123  THR123      0.2642
     50  O        -14.1930  -24.8610   36.3750 O.2   123  THR123     -0.2714
     51  CB       -13.4500  -27.0560   34.2210 C.3   123  THR123      0.1808
     52  OG1      -13.8350  -28.3110   33.6760 O.3   123  THR123     -0.2208
     53  CG2      -12.6810  -27.2930   35.5220 C.3   123  THR123      0.0379
     54  N        -13.9320  -23.9150   34.3470 N.am  124  THR124     -0.1950
     55  CA       -13.4610  -22.6660   34.9360 C.3   124  THR124      0.1897
     56  C        -14.5850  -21.7580   35.4020 C.2   124  THR124      0.2313
     57  O        -14.5080  -21.2100   36.4920 O.2   124  THR124     -0.2863
     58  CB       -12.5260  -21.8640   33.9930 C.3   124  THR124      0.1794
     59  OG1      -13.2080  -21.5290   32.7780 O.3   124  THR124     -0.2208
     60  CG2      -11.2890  -22.6580   33.6800 C.3   124  THR124      0.0378
     61  N         -3.9340  -27.6300   37.1090 N.3   155  SER155     -0.1202
     62  CA        -3.7880  -26.4730   36.2310 C.3   155  SER155      0.2020
     63  C         -5.0240  -25.5810   36.2260 C.2   155  SER155      0.2618
     64  O         -4.9190  -24.3550   36.1380 O.2   155  SER155     -0.2717
     65  CB        -3.4280  -26.9000   34.8060 C.3   155  SER155      0.2103
     66  OG        -4.5500  -27.4040   34.1110 O.3   155  SER155     -0.2182
     67  N         -6.1950  -26.1950   36.3230 N.am  156  VAL156     -0.1979
     68  CA        -7.4180  -25.4160   36.2690 C.3   156  VAL156      0.1595
     69  C         -7.5900  -24.6450   37.5780 C.2   156  VAL156      0.2287
     70  O         -8.0250  -23.5050   37.5740 O.2   156  VAL156     -0.2864
     71  CB        -8.6420  -26.2920   35.9310 C.3   156  VAL156      0.0276
     72  CG1       -9.2490  -26.8440   37.1970 C.3   156  VAL156      0.0022
     73  CG2       -9.6510  -25.4920   35.1530 C.3   156  VAL156      0.0022
     74  N         -5.4810  -21.6220   37.2710 N.3   159  ARG159     -0.1245
     75  CA        -6.1540  -20.6430   36.4240 C.3   159  ARG159      0.1563
     76  C         -7.3080  -19.9590   37.1610 C.2   159  ARG159      0.2260
     77  O         -7.4280  -18.7400   37.1410 O.2   159  ARG159     -0.2867
     78  CB        -6.6600  -21.3110   35.1460 C.3   159  ARG159      0.0307
     79  CG        -7.6120  -20.4600   34.3320 C.3   159  ARG159      0.0489
     80  CD        -6.9730  -19.1690   33.8060 C.3   159  ARG159      0.2205
     81  NE        -7.8990  -18.4830   32.9040 N.pl3 159  ARG159     -0.0865
     82  CZ        -7.5960  -17.4290   32.1510 C.cat 159  ARG159      0.5346
     83  NH1       -6.3780  -16.9170   32.1760 N.pl3 159  ARG159      0.1354
     84  NH2       -8.5180  -16.8930   31.3610 N.pl3 159  ARG159      0.1354
     85  N         -8.4170  -16.1220   37.9730 N.3   163  GLU163     -0.1245
     86  CA        -9.6730  -15.5480   37.4970 C.3   163  GLU163      0.1567
     87  C        -10.4610  -14.9310   38.6550 C.2   163  GLU163      0.2260
     88  O        -11.2790  -14.0300   38.4590 O.2   163  GLU163     -0.2867
     89  CB       -10.5180  -16.5810   36.7330 C.3   163  GLU163      0.0388
     90  CG        -9.8370  -17.1860   35.4920 C.3   163  GLU163      0.1160
     91  CD       -10.8030  -17.9920   34.6270 C.2   163  GLU163      0.3649
     92  OE1      -11.9750  -18.1420   35.0260 O.co2 163  GLU163     -0.2457
     93  OE2      -10.3910  -18.4780   33.5480 O.co2 163  GLU163     -0.2457
     94  N        -16.4440  -33.7670   33.6220 N.3   216  GLU216     -0.1245
     95  CA       -15.9140  -34.7550   32.6830 C.3   216  GLU216      0.1567
     96  C        -16.5380  -36.1330   32.9270 C.2   216  GLU216      0.2260
     97  O        -15.8550  -37.1650   32.8280 O.2   216  GLU216     -0.2867
     98  CB       -14.3860  -34.8270   32.8170 C.3   216  GLU216      0.0388
     99  CG       -13.6870  -33.4980   32.4710 C.3   216  GLU216      0.1160
    100  CD       -13.5700  -33.2930   30.9840 C.2   216  GLU216      0.3649
    101  OE1      -14.3490  -32.4640   30.4460 O.co2 216  GLU216     -0.2457
    102  OE2      -12.7160  -33.9790   30.3550 O.co2 216  GLU216     -0.2457
    103  N          2.2090  -25.6350   33.6650 N.3   354  GLN354     -0.1245
    104  CA         1.8660  -24.2590   33.3640 C.3   354  GLN354      0.1566
    105  C          2.5860  -23.7540   32.1120 C.2   354  GLN354      0.2260
    106  O          2.1530  -22.7950   31.4780 O.2   354  GLN354     -0.2867
    107  CB         2.1990  -23.3820   34.5710 C.3   354  GLN354      0.0367
    108  CG         1.1930  -22.2840   34.8410 C.3   354  GLN354      0.0905
    109  CD        -0.2200  -22.8130   35.0610 C.2   354  GLN354      0.2608
    110  OE1       -0.4370  -24.0100   35.2940 O.2   354  GLN354     -0.2717
    111  NE2       -1.1910  -21.9140   34.9880 N.am  354  GLN354     -0.0878
    112  N          0.9590  -23.2470   28.4500 N.3   357  PHE357     -0.1241
    113  CA         0.1090  -22.0930   28.1420 C.3   357  PHE357      0.1605
    114  C          0.8870  -20.8530   27.6770 C.2   357  PHE357      0.2264
    115  O          0.2900  -19.8060   27.4180 O.2   357  PHE357     -0.2867
    116  CB        -0.7820  -21.7360   29.3410 C.3   357  PHE357      0.0534
    117  CG        -1.6590  -22.8690   29.8010 C.ar  357  PHE357     -0.0203
    118  CD1       -2.7900  -23.2280   29.0810 C.ar  357  PHE357     -0.0042
    119  CD2       -1.3450  -23.5800   30.9500 C.ar  357  PHE357     -0.0042
    120  CE1       -3.5780  -24.2700   29.4990 C.ar  357  PHE357     -0.0003
    121  CE2       -2.1280  -24.6210   31.3710 C.ar  357  PHE357     -0.0003
    122  CZ        -3.2510  -24.9660   30.6500 C.ar  357  PHE357     -0.0000
    123  N        -10.1610  -33.8900   26.1500 N.3   381  THR381     -0.1203
    124  CA       -11.2980  -33.0880   26.6100 C.3   381  THR381      0.1994
    125  C        -11.0660  -32.3530   27.9290 C.2   381  THR381      0.2619
    126  O        -11.8870  -31.5360   28.3190 O.2   381  THR381     -0.2717
    127  CB       -12.5720  -33.9420   26.8020 C.3   381  THR381      0.1784
    128  OG1      -12.3430  -34.9000   27.8480 O.3   381  THR381     -0.2211
    129  CG2      -12.9650  -34.6480   25.4990 C.3   381  THR381      0.0376
    130  N         -9.9720  -32.6530   28.6220 N.am  382  SER382     -0.1937
    131  CA        -9.7860  -32.1900   30.0050 C.3   382  SER382      0.2055
    132  C         -9.3820  -30.7290   30.1710 C.2   382  SER382      0.2643
    133  O         -9.6210  -30.1310   31.2280 O.2   382  SER382     -0.2714
    134  CB        -8.7580  -33.0620   30.7340 C.3   382  SER382      0.2130
    135  OG        -9.0410  -34.4320   30.5400 O.3   382  SER382     -0.2179
    136  N         -8.7440  -30.1600   29.1560 N.am  383  LEU383     -0.1963
    137  CA        -8.3270  -28.7650   29.2200 C.3   383  LEU383      0.1728
    138  C         -8.0950  -28.2290   27.8220 C.2   383  LEU383      0.2616
    139  O         -8.1090  -28.9920   26.8680 O.2   383  LEU383     -0.2715
    140  CB        -7.0660  -28.6330   30.0680 C.3   383  LEU383      0.0311
    141  CG        -5.8750  -29.5190   29.7020 C.3   383  LEU383      0.0022
    142  CD1       -5.0920  -28.9270   28.5220 C.3   383  LEU383      0.0001
    143  CD2       -4.9590  -29.7010   30.8940 C.3   383  LEU383      0.0001
    144  N         -7.9200  -26.9200   27.6780 N.am  384  THR384     -0.1951
    145  CA        -7.5900  -26.3950   26.3620 C.3   384  THR384      0.1897
    146  C         -6.4340  -25.4270   26.4120 C.2   384  THR384      0.2313
    147  O         -6.2590  -24.6650   27.3680 O.2   384  THR384     -0.2863
    148  CB        -8.8070  -25.7820   25.5600 C.3   384  THR384      0.1794
    149  OG1       -8.6580  -24.3650   25.3760 O.3   384  THR384     -0.2208
    150  CG2      -10.0980  -26.0870   26.2060 C.3   384  THR384      0.0378
    151  N         -5.1400  -22.4150   24.4040 N.3   386  ASP386     -0.1239
    152  CA        -5.5380  -21.4300   23.3990 C.3   386  ASP386      0.1674
    153  C         -4.5060  -21.3660   22.2900 C.2   386  ASP386      0.2266
    154  O         -3.3000  -21.3370   22.5610 O.2   386  ASP386     -0.2867
    155  CB        -5.6620  -20.0410   24.0280 C.3   386  ASP386      0.1410
    156  CG        -6.8940  -19.9050   24.8960 C.2   386  ASP386      0.3668
    157  OD1       -7.9120  -20.5560   24.5810 O.co2 386  ASP386     -0.2456
    158  OD2       -6.8440  -19.1420   25.8820 O.co2 386  ASP386     -0.2456
    159  N        -10.9050  -24.5900   17.8490 N.3   430  ARG430     -0.1245
    160  CA       -11.4170  -23.7480   18.9260 C.3   430  ARG430      0.1563
    161  C        -11.3220  -22.2650   18.5900 C.2   430  ARG430      0.2260
    162  O        -12.2050  -21.4870   18.9340 O.2   430  ARG430     -0.2867
    163  CB       -10.6980  -24.0160   20.2480 C.3   430  ARG430      0.0307
    164  CG       -11.5840  -23.7750   21.4720 C.3   430  ARG430      0.0489
    165  CD       -10.8160  -23.1790   22.6380 C.3   430  ARG430      0.2205
    166  NE       -10.8910  -21.7250   22.6410 N.pl3 430  ARG430     -0.0865
    167  CZ       -11.8310  -21.0380   23.2790 C.cat 430  ARG430      0.5346
    168  NH1      -12.7600  -21.6860   23.9650 N.pl3 430  ARG430      0.1354
    169  NH2      -11.8470  -19.7080   23.2330 N.pl3 430  ARG430      0.1354
@<TRIPOS>BOND
     1   159   160    1
     2   161   160    1
     3   161   162    2
     4   160   163    1
     5   163   164    1
     6   164   165    1
     7   153   154    2
     8   153   152    1
     9   165   166    1
    10   166   167    2
    11   169   167    1
    12   167   168    1
    13   152   155    1
    14   152   151    1
    15    20    19    2
    16   155   156    1
    17   157   156   ar
    18    17    18    1
    19   156   158   ar
    20    19    18    1
    21    19    24   am
    22    22    21    1
    23    23    21    1
    24   149   148    1
    25   129   127    1
    26   148   150    1
    27   148   145    1
    28    18    21    1
    29    25    26    1
    30    25    24    1
    31    32    29    1
    32    32    33    1
    33    27    26    2
    34    26    28   am
    35    28    29    1
    36   123   124    1
    37    29    30    1
    38   145   146    1
    39   145   144    1
    40   146   147    2
    41   124   127    1
    42   124   125    1
    43    11    10    1
    44    11    12    2
    45    10     9    1
    46    10    13    1
    47   127   128    1
    48   139   138    2
    49    16    14    1
    50   115   114    2
    51     4     3    2
    52    30    31    2
    53    30    34   am
    54     7     5    1
    55   114   113    1
    56   144   138   am
    57     6     8    1
    58     6     5    1
    59   138   137    1
    60   125   126    2
    61   125   130   am
    62    13    14    1
    63    14    15    1
    64   113   112    1
    65   113   116    1
    66     2     5    1
    67     2     3    1
    68     2     1    1
    69    34    35    1
    70   142   141    1
    71    46    45    1
    72   130   131    1
    73   118   120   ar
    74   118   117   ar
    75   136   137    1
    76   136   132   am
    77   137   140    1
    78   116   117    1
    79   120   122   ar
    80   141   140    1
    81   141   143    1
    82   117   119   ar
    83    45    44    1
    84    35    36    1
    85   131   132    1
    86   131   134    1
    87    44    43    1
    88   132   133    2
    89    43    42    1
    90   102   100   ar
    91   101   100   ar
    92   135   134    1
    93   122   121   ar
    94    38    36   am
    95    38    39    1
    96   119   121   ar
    97   100    99    1
    98    36    37    2
    99    84    82    1
   100   106   105    2
   101    42    39    1
   102    39    40    1
   103   105   104    1
   104    82    83    1
   105    82    81    2
   106    99    98    1
   107    95    98    1
   108    95    96    1
   109    95    94    1
   110    59    58    1
   111    97    96    2
   112    81    80    1
   113    47    40   am
   114    47    48    1
   115    40    41    2
   116   104   103    1
   117   104   107    1
   118    93    91   ar
   119    52    51    1
   120    60    58    1
   121    80    79    1
   122    58    55    1
   123    66    65    1
   124    51    48    1
   125    51    53    1
   126    79    78    1
   127    54    55    1
   128    54    49   am
   129    48    49    1
   130   107   108    1
   131    91    92   ar
   132    91    90    1
   133    65    62    1
   134   108   109    1
   135    55    56    1
   136   111   109   am
   137   109   110    2
   138    49    50    2
   139    78    75    1
   140    73    71    1
   141    56    57    2
   142    90    89    1
   143    71    68    1
   144    71    72    1
   145    64    63    2
   146    63    62    1
   147    63    67   am
   148    62    61    1
   149    68    67    1
   150    68    69    1
   151    75    76    1
   152    75    74    1
   153    89    86    1
   154    77    76    2
   155    86    85    1
   156    86    87    1
   157    70    69    2
   158    88    87    2
