@<TRIPOS>MOLECULE
tmp/3kx6A00.pdb
 131 122 0 0 0
SMALL
GASTEIGER

@<TRIPOS>ATOM
      1  N         55.3620  100.1210   25.0830 N.3    29  ALA29      -0.1245
      2  CA        56.6680  100.1540   24.4130 C.3    29  ALA29       0.1562
      3  C         56.5070   99.6270   22.9930 C.2    29  ALA29       0.2260
      4  O         56.4990   98.4080   22.7560 O.2    29  ALA29      -0.2867
      5  CB        57.7020   99.3210   25.1860 C.3    29  ALA29       0.0290
      6  N         58.4910  100.6470   20.4360 N.3    31  ASP31      -0.1225
      7  CA        59.6800  101.2920   19.8750 C.3    31  ASP31       0.1805
      8  C         60.6700  100.2860   19.2800 C.2    31  ASP31       0.2597
      9  O         61.8730  100.5020   19.3270 O.2    31  ASP31      -0.2718
     10  CB        60.3610  102.1650   20.9410 C.3    31  ASP31       0.1424
     11  CG        60.8650  101.3480   22.1570 C.2    31  ASP31       0.3668
     12  OD1       60.1780  100.4090   22.5660 O.co2  31  ASP31      -0.2456
     13  OD2       61.9480  101.6420   22.7010 O.co2  31  ASP31      -0.2456
     14  N         60.1630   99.2050   18.7020 N.am   32  GLU32      -0.1979
     15  CA        61.0360   98.2260   18.0480 C.3    32  GLU32       0.1602
     16  C         61.6380   98.8270   16.7620 C.2    32  GLU32       0.2287
     17  O         60.9170   99.3270   15.8840 O.2    32  GLU32      -0.2864
     18  CB        60.2650   96.9480   17.6850 C.3    32  GLU32       0.0415
     19  CG        59.5240   96.2700   18.8660 C.3    32  GLU32       0.1163
     20  CD        58.0990   96.7720   19.0840 C.2    32  GLU32       0.3649
     21  OE1       57.6960   97.8110   18.5110 O.co2  32  GLU32      -0.2457
     22  OE2       57.3640   96.1090   19.8310 O.co2  32  GLU32      -0.2457
     23  N         59.9100   89.8520   15.3740 N.3    40  ARG40      -0.1245
     24  CA        58.5190   89.7510   15.8240 C.3    40  ARG40       0.1563
     25  C         57.5860   89.3850   14.6560 C.2    40  ARG40       0.2260
     26  O         56.6700   88.5930   14.8320 O.2    40  ARG40      -0.2867
     27  CB        58.0570   91.0550   16.4490 C.3    40  ARG40       0.0307
     28  CG        58.9680   91.6580   17.5110 C.3    40  ARG40       0.0489
     29  CD        58.8240   90.9700   18.8470 C.3    40  ARG40       0.2205
     30  NE        59.3600   91.8340   19.8870 N.pl3  40  ARG40      -0.0865
     31  CZ        60.6450   91.9370   20.2020 C.cat  40  ARG40       0.5346
     32  NH1       61.5600   91.2080   19.5780 N.pl3  40  ARG40       0.1354
     33  NH2       61.0220   92.7660   21.1590 N.pl3  40  ARG40       0.1354
     34  N         63.5690  107.4470   25.9740 N.3   143  LYS143     -0.1245
     35  CA        64.0030  106.1770   26.5190 C.3   143  LYS143      0.1561
     36  C         65.4360  105.8240   26.0490 C.2   143  LYS143      0.2260
     37  O         65.8160  106.0070   24.8780 O.2   143  LYS143     -0.2867
     38  CB        63.0190  105.1170   26.0590 C.3   143  LYS143      0.0271
     39  CG        63.3440  103.7070   26.4870 C.3   143  LYS143      0.0035
     40  CD        63.9970  102.9970   25.3240 C.3   143  LYS143      0.0206
     41  CE        64.0930  101.5460   25.6200 C.3   143  LYS143      0.1093
     42  NZ        64.2580  100.8130   24.3420 N.3   143  LYS143     -0.1314
     43  N         68.2230  102.5400   27.0260 N.3   145  ARG145     -0.1245
     44  CA        68.4550  101.2650   27.6660 C.3   145  ARG145      0.1563
     45  C         69.9360  100.9560   27.9100 C.2   145  ARG145      0.2260
     46  O         70.7180  100.8590   26.9870 O.2   145  ARG145     -0.2867
     47  CB        67.8410  100.1680   26.8030 C.3   145  ARG145      0.0307
     48  CG        67.9160   98.7760   27.4450 C.3   145  ARG145      0.0489
     49  CD        67.0940   97.8420   26.5910 C.3   145  ARG145      0.2205
     50  NE        67.2270   96.4680   27.0010 N.pl3 145  ARG145     -0.0865
     51  CZ        67.9000   95.5260   26.3330 C.cat 145  ARG145      0.5346
     52  NH1       68.5370   95.7870   25.1950 N.pl3 145  ARG145      0.1354
     53  NH2       67.9280   94.2950   26.8140 N.pl3 145  ARG145      0.1354
     54  N         66.6630  103.6550   32.2890 N.3   186  GLU186     -0.1245
     55  CA        66.5010  102.1870   32.2530 C.3   186  GLU186      0.1567
     56  C         67.7900  101.4280   32.4800 C.2   186  GLU186      0.2260
     57  O         68.5640  101.1660   31.5320 O.2   186  GLU186     -0.2867
     58  CB        65.8840  101.7640   30.9130 C.3   186  GLU186      0.0388
     59  CG        65.6470  100.2370   30.7480 C.3   186  GLU186      0.1160
     60  CD        64.9410   99.8520   29.4660 C.2   186  GLU186      0.3649
     61  OE1       64.6130  100.7250   28.6370 O.co2 186  GLU186     -0.2457
     62  OE2       64.7030   98.6450   29.3110 O.co2 186  GLU186     -0.2457
     63  N         68.7310   98.0230   32.9090 N.3   188  GLU188     -0.1245
     64  CA        68.1960   96.6900   32.9080 C.3   188  GLU188      0.1567
     65  C         69.2470   95.6610   33.3010 C.2   188  GLU188      0.2260
     66  O         70.1980   95.4290   32.5660 O.2   188  GLU188     -0.2867
     67  CB        67.6410   96.2840   31.5320 C.3   188  GLU188      0.0388
     68  CG        67.2210   94.8150   31.5480 C.3   188  GLU188      0.1160
     69  CD        66.4410   94.3360   30.3240 C.2   188  GLU188      0.3649
     70  OE1       66.4000   95.0360   29.3030 O.co2 188  GLU188     -0.2457
     71  OE2       65.8690   93.2220   30.4150 O.co2 188  GLU188     -0.2457
     72  N         62.8610  102.8020   34.7680 N.3   228  LYS228     -0.1245
     73  CA        62.3730  101.5430   34.1870 C.3   228  LYS228      0.1561
     74  C         63.3650  100.4430   34.5440 C.2   228  LYS228      0.2260
     75  O         64.3220  100.2170   33.8320 O.2   228  LYS228     -0.2867
     76  CB        62.1960  101.6880   32.6670 C.3   228  LYS228      0.0271
     77  CG        61.8230  100.4080   31.9000 C.3   228  LYS228      0.0035
     78  CD        61.3350  100.7440   30.5020 C.3   228  LYS228      0.0206
     79  CE        60.9990   99.4400   29.7040 C.3   228  LYS228      0.1093
     80  NZ        60.2230   99.7170   28.4430 N.3   228  LYS228     -0.1314
     81  N         60.1130   97.0990   33.2560 N.3   269  LEU269     -0.1231
     82  CA        60.2840   96.2170   32.0900 C.3   269  LEU269      0.1693
     83  C         59.9150   94.7710   32.4870 C.2   269  LEU269      0.2593
     84  O         60.0150   94.3900   33.6520 O.2   269  LEU269     -0.2718
     85  CB        61.7110   96.2880   31.5520 C.3   269  LEU269      0.0284
     86  CG        62.8300   95.7950   32.4780 C.3   269  LEU269      0.0019
     87  CD1       63.2090   94.3390   32.1860 C.3   269  LEU269      0.0001
     88  CD2       64.0980   96.7270   32.3530 C.3   269  LEU269      0.0001
     89  N         59.4860   93.9780   31.5150 N.am  270  SER270     -0.1938
     90  CA        59.0330   92.6060   31.7800 C.3   270  SER270      0.2055
     91  C         60.0330   91.5640   31.2820 C.2   270  SER270      0.2643
     92  O         59.9410   90.3960   31.6540 O.2   270  SER270     -0.2714
     93  CB        57.6630   92.3570   31.1350 C.3   270  SER270      0.2130
     94  OG        57.7200   92.5230   29.7400 O.3   270  SER270     -0.2179
     95  N         60.9930   92.0020   30.4710 N.am  271  GLY271     -0.1954
     96  CA        62.0270   91.1400   29.9330 C.3   271  GLY271      0.1869
     97  C         61.4290   89.9790   29.1490 C.2   271  GLY271      0.2309
     98  O         60.5830   90.1630   28.2790 O.2   271  GLY271     -0.2863
     99  N         56.0120   99.4350   31.6280 N.3   298  SER298     -0.1202
    100  CA        56.3770   99.9280   30.3010 C.3   298  SER298      0.2020
    101  C         56.7180   98.6710   29.5240 C.2   298  SER298      0.2619
    102  O         57.8520   98.2030   29.5380 O.2   298  SER298     -0.2717
    103  CB        57.5720  100.8980   30.3450 C.3   298  SER298      0.2103
    104  OG        58.0260  101.2340   29.0360 O.3   298  SER298     -0.2182
    105  N         55.6920   98.0840   28.9150 N.am  299  TYR299     -0.1961
    106  CA        55.7740   96.7510   28.3620 C.3   299  TYR299      0.1771
    107  C         55.6610   96.7970   26.8590 C.2   299  TYR299      0.2620
    108  O         54.8750   97.6050   26.2970 O.2   299  TYR299     -0.2715
    109  CB        54.6090   95.9240   28.8750 C.3   299  TYR299      0.0574
    110  CG        54.6780   95.5090   30.3250 C.ar  299  TYR299     -0.0198
    111  CD1       55.8200   95.7060   31.0990 C.ar  299  TYR299     -0.0009
    112  CD2       53.6030   94.8590   30.9090 C.ar  299  TYR299     -0.0009
    113  CE1       55.8540   95.2740   32.4450 C.ar  299  TYR299      0.0417
    114  CE2       53.6380   94.4370   32.2240 C.ar  299  TYR299      0.0417
    115  CZ        54.7570   94.6600   32.9970 C.ar  299  TYR299      0.1957
    116  OH        54.7740   94.2310   34.3120 O.3   299  TYR299     -0.2866
    117  N         56.4360   95.9210   26.2190 N.am  300  GLY300     -0.1940
    118  CA        56.3990   95.7710   24.7670 C.3   300  GLY300      0.2014
    119  C         55.8080   94.4430   24.4000 C.2   300  GLY300      0.2638
    120  O         54.6200   94.3450   24.1330 O.2   300  GLY300     -0.2714
    121  N         56.6320   93.4090   24.3930 N.am  301  ARG301     -0.1977
    122  CA        56.1360   92.0400   24.1510 C.3   301  ARG301      0.1597
    123  C         54.9770   91.6200   25.0550 C.2   301  ARG301      0.2287
    124  O         54.0670   90.9260   24.5980 O.2   301  ARG301     -0.2864
    125  CB        57.2620   91.0120   24.3040 C.3   301  ARG301      0.0334
    126  CG        58.2200   90.9770   23.1060 C.3   301  ARG301      0.0492
    127  CD        59.6080   90.3730   23.4900 C.3   301  ARG301      0.2205
    128  NE        60.1480   90.9930   24.7050 N.pl3 301  ARG301     -0.0865
    129  CZ        61.4210   91.3430   24.9100 C.cat 301  ARG301      0.5346
    130  NH1       62.3600   91.1420   23.9840 N.pl3 301  ARG301      0.1354
    131  NH2       61.7480   91.9030   26.0770 N.pl3 301  ARG301      0.1354
@<TRIPOS>BOND
     1    25    26    2
     2    25    24    1
     3    23    24    1
     4    24    27    1
     5    17    16    2
     6    27    28    1
     7    16    15    1
     8    28    29    1
     9    18    15    1
    10    18    19    1
    11    15    14    1
    12    21    20   ar
    13    14     8   am
    14    29    30    1
    15    19    20    1
    16    20    22   ar
    17     8     9    2
    18     8     7    1
    19    32    31    1
    20     7     6    1
    21     7    10    1
    22    30    31    2
    23    31    33    1
    24    10    11    1
    25    11    12   ar
    26    11    13   ar
    27     4     3    2
    28     3     2    1
    29   126   127    1
    30   126   125    1
    31   127   128    1
    32   130   129    1
    33   120   119    2
    34   122   125    1
    35   122   121    1
    36   122   123    1
    37    42    41    1
    38   121   119   am
    39   119   118    1
    40     2     1    1
    41     2     5    1
    42   124   123    2
    43   128   129    2
    44   118   117    1
    45    37    36    2
    46   129   131    1
    47    52    51    1
    48    40    41    1
    49    40    39    1
    50    34    35    1
    51    36    35    1
    52    38    39    1
    53    38    35    1
    54   117   107   am
    55   108   107    2
    56    51    53    1
    57    51    50    2
    58    49    50    1
    59    49    48    1
    60    47    48    1
    61    47    44    1
    62   107   106    1
    63    46    45    2
    64    43    44    1
    65    44    45    1
    66    98    97    2
    67   106   109    1
    68   106   105    1
    69    80    79    1
    70    61    60   ar
    71   109   110    1
    72   105   101   am
    73   104   103    1
    74    97    96    1
    75    70    69   ar
    76    62    60   ar
    77    60    59    1
    78   101   102    2
    79   101   100    1
    80    79    78    1
    81    94    93    1
    82    96    95    1
    83   100   103    1
    84   100    99    1
    85    69    71   ar
    86    69    68    1
    87   110   112   ar
    88   110   111   ar
    89    95    91   am
    90    78    77    1
    91    59    58    1
    92   112   114   ar
    93    58    55    1
    94   111   113   ar
    95    93    90    1
    96    91    92    2
    97    91    90    1
    98    89    90    1
    99    89    83   am
   100    57    56    2
   101    67    68    1
   102    67    64    1
   103    85    82    1
   104    85    86    1
   105    77    76    1
   106    82    83    1
   107    82    81    1
   108    87    86    1
   109   114   115   ar
   110    55    54    1
   111    55    56    1
   112    88    86    1
   113   113   115   ar
   114    83    84    2
   115    66    65    2
   116    76    73    1
   117    64    63    1
   118    64    65    1
   119   115   116    1
   120    75    74    2
   121    73    74    1
   122    73    72    1
