@<TRIPOS>MOLECULE
tmp/3kxcA00.pdb
 206 195 0 0 0
SMALL
GASTEIGER

@<TRIPOS>ATOM
      1  N        -20.2290    0.3430   17.4360 N.3     4  PHE4       -0.1241
      2  CA       -18.8530    0.3570   16.9280 C.3     4  PHE4        0.1605
      3  C        -18.0550    1.5940   17.3870 C.2     4  PHE4        0.2264
      4  O        -16.9160    1.4680   17.8570 O.2     4  PHE4       -0.2867
      5  CB       -18.7780    0.1920   15.4060 C.3     4  PHE4        0.0534
      6  CG       -17.3740    0.3170   14.8760 C.ar    4  PHE4       -0.0203
      7  CD1      -16.4890   -0.7540   14.9740 C.ar    4  PHE4       -0.0042
      8  CD2      -16.9230    1.5200   14.3320 C.ar    4  PHE4       -0.0042
      9  CE1      -15.1830   -0.6430   14.5240 C.ar    4  PHE4       -0.0003
     10  CE2      -15.6070    1.6450   13.8740 C.ar    4  PHE4       -0.0003
     11  CZ       -14.7360    0.5560   13.9730 C.ar    4  PHE4       -0.0000
     12  N         -7.8640   -6.6480   10.9420 N.3    36  ILE36      -0.1245
     13  CA        -9.2950   -6.5640   10.6580 C.3    36  ILE36       0.1561
     14  C         -9.5490   -6.5670    9.1390 C.2    36  ILE36       0.2260
     15  O        -10.3710   -7.3420    8.6450 O.2    36  ILE36      -0.2867
     16  CB        -9.9470   -5.3230   11.3670 C.3    36  ILE36       0.0252
     17  CG1      -10.0370   -5.5730   12.8900 C.3    36  ILE36       0.0019
     18  CG2      -11.3330   -5.0280   10.8000 C.3    36  ILE36       0.0019
     19  CD1      -10.2790   -4.2990   13.7300 C.3    36  ILE36       0.0001
     20  N        -12.0420   -8.4870    6.7910 N.3    40  LEU40      -0.1231
     21  CA       -13.1240   -7.6960    6.2150 C.3    40  LEU40       0.1693
     22  C        -13.3160   -7.9360    4.7190 C.2    40  LEU40       0.2591
     23  O        -14.4450   -7.9880    4.2350 O.2    40  LEU40      -0.2718
     24  CB       -12.8910   -6.2030    6.4770 C.3    40  LEU40       0.0284
     25  CG       -14.0430   -5.2420    6.2060 C.3    40  LEU40       0.0019
     26  CD1      -15.2780   -5.6680    6.9820 C.3    40  LEU40       0.0001
     27  CD2      -13.6440   -3.8470    6.6130 C.3    40  LEU40       0.0001
     28  N        -12.2140   -8.0980    3.9980 N.am   41  ILE41      -0.1980
     29  CA       -12.2630   -8.2730    2.5430 C.3    41  ILE41       0.1595
     30  C        -13.0930   -9.4970    2.1170 C.2    41  ILE41       0.2287
     31  O        -13.8320   -9.4400    1.1270 O.2    41  ILE41      -0.2864
     32  CB       -10.8360   -8.2700    1.9080 C.3    41  ILE41       0.0276
     33  CG1      -10.9040   -8.2310    0.3710 C.3    41  ILE41       0.0022
     34  CG2      -10.0160   -9.4630    2.3870 C.3    41  ILE41       0.0022
     35  CD1      -11.4370   -6.9220   -0.2010 C.3    41  ILE41       0.0001
     36  N        -16.6270   -8.5370    2.5810 N.3    44  PHE44      -0.1227
     37  CA       -17.0230   -7.5920    1.5420 C.3    44  PHE44       0.1736
     38  C        -17.2740   -8.2600    0.1850 C.2    44  PHE44       0.2595
     39  O        -18.3020   -8.0040   -0.4620 O.2    44  PHE44      -0.2718
     40  CB       -16.0010   -6.4530    1.3920 C.3    44  PHE44       0.0547
     41  CG       -16.3110   -5.5300    0.2480 C.ar   44  PHE44      -0.0202
     42  CD1      -17.3500   -4.6070    0.3480 C.ar   44  PHE44      -0.0042
     43  CD2      -15.5930   -5.6090   -0.9450 C.ar   44  PHE44      -0.0042
     44  CE1      -17.6640   -3.7680   -0.7170 C.ar   44  PHE44      -0.0003
     45  CE2      -15.8990   -4.7700   -2.0180 C.ar   44  PHE44      -0.0003
     46  CZ       -16.9340   -3.8450   -1.8990 C.ar   44  PHE44      -0.0000
     47  N        -16.3420   -9.1140   -0.2360 N.am   45  LEU45      -0.1980
     48  CA       -16.4290   -9.7810   -1.5410 C.3    45  LEU45       0.1596
     49  C        -17.6090  -10.7420   -1.6320 C.2    45  LEU45       0.2287
     50  O        -18.1490  -10.9710   -2.7170 O.2    45  LEU45      -0.2864
     51  CB       -15.1160  -10.4980   -1.8760 C.3    45  LEU45       0.0297
     52  CG       -13.8900   -9.6250   -2.1680 C.3    45  LEU45       0.0022
     53  CD1      -12.6280  -10.4660   -2.2550 C.3    45  LEU45       0.0001
     54  CD2      -14.0780   -8.7980   -3.4280 C.3    45  LEU45       0.0001
     55  N        -19.1430   -6.4800   -7.1400 N.3    50  VAL50      -0.1231
     56  CA       -18.3780   -5.3400   -7.6460 C.3    50  VAL50       0.1692
     57  C        -17.6430   -5.6420   -8.9580 C.2    50  VAL50       0.2593
     58  O        -17.0420   -4.7480   -9.5650 O.2    50  VAL50      -0.2718
     59  CB       -17.3580   -4.8510   -6.5900 C.3    50  VAL50       0.0266
     60  CG1      -16.4210   -3.8230   -7.1080 C.3    50  VAL50       0.0020
     61  CG2      -17.9810   -4.4920   -5.2670 C.3    50  VAL50       0.0020
     62  N        -17.7160   -6.8970   -9.3970 N.am   51  GLY51      -0.1942
     63  CA       -16.8640   -7.3910  -10.4740 C.3    51  GLY51       0.2014
     64  C        -15.4470   -7.4430   -9.9400 C.2    51  GLY51       0.2639
     65  O        -15.2340   -7.7670   -8.7660 O.2    51  GLY51      -0.2714
     66  N        -14.4790   -7.1220  -10.7950 N.am   52  ARG52      -0.1963
     67  CA       -13.1040   -6.9070  -10.3440 C.3    52  ARG52       0.1729
     68  C        -12.4930   -5.6620  -10.9770 C.2    52  ARG52       0.2616
     69  O        -12.6270   -5.4310  -12.1790 O.2    52  ARG52      -0.2715
     70  CB       -12.2220   -8.1420  -10.5790 C.3    52  ARG52       0.0348
     71  CG       -12.3500   -9.2350   -9.5060 C.3    52  ARG52       0.0492
     72  CD       -12.2540   -8.6770   -8.0790 C.3    52  ARG52       0.2205
     73  NE       -12.1170   -9.7350   -7.0800 N.pl3  52  ARG52      -0.0865
     74  CZ       -11.0120   -9.9680   -6.3740 C.cat  52  ARG52       0.5346
     75  NH1       -9.9350   -9.2070   -6.5380 N.pl3  52  ARG52       0.1354
     76  NH2      -10.9860  -10.9610   -5.4940 N.pl3  52  ARG52       0.1354
     77  N        -11.8280   -4.8670  -10.1430 N.am   53  ALA53      -0.1977
     78  CA       -11.2700   -3.5860  -10.5500 C.3    53  ALA53       0.1597
     79  C         -9.9240   -3.7530  -11.2510 C.2    53  ALA53       0.2287
     80  O         -8.9300   -4.1250  -10.6220 O.2    53  ALA53      -0.2864
     81  CB       -11.1380   -2.6800   -9.3390 C.3    53  ALA53       0.0319
     82  N        -10.7430    0.6510   -8.3540 N.3    59  THR59      -0.1218
     83  CA       -10.6490    0.2760   -6.9440 C.3    59  THR59       0.1862
     84  C        -11.1250    1.4230   -6.0560 C.2    59  THR59       0.2287
     85  O        -11.8850    1.2040   -5.1120 O.2    59  THR59      -0.2866
     86  CB        -9.2080   -0.1220   -6.5570 C.3    59  THR59       0.1770
     87  OG1       -8.7420   -1.1550   -7.4360 O.3    59  THR59      -0.2211
     88  CG2       -9.1580   -0.6280   -5.1320 C.3    59  THR59       0.0375
     89  N        -14.8700    1.5350   -5.9850 N.3    62  VAL62      -0.1231
     90  CA       -15.3810    0.4490   -5.1570 C.3    62  VAL62       0.1692
     91  C        -15.2450    0.7720   -3.6760 C.2    62  VAL62       0.2591
     92  O        -16.2020    0.6140   -2.9120 O.2    62  VAL62      -0.2718
     93  CB       -14.7130   -0.9090   -5.4970 C.3    62  VAL62       0.0266
     94  CG1      -15.1170   -1.9720   -4.4840 C.3    62  VAL62       0.0020
     95  CG2      -15.1020   -1.3590   -6.9090 C.3    62  VAL62       0.0020
     96  N        -14.0630    1.2400   -3.2720 N.am   63  ILE63      -0.1980
     97  CA       -13.8480    1.6430   -1.8860 C.3    63  ILE63       0.1595
     98  C        -14.8430    2.7460   -1.4660 C.2    63  ILE63       0.2287
     99  O        -15.6300    2.5540   -0.5380 O.2    63  ILE63      -0.2864
    100  CB       -12.4010    2.1210   -1.6420 C.3    63  ILE63       0.0276
    101  CG1      -11.3900    1.0090   -1.9620 C.3    63  ILE63       0.0022
    102  CG2      -12.2390    2.6020   -0.2030 C.3    63  ILE63       0.0022
    103  CD1       -9.9250    1.5010   -2.0320 C.3    63  ILE63       0.0001
    104  N        -17.9230    0.1320   -0.5150 N.3    67  ALA67      -0.1231
    105  CA       -17.4250   -0.4000    0.7620 C.3    67  ALA67       0.1694
    106  C        -17.6610    0.5120    1.9640 C.2    67  ALA67       0.2592
    107  O        -18.1310    0.0470    3.0040 O.2    67  ALA67      -0.2718
    108  CB       -15.9610   -0.7550    0.6540 C.3    67  ALA67       0.0304
    109  N        -17.3290    1.8000    1.8270 N.am   68  PHE68      -0.1976
    110  CA       -17.5990    2.7850    2.8790 C.3    68  PHE68       0.1639
    111  C        -19.0880    2.8690    3.1520 C.2    68  PHE68       0.2290
    112  O        -19.5130    2.9600    4.3050 O.2    68  PHE68      -0.2864
    113  CB       -17.0660    4.1700    2.4940 C.3    68  PHE68       0.0560
    114  CG       -15.7000    4.4620    3.0280 C.ar   68  PHE68      -0.0200
    115  CD1      -14.5670    4.0970    2.3170 C.ar   68  PHE68      -0.0042
    116  CD2      -15.5440    5.1020    4.2570 C.ar   68  PHE68      -0.0042
    117  CE1      -13.2910    4.3620    2.8190 C.ar   68  PHE68      -0.0003
    118  CE2      -14.2720    5.3720    4.7710 C.ar   68  PHE68      -0.0003
    119  CZ       -13.1460    5.0170    4.0420 C.ar   68  PHE68      -0.0000
    120  N        -20.1270   -0.3980    5.1010 N.3    71  TYR71      -0.1227
    121  CA       -19.6540   -0.5150    6.4850 C.3    71  TYR71       0.1736
    122  C        -19.9120    0.6960    7.3810 C.2    71  TYR71       0.2595
    123  O        -20.1600    0.5370    8.5790 O.2    71  TYR71      -0.2718
    124  CB       -18.1820   -0.9570    6.5340 C.3    71  TYR71       0.0548
    125  CG       -17.9880   -2.3310    5.9400 C.ar   71  TYR71      -0.0200
    126  CD1      -17.3190   -2.5070    4.7250 C.ar   71  TYR71      -0.0009
    127  CD2      -18.5180   -3.4560    6.5720 C.ar   71  TYR71      -0.0009
    128  CE1      -17.1690   -3.7780    4.1640 C.ar   71  TYR71       0.0417
    129  CE2      -18.3820   -4.7180    6.0210 C.ar   71  TYR71       0.0417
    130  CZ       -17.7050   -4.8760    4.8250 C.ar   71  TYR71       0.1957
    131  OH       -17.5770   -6.1390    4.3070 O.3    71  TYR71      -0.2866
    132  N        -19.8660    1.8950    6.8040 N.am   72  LEU72      -0.1980
    133  CA       -20.0130    3.1300    7.5810 C.3    72  LEU72       0.1596
    134  C        -21.2540    3.9630    7.2170 C.2    72  LEU72       0.2287
    135  O        -21.6040    4.9020    7.9280 O.2    72  LEU72      -0.2864
    136  CB       -18.7370    3.9770    7.4720 C.3    72  LEU72       0.0297
    137  CG       -17.6540    3.9750    8.5720 C.3    72  LEU72       0.0022
    138  CD1      -17.8370    2.9060    9.6450 C.3    72  LEU72       0.0001
    139  CD2      -16.2200    3.9360    8.0000 C.3    72  LEU72       0.0001
    140  N        -14.5900    7.7900   12.4670 N.3    97  LEU97      -0.1245
    141  CA       -14.7520    6.8730   13.6040 C.3    97  LEU97       0.1561
    142  C        -14.8760    7.5800   14.9400 C.2    97  LEU97       0.2260
    143  O        -15.2800    6.9520   15.9200 O.2    97  LEU97      -0.2867
    144  CB       -13.6100    5.8280   13.6560 C.3    97  LEU97       0.0270
    145  CG       -13.2360    4.9850   12.4220 C.3    97  LEU97       0.0019
    146  CD1      -12.2390    3.8670   12.7910 C.3    97  LEU97       0.0001
    147  CD2      -14.4540    4.3970   11.7110 C.3    97  LEU97       0.0001
    148  N         -6.8040    3.1930   12.7730 N.3   115  LEU115     -0.1231
    149  CA        -7.2480    1.8170   12.5220 C.3   115  LEU115      0.1693
    150  C         -7.7850    1.6670   11.0830 C.2   115  LEU115      0.2591
    151  O         -7.5320    0.6650   10.4160 O.2   115  LEU115     -0.2718
    152  CB        -8.2880    1.3920   13.5510 C.3   115  LEU115      0.0284
    153  CG        -8.8200   -0.0450   13.4120 C.3   115  LEU115      0.0019
    154  CD1       -8.6370   -0.8300   14.7000 C.3   115  LEU115      0.0001
    155  CD2      -10.2760   -0.0420   12.9580 C.3   115  LEU115      0.0001
    156  N         -8.4950    2.6910   10.6120 N.am  116  LEU116     -0.1980
    157  CA        -9.0780    2.6910    9.2790 C.3   116  LEU116      0.1596
    158  C         -8.0130    2.5860    8.1880 C.2   116  LEU116      0.2287
    159  O         -8.2570    1.9540    7.1740 O.2   116  LEU116     -0.2864
    160  CB        -9.9650    3.9340    9.0670 C.3   116  LEU116      0.0297
    161  CG       -10.7110    4.1530    7.7410 C.3   116  LEU116      0.0022
    162  CD1      -11.5010    2.9170    7.3030 C.3   116  LEU116      0.0001
    163  CD2      -11.6550    5.3740    7.8430 C.3   116  LEU116      0.0001
    164  N         -7.0450   -1.0600    8.1700 N.3   119  VAL119     -0.1231
    165  CA        -8.1330   -1.7840    7.5000 C.3   119  VAL119      0.1692
    166  C         -7.9530   -1.7020    5.9740 C.2   119  VAL119      0.2591
    167  O         -7.9150   -2.7250    5.2900 O.2   119  VAL119     -0.2718
    168  CB        -9.5380   -1.2480    7.9140 C.3   119  VAL119      0.0266
    169  CG1      -10.6410   -1.8950    7.0600 C.3   119  VAL119      0.0020
    170  CG2       -9.8180   -1.5290    9.3990 C.3   119  VAL119      0.0020
    171  N         -7.8310   -0.4810    5.4570 N.am  120  LEU120     -0.1980
    172  CA        -7.6030   -0.2640    4.0210 C.3   120  LEU120      0.1596
    173  C         -6.3860   -1.0180    3.4730 C.2   120  LEU120      0.2287
    174  O         -6.4790   -1.6950    2.4440 O.2   120  LEU120     -0.2864
    175  CB        -7.4890    1.2370    3.7210 C.3   120  LEU120      0.0297
    176  CG        -8.7920    2.0150    3.8610 C.3   120  LEU120      0.0022
    177  CD1       -8.5390    3.5260    4.0240 C.3   120  LEU120      0.0001
    178  CD2       -9.7030    1.7190    2.6660 C.3   120  LEU120      0.0001
    179  N         -7.0290   -4.9860    3.7010 N.3   123  ALA123     -0.1231
    180  CA        -8.0370   -5.4620    2.7590 C.3   123  ALA123      0.1694
    181  C         -7.5010   -5.4480    1.3270 C.2   123  ALA123      0.2591
    182  O         -7.7650   -6.3670    0.5520 O.2   123  ALA123     -0.2718
    183  CB        -9.3270   -4.6450    2.8840 C.3   123  ALA123      0.0304
    184  N         -6.7200   -4.4290    0.9820 N.am  124  LEU124     -0.1980
    185  CA        -6.1640   -4.3540   -0.3690 C.3   124  LEU124      0.1596
    186  C         -5.0150   -5.3390   -0.5830 C.2   124  LEU124      0.2287
    187  O         -4.8480   -5.8900   -1.6810 O.2   124  LEU124     -0.2864
    188  CB        -5.7520   -2.9230   -0.7110 C.3   124  LEU124      0.0297
    189  CG        -6.9370   -1.9600   -0.8740 C.3   124  LEU124      0.0022
    190  CD1       -6.4600   -0.5120   -0.8870 C.3   124  LEU124      0.0001
    191  CD2       -7.7200   -2.2670   -2.1490 C.3   124  LEU124      0.0001
    192  N         -6.2490   -8.4350   -2.0300 N.3   127  VAL127     -0.1245
    193  CA        -6.5180   -8.4220   -3.4770 C.3   127  VAL127      0.1561
    194  C         -5.2580   -8.0860   -4.2840 C.2   127  VAL127      0.2260
    195  O         -5.3370   -7.5790   -5.4110 O.2   127  VAL127     -0.2867
    196  CB        -7.7500   -7.5470   -3.8770 C.3   127  VAL127      0.0252
    197  CG1       -9.0270   -8.1490   -3.3040 C.3   127  VAL127      0.0019
    198  CG2       -7.5790   -6.0900   -3.4410 C.3   127  VAL127      0.0019
    199  N         -2.7780   -5.9100   -3.8570 N.3   129  MET129     -0.1245
    200  CA        -2.3200   -4.5290   -3.9870 C.3   129  MET129      0.1570
    201  C         -1.6210   -4.0590   -2.7200 C.2   129  MET129      0.2261
    202  O         -2.2560   -3.9360   -1.6640 O.2   129  MET129     -0.2867
    203  CB        -3.4870   -3.5870   -4.2860 C.3   129  MET129      0.0387
    204  CG        -4.2790   -3.9290   -5.5250 C.3   129  MET129      0.0595
    205  SD        -5.4440   -2.6090   -5.8920 S.3   129  MET129     -0.1393
    206  CE        -6.8540   -3.5830   -6.4320 C.3   129  MET129      0.0692
@<TRIPOS>BOND
     1    69    68    2
     2    79    80    2
     3    79    78    1
     4    68    67    1
     5    68    77   am
     6    66    67    1
     7    66    64   am
     8    70    67    1
     9    70    71    1
    10    78    77    1
    11    78    81    1
    12    63    64    1
    13    63    62    1
    14    64    65    2
    15    58    57    2
    16    71    72    1
    17    62    57   am
    18    57    56    1
    19    82    83    1
    20    72    73    1
    21    56    55    1
    22    56    59    1
    23    87    86    1
    24    60    59    1
    25    73    74    2
    26    83    86    1
    27    83    84    1
    28    95    93    1
    29    59    61    1
    30    86    88    1
    31    75    74    1
    32   206   205    1
    33    74    76    1
    34    84    85    2
    35    89    90    1
    36   205   204    1
    37   204   203    1
    38    93    90    1
    39    93    94    1
    40   195   194    2
    41    90    91    1
    42   203   200    1
    43   194   193    1
    44   200   199    1
    45   200   201    1
    46   196   193    1
    47   196   198    1
    48   196   197    1
    49    91    96   am
    50    91    92    2
    51   193   192    1
    52    54    52    1
    53    96    97    1
    54   201   202    2
    55    50    49    2
    56    53    52    1
    57    52    51    1
    58   191   189    1
    59   103   101    1
    60    45    46   ar
    61    45    43   ar
    62   101   100    1
    63    46    44   ar
    64    97   100    1
    65    97    98    1
    66    51    48    1
    67   187   186    2
    68   100   102    1
    69    49    48    1
    70    48    47    1
    71    98    99    2
    72    43    41   ar
    73   190   189    1
    74   189   188    1
    75    44    42   ar
    76   188   185    1
    77   186   185    1
    78   104   105    1
    79    39    38    2
    80   185   184    1
    81    47    38   am
    82    35    33    1
    83    38    37    1
    84    41    42   ar
    85    41    40    1
    86    33    32    1
    87   182   181    2
    88   108   105    1
    89   105   106    1
    90   184   181   am
    91    31    30    2
    92   181   180    1
    93    40    37    1
    94    37    36    1
    95   109   106   am
    96   109   110    1
    97    32    34    1
    98    32    29    1
    99   106   107    2
   100    30    29    1
   101   115   117   ar
   102   115   114   ar
   103   174   173    2
   104   113   110    1
   105   113   114    1
   106    29    28    1
   107   178   176    1
   108   180   183    1
   109   180   179    1
   110   117   119   ar
   111   110   111    1
   112   114   116   ar
   113   111   112    2
   114   173   172    1
   115   175   176    1
   116   175   172    1
   117   176   177    1
   118    28    22   am
   119   172   171    1
   120   119   118   ar
   121   128   126   ar
   122   128   130   ar
   123    23    22    2
   124   116   118   ar
   125   131   130    1
   126    22    21    1
   127   126   125   ar
   128   130   129   ar
   129   120   121    1
   130   167   166    2
   131   171   166   am
   132   125   124    1
   133   125   127   ar
   134   166   165    1
   135   129   127   ar
   136    25    24    1
   137    25    27    1
   138    25    26    1
   139    21    24    1
   140    21    20    1
   141   121   124    1
   142   121   122    1
   143   132   122   am
   144   132   133    1
   145   169   168    1
   146   159   158    2
   147   134   133    1
   148   134   135    2
   149   162   161    1
   150   122   123    2
   151   136   133    1
   152   136   137    1
   153   165   168    1
   154   165   164    1
   155   161   163    1
   156   161   160    1
   157   168   170    1
   158   139   137    1
   159   158   157    1
   160   137   138    1
   161    15    14    2
   162   160   157    1
   163    14    13    1
   164   157   156    1
   165   151   150    2
   166   156   150   am
   167    13    12    1
   168    13    16    1
   169    18    16    1
   170   150   149    1
   171    16    17    1
   172   147   145    1
   173   145   146    1
   174   145   144    1
   175   140   141    1
   176   149   148    1
   177   149   152    1
   178    17    19    1
   179   155   153    1
   180   153   152    1
   181   153   154    1
   182   141   144    1
   183   141   142    1
   184    10    11   ar
   185    10     8   ar
   186    11     9   ar
   187     8     6   ar
   188     9     7   ar
   189     6     7   ar
   190     6     5    1
   191   142   143    2
   192     5     2    1
   193     2     3    1
   194     2     1    1
   195     3     4    2
