@<TRIPOS>MOLECULE
tmp/3kxgA00.pdb
 93 84 0 0 0
SMALL
GASTEIGER

@<TRIPOS>ATOM
      1  N         26.4090    7.7510   26.2150 N.3    39  VAL39      -0.1231
      2  CA        25.0810    7.1380   26.1830 C.3    39  VAL39       0.1692
      3  C         25.0880    5.8060   25.4440 C.2    39  VAL39       0.2592
      4  O         24.1020    5.0740   25.4870 O.2    39  VAL39      -0.2718
      5  CB        23.9980    8.0670   25.5790 C.3    39  VAL39       0.0266
      6  CG1       23.8450    9.3180   26.4300 C.3    39  VAL39       0.0020
      7  CG2       24.3250    8.4430   24.1750 C.3    39  VAL39       0.0020
      8  N         26.1850    5.4980   24.7640 N.am   40  GLY40      -0.1957
      9  CA        26.2600    4.2200   24.0620 C.3    40  GLY40       0.1869
     10  C         27.6200    3.9240   23.4950 C.2    40  GLY40       0.2309
     11  O         28.4950    4.7970   23.4190 O.2    40  GLY40      -0.2863
     12  N         29.1940    6.8890   21.6780 N.3    47  VAL47      -0.1245
     13  CA        28.1390    7.8700   21.4800 C.3    47  VAL47       0.1561
     14  C         27.9070    8.6080   22.7830 C.2    47  VAL47       0.2260
     15  O         27.8520    7.9950   23.8430 O.2    47  VAL47      -0.2867
     16  CB        26.8300    7.1890   20.9630 C.3    47  VAL47       0.0252
     17  CG1       25.7430    8.1700   20.8250 C.3    47  VAL47       0.0019
     18  CG2       27.0900    6.5970   19.5740 C.3    47  VAL47       0.0019
     19  N         23.7450   14.7490   19.6760 N.3    60  ILE60      -0.1245
     20  CA        24.4500   13.4960   19.8470 C.3    60  ILE60       0.1561
     21  C         25.7660   13.5960   19.0880 C.2    60  ILE60       0.2260
     22  O         25.8070   14.0690   17.9460 O.2    60  ILE60      -0.2867
     23  CB        23.5520   12.2660   19.3830 C.3    60  ILE60       0.0252
     24  CG1       22.3850   12.0890   20.3580 C.3    60  ILE60       0.0019
     25  CG2       24.3470   10.9690   19.3610 C.3    60  ILE60       0.0019
     26  CD1       22.7320   11.4420   21.7110 C.3    60  ILE60       0.0001
     27  N         28.8750   11.3200   17.8670 N.3    62  LYS62      -0.1245
     28  CA        29.2360    9.9420   17.6100 C.3    62  LYS62       0.1561
     29  C         30.7010    9.9850   17.3040 C.2    62  LYS62       0.2260
     30  O         31.0720   10.4810   16.2460 O.2    62  LYS62      -0.2867
     31  CB        28.4340    9.4300   16.4100 C.3    62  LYS62       0.0271
     32  CG        28.5070    7.9360   16.2190 C.3    62  LYS62       0.0035
     33  CD        28.0250    7.5590   14.8120 C.3    62  LYS62       0.0206
     34  CE        27.8440    6.0510   14.6470 C.3    62  LYS62       0.1093
     35  NZ        27.4060    5.8320   13.2310 N.3    62  LYS62      -0.1314
     36  N         17.4240    9.9890   11.2290 N.3    88  VAL88      -0.1245
     37  CA        18.4000   10.7830   12.0070 C.3    88  VAL88       0.1561
     38  C         19.0010   11.9180   11.1680 C.2    88  VAL88       0.2260
     39  O         19.3930   11.6880   10.0280 O.2    88  VAL88      -0.2867
     40  CB        19.5120    9.8930   12.6420 C.3    88  VAL88       0.0252
     41  CG1       20.5780    9.4620   11.6210 C.3    88  VAL88       0.0019
     42  CG2       20.1050   10.6590   13.8550 C.3    88  VAL88       0.0019
     43  N         24.7660   14.7840   15.4290 N.3   106  PHE106     -0.1227
     44  CA        23.3810   14.5490   15.0420 C.3   106  PHE106      0.1736
     45  C         22.4420   15.4290   15.8800 C.2   106  PHE106      0.2595
     46  O         22.8350   15.9450   16.9210 O.2   106  PHE106     -0.2718
     47  CB        23.0730   13.0560   15.2690 C.3   106  PHE106      0.0547
     48  CG        23.8560   12.1430   14.3900 C.ar  106  PHE106     -0.0202
     49  CD1       23.4660   11.9160   13.0640 C.ar  106  PHE106     -0.0042
     50  CD2       24.9860   11.4630   14.8920 C.ar  106  PHE106     -0.0042
     51  CE1       24.2000   11.0410   12.2330 C.ar  106  PHE106     -0.0003
     52  CE2       25.7320   10.5900   14.0840 C.ar  106  PHE106     -0.0003
     53  CZ        25.3160   10.3770   12.7400 C.ar  106  PHE106     -0.0000
     54  N         21.2150   15.6300   15.3970 N.am  107  GLU107     -0.1979
     55  CA        20.0840   16.0730   16.2210 C.3   107  GLU107      0.1602
     56  C         20.0020   15.2030   17.4620 C.2   107  GLU107      0.2287
     57  O         20.2280   14.0140   17.3870 O.2   107  GLU107     -0.2864
     58  CB        18.7660   15.9110   15.4350 C.3   107  GLU107      0.0415
     59  CG        18.4920   14.4040   14.9740 C.3   107  GLU107      0.1163
     60  CD        17.0420   14.0970   14.4840 C.2   107  GLU107      0.3649
     61  OE1       16.0410   14.3200   15.1910 O.co2 107  GLU107     -0.2457
     62  OE2       16.9170   13.5720   13.3770 O.co2 107  GLU107     -0.2457
     63  N         18.0740   13.0300   20.1850 N.3   109  VAL109     -0.1245
     64  CA        16.8140   12.3100   20.4050 C.3   109  VAL109      0.1561
     65  C         16.7930   11.7640   21.8070 C.2   109  VAL109      0.2260
     66  O         17.7340   11.1090   22.2510 O.2   109  VAL109     -0.2867
     67  CB        16.5630   11.1320   19.4110 C.3   109  VAL109      0.0252
     68  CG1       15.2530   10.4650   19.7480 C.3   109  VAL109      0.0019
     69  CG2       16.5680   11.6150   17.9830 C.3   109  VAL109      0.0019
     70  N         15.9690    9.2640   23.7380 N.3   111  ASN111     -0.1240
     71  CA        15.6400    7.8310   23.6820 C.3   111  ASN111      0.1653
     72  C         15.3970    7.1020   25.0040 C.2   111  ASN111      0.2266
     73  O         16.0470    7.3680   26.0250 O.2   111  ASN111     -0.2867
     74  CB        16.7460    7.1010   22.9070 C.3   111  ASN111      0.1155
     75  CG        16.4530    5.6410   22.7040 C.2   111  ASN111      0.2627
     76  OD1       15.4900    5.2920   22.0220 O.2   111  ASN111     -0.2716
     77  ND2       17.2700    4.7660   23.3050 N.am  111  ASN111     -0.0877
     78  N         15.7900    4.7800   17.6460 N.3   156  MET156     -0.1245
     79  CA        15.7230    5.6820   18.8060 C.3   156  MET156      0.1570
     80  C         14.2790    6.1830   18.9220 C.2   156  MET156      0.2261
     81  O         13.7250    6.6720   17.9500 O.2   156  MET156     -0.2867
     82  CB        16.7070    6.8460   18.6220 C.3   156  MET156      0.0387
     83  CG        18.1800    6.4550   18.6220 C.3   156  MET156      0.0595
     84  SD        18.6010    5.6850   20.1680 S.3   156  MET156     -0.1393
     85  CE        19.0230    3.9890   19.7970 C.3   156  MET156      0.0692
     86  N         18.6060    5.2550   13.0180 N.3   167  ILE167     -0.1245
     87  CA        19.9960    5.7040   13.2120 C.3   167  ILE167      0.1561
     88  C         21.0180    4.6520   12.7230 C.2   167  ILE167      0.2260
     89  O         20.6270    3.5490   12.3500 O.2   167  ILE167     -0.2867
     90  CB        20.2950    6.0660   14.7140 C.3   167  ILE167      0.0252
     91  CG1       20.1810    4.8390   15.6700 C.3   167  ILE167      0.0019
     92  CG2       19.3120    7.1870   15.1980 C.3   167  ILE167      0.0019
     93  CD1       21.0650    4.8630   16.9100 C.3   167  ILE167      0.0001
@<TRIPOS>BOND
     1    39    38    2
     2    38    37    1
     3    36    37    1
     4    41    40    1
     5    37    40    1
     6    51    53   ar
     7    51    49   ar
     8    89    88    2
     9    40    42    1
    10    88    87    1
    11    53    52   ar
    12    86    87    1
    13    49    48   ar
    14    87    90    1
    15    35    34    1
    16    62    60   ar
    17    52    50   ar
    18    48    50   ar
    19    48    47    1
    20    60    59    1
    21    60    61   ar
    22    34    33    1
    23    90    92    1
    24    90    91    1
    25    33    32    1
    26    59    58    1
    27    44    47    1
    28    44    43    1
    29    44    45    1
    30    54    45   am
    31    54    55    1
    32    58    55    1
    33    91    93    1
    34    45    46    2
    35    32    31    1
    36    55    56    1
    37    30    29    2
    38    31    28    1
    39    29    28    1
    40    57    56    2
    41    28    27    1
    42    78    79    1
    43    22    21    2
    44    81    80    2
    45    69    67    1
    46    82    83    1
    47    82    79    1
    48    83    84    1
    49    79    80    1
    50    21    20    1
    51    25    23    1
    52    23    20    1
    53    23    24    1
    54    67    68    1
    55    67    64    1
    56    18    16    1
    57    19    20    1
    58    85    84    1
    59    63    64    1
    60    24    26    1
    61    64    65    1
    62    17    16    1
    63    16    13    1
    64    13    12    1
    65    13    14    1
    66    65    66    2
    67    76    75    2
    68    75    74    1
    69    75    77   am
    70    14    15    2
    71    74    71    1
    72    11    10    2
    73    10     9    1
    74    71    70    1
    75    71    72    1
    76     9     8    1
    77     7     5    1
    78     8     3   am
    79    72    73    2
    80     3     4    2
    81     3     2    1
    82     5     2    1
    83     5     6    1
    84     2     1    1
