@<TRIPOS>MOLECULE
tmp/3kxhA00.pdb
 153 143 0 0 0
SMALL
GASTEIGER

@<TRIPOS>ATOM
      1  N         26.6240    8.0330   26.8940 N.3    39  VAL39      -0.1231
      2  CA        25.2650    7.4190   26.7910 C.3    39  VAL39       0.1692
      3  C         25.2230    6.0710   26.0970 C.2    39  VAL39       0.2593
      4  O         24.2170    5.3790   26.1510 O.2    39  VAL39      -0.2718
      5  CB        24.1780    8.3140   26.1850 C.3    39  VAL39       0.0266
      6  CG1       23.9610    9.5440   27.0630 C.3    39  VAL39       0.0020
      7  CG2       24.5880    8.6910   24.6730 C.3    39  VAL39       0.0020
      8  N         26.2590    5.7570   25.2910 N.am   40  GLY40      -0.1942
      9  CA        26.2530    4.4590   24.6480 C.3    40  GLY40       0.2014
     10  C         27.5830    4.2280   23.9900 C.2    40  GLY40       0.2639
     11  O         28.5400    5.0140   24.1200 O.2    40  GLY40      -0.2714
     12  N         27.7000    3.0730   23.3830 N.am   41  ARG41      -0.1963
     13  CA        28.9700    2.6960   22.7730 C.3    41  ARG41       0.1729
     14  C         28.7260    1.5440   21.8450 C.2    41  ARG41       0.2616
     15  O         27.7820    0.8090   22.0180 O.2    41  ARG41      -0.2715
     16  CB        29.9890    2.2710   23.8680 C.3    41  ARG41       0.0348
     17  CG        29.3620    1.2910   24.9110 C.3    41  ARG41       0.0492
     18  CD        29.5940   -0.1460   24.4330 C.3    41  ARG41       0.2205
     19  NE        28.9970   -1.1550   25.3090 N.pl3  41  ARG41      -0.0865
     20  CZ        27.7740   -1.6580   25.1930 C.cat  41  ARG41       0.5346
     21  NH1       26.9080   -1.2320   24.2550 N.pl3  41  ARG41       0.1354
     22  NH2       27.4130   -2.6020   26.0630 N.pl3  41  ARG41       0.1354
     23  N         29.5730    1.4260   20.8210 N.am   42  GLY42      -0.1955
     24  CA        29.6010    0.2330   19.9700 C.3    42  GLY42       0.1869
     25  C         31.0190   -0.1590   19.6230 C.2    42  GLY42       0.2309
     26  O         32.0020    0.4300   20.0910 O.2    42  GLY42      -0.2863
     27  N         32.6270    3.1840   18.1870 N.3    45  SER45      -0.1217
     28  CA        32.4540    4.5140   18.6330 C.3    45  SER45       0.1889
     29  C         32.1130    4.4840   20.1430 C.2    45  SER45       0.2288
     30  O         31.7770    3.4600   20.6350 O.2    45  SER45      -0.2866
     31  CB        31.1890    5.1430   17.9410 C.3    45  SER45       0.2089
     32  OG        29.9530    4.5470   18.3260 O.3    45  SER45      -0.2183
     33  N         29.6000    7.2170   22.6020 N.3    47  VAL47      -0.1245
     34  CA        28.5120    8.0990   22.2230 C.3    47  VAL47       0.1561
     35  C         28.0980    8.8320   23.4750 C.2    47  VAL47       0.2260
     36  O         27.9110    8.1840   24.5280 O.2    47  VAL47      -0.2867
     37  CB        27.3240    7.3550   21.4850 C.3    47  VAL47       0.0252
     38  CG1       26.2080    8.2820   21.2350 C.3    47  VAL47       0.0019
     39  CG2       27.8820    6.7580   20.0940 C.3    47  VAL47       0.0019
     40  N         24.0220   14.8870   20.3080 N.3    60  ILE60      -0.1245
     41  CA        24.6740   13.6400   20.5550 C.3    60  ILE60       0.1561
     42  C         25.9990   13.6630   19.8150 C.2    60  ILE60       0.2260
     43  O         26.0400   14.0220   18.6180 O.2    60  ILE60      -0.2867
     44  CB        23.7780   12.4160   20.0460 C.3    60  ILE60       0.0252
     45  CG1       22.6030   12.1930   21.0460 C.3    60  ILE60       0.0019
     46  CG2       24.6270   11.1450   19.8720 C.3    60  ILE60       0.0019
     47  CD1       22.9970   11.5670   22.3250 C.3    60  ILE60       0.0001
     48  N         29.2610   11.4390   18.5390 N.3    62  LYS62      -0.1245
     49  CA        29.6570   10.0660   18.3340 C.3    62  LYS62       0.1561
     50  C         31.1050   10.1880   18.0330 C.2    62  LYS62       0.2260
     51  O         31.4680   10.6840   16.9290 O.2    62  LYS62      -0.2867
     52  CB        28.8870    9.4360   17.0940 C.3    62  LYS62       0.0271
     53  CG        29.2510    7.9830   16.7260 C.3    62  LYS62       0.0035
     54  CD        28.4280    7.5550   15.4940 C.3    62  LYS62       0.0206
     55  CE        28.9820    6.1730   14.9050 C.3    62  LYS62       0.1093
     56  NZ        27.9170    5.6070   13.9870 N.3    62  LYS62      -0.1314
     57  N         29.4910    6.2100    5.3540 N.3    75  GLU75      -0.1245
     58  CA        28.4910    6.5050    6.4600 C.3    75  GLU75       0.1567
     59  C         28.0660    7.9610    6.3810 C.2    75  GLU75       0.2260
     60  O         26.8800    8.2760    6.4110 O.2    75  GLU75      -0.2867
     61  CB        29.0350    6.1340    7.8480 C.3    75  GLU75       0.0388
     62  CG        28.0150    6.4570    8.9910 C.3    75  GLU75       0.1160
     63  CD        28.4740    6.0400   10.3710 C.2    75  GLU75       0.3649
     64  OE1       29.4840    5.3430   10.5440 O.co2  75  GLU75      -0.2457
     65  OE2       27.7250    6.3800   11.3570 O.co2  75  GLU75      -0.2457
     66  N         17.5240    9.8520   11.7560 N.3    88  VAL88      -0.1245
     67  CA        18.4280   10.6880   12.6100 C.3    88  VAL88       0.1561
     68  C         19.1610   11.7270   11.7760 C.2    88  VAL88       0.2260
     69  O         19.7200   11.3830   10.6810 O.2    88  VAL88      -0.2867
     70  CB        19.4430    9.8000   13.4490 C.3    88  VAL88       0.0252
     71  CG1       20.5840    9.2930   12.6590 C.3    88  VAL88       0.0019
     72  CG2       20.0220   10.6330   14.5680 C.3    88  VAL88       0.0019
     73  N         24.9020   14.7070   16.0990 N.3   106  PHE106     -0.1227
     74  CA        23.5340   14.4370   15.6770 C.3   106  PHE106      0.1736
     75  C         22.5440   15.1970   16.5440 C.2   106  PHE106      0.2595
     76  O         22.9110   15.6130   17.6440 O.2   106  PHE106     -0.2718
     77  CB        23.3220   12.9190   15.9550 C.3   106  PHE106      0.0547
     78  CG        24.0550   11.9870   15.0200 C.ar  106  PHE106     -0.0202
     79  CD1       23.5010   11.6050   13.7970 C.ar  106  PHE106     -0.0042
     80  CD2       25.2470   11.4210   15.4130 C.ar  106  PHE106     -0.0042
     81  CE1       24.1800   10.6600   12.9850 C.ar  106  PHE106     -0.0003
     82  CE2       25.9290   10.5110   14.5940 C.ar  106  PHE106     -0.0003
     83  CZ        25.3510   10.1150   13.3840 C.ar  106  PHE106     -0.0000
     84  N         21.2980   15.3180   16.0830 N.am  107  GLU107     -0.1979
     85  CA        20.2220   15.7290   16.9530 C.3   107  GLU107      0.1602
     86  C         20.1880   14.8140   18.1900 C.2   107  GLU107      0.2287
     87  O         20.5130   13.5960   18.1260 O.2   107  GLU107     -0.2864
     88  CB        18.9020   15.6200   16.1480 C.3   107  GLU107      0.0415
     89  CG        18.4580   14.1770   15.8920 C.3   107  GLU107      0.1163
     90  CD        17.0630   14.1090   15.2540 C.2   107  GLU107      0.3649
     91  OE1       16.0630   14.3520   15.9260 O.co2 107  GLU107     -0.2457
     92  OE2       16.9690   13.7780   14.0870 O.co2 107  GLU107     -0.2457
     93  N         18.0520   12.7040   20.9850 N.3   109  VAL109     -0.1245
     94  CA        16.7720   12.0470   21.2490 C.3   109  VAL109      0.1561
     95  C         16.8630   11.5350   22.6820 C.2   109  VAL109      0.2260
     96  O         17.7860   10.8040   23.0080 O.2   109  VAL109     -0.2867
     97  CB        16.5280   10.8340   20.3310 C.3   109  VAL109      0.0252
     98  CG1       15.1660   10.2030   20.6660 C.3   109  VAL109      0.0019
     99  CG2       16.5540   11.2700   18.8450 C.3   109  VAL109      0.0019
    100  N         16.1620    8.9690   24.5290 N.3   111  ASN111     -0.1240
    101  CA        15.7100    7.5740   24.3080 C.3   111  ASN111      0.1653
    102  C         15.3730    6.8830   25.6360 C.2   111  ASN111      0.2266
    103  O         15.9940    7.2040   26.6420 O.2   111  ASN111     -0.2867
    104  CB        16.8060    6.7840   23.5840 C.3   111  ASN111      0.1155
    105  CG        16.4420    5.3560   23.3500 C.2   111  ASN111      0.2627
    106  OD1       15.4360    5.0120   22.6570 O.2   111  ASN111     -0.2716
    107  ND2       17.2420    4.4830   23.9030 N.am  111  ASN111     -0.0877
    108  N         18.8070   -0.0140   17.4750 N.3   154  ASN154     -0.1240
    109  CA        19.0670    1.0610   16.5560 C.3   154  ASN154      0.1653
    110  C         17.7980    1.8950   16.2500 C.2   154  ASN154      0.2266
    111  O         17.7090    2.5960   15.2340 O.2   154  ASN154     -0.2867
    112  CB        19.6540    0.4080   15.2440 C.3   154  ASN154      0.1155
    113  CG        21.0850   -0.0360   15.4310 C.2   154  ASN154      0.2627
    114  OD1       21.7400    0.3280   16.4060 O.2   154  ASN154     -0.2716
    115  ND2       21.5890   -0.8580   14.5110 N.am  154  ASN154     -0.0877
    116  N         15.6700    4.7460   18.2500 N.3   156  MET156     -0.1245
    117  CA        15.6150    5.6740   19.3920 C.3   156  MET156      0.1570
    118  C         14.1780    6.1860   19.4600 C.2   156  MET156      0.2261
    119  O         13.5900    6.6270   18.4800 O.2   156  MET156     -0.2867
    120  CB        16.6440    6.7900   19.1940 C.3   156  MET156      0.0387
    121  CG        18.0760    6.3550   19.1870 C.3   156  MET156      0.0595
    122  SD        18.5830    5.6130   20.7670 S.3   156  MET156     -0.1393
    123  CE        18.4740    3.8990   20.3190 C.3   156  MET156      0.0692
    124  N         18.6990    4.9790   13.6990 N.3   167  ILE167     -0.1231
    125  CA        20.0760    5.4380   13.8960 C.3   167  ILE167      0.1692
    126  C         21.0210    4.3260   13.3900 C.2   167  ILE167      0.2592
    127  O         20.5510    3.3120   12.8100 O.2   167  ILE167     -0.2718
    128  CB        20.3240    5.7650   15.4230 C.3   167  ILE167      0.0266
    129  CG1       20.1300    4.5550   16.3880 C.3   167  ILE167      0.0019
    130  CG2       19.4530    6.9250   15.9020 C.3   167  ILE167      0.0020
    131  CD1       21.1300    4.6280   17.6150 C.3   167  ILE167      0.0001
    132  N         22.3320    4.4810   13.7070 N.am  168  ASP168     -0.1960
    133  CA        23.3570    3.5690   13.3850 C.3   168  ASP168      0.1840
    134  C         23.4040    3.1270   11.8980 C.2   168  ASP168      0.2622
    135  O         23.1270    1.9760   11.5660 O.2   168  ASP168     -0.2715
    136  CB        23.4230    2.3400   14.2680 C.3   168  ASP168      0.1450
    137  CG        24.8560    1.7790   14.3600 C.2   168  ASP168      0.3671
    138  OD1       25.7780    2.0770   13.4820 O.co2 168  ASP168     -0.2456
    139  OD2       25.0720    0.9870   15.2920 O.co2 168  ASP168     -0.2456
    140  N         23.8620    4.0620   11.1140 N.am  169  TRP169     -0.1974
    141  CA        24.0260    3.8990    9.6620 C.3   169  TRP169      0.1640
    142  C         25.4010    3.3460    9.2610 C.2   169  TRP169      0.2290
    143  O         25.7530    3.3040    8.0440 O.2   169  TRP169     -0.2864
    144  CB        23.6220    5.2200    8.9460 C.3   169  TRP169      0.0576
    145  CG        22.1260    5.5600    9.1440 C.ar  169  TRP169      0.0006
    146  CD1       21.5400    6.1440   10.2870 C.ar  169  TRP169      0.0946
    147  CD2       21.0080    5.1920    8.2940 C.ar  169  TRP169      0.0152
    148  NE1       20.1910    6.2230   10.1400 N.ar  169  TRP169     -0.2442
    149  CE2       19.8200    5.6320    8.9530 C.ar  169  TRP169      0.0810
    150  CE3       20.8840    4.5800    7.0000 C.ar  169  TRP169      0.0012
    151  CZ2       18.5190    5.4880    8.3800 C.ar  169  TRP169      0.0191
    152  CZ3       19.5590    4.4200    6.4580 C.ar  169  TRP169      0.0001
    153  CH2       18.4130    4.8630    7.1580 C.ar  169  TRP169      0.0015
@<TRIPOS>BOND
     1    57    58    1
     2    59    60    2
     3    59    58    1
     4   152   150   ar
     5   152   153   ar
     6    58    61    1
     7   150   147   ar
     8   153   151   ar
     9    61    62    1
    10   143   142    2
    11   147   149   ar
    12   147   145   ar
    13   151   149   ar
    14   144   145    1
    15   144   141    1
    16   149   148   ar
    17    62    63    1
    18   145   146   ar
    19   142   141    1
    20   141   140    1
    21   148   146   ar
    22    63    64   ar
    23    63    65   ar
    24    69    68    2
    25   140   134   am
    26   135   134    2
    27    66    67    1
    28    68    67    1
    29   134   133    1
    30    67    70    1
    31    71    70    1
    32   127   126    2
    33    81    83   ar
    34    81    79   ar
    35    83    82   ar
    36   133   132    1
    37   133   136    1
    38   126   132   am
    39   126   125    1
    40    70    72    1
    41   138   137   ar
    42   124   125    1
    43    79    78   ar
    44   125   128    1
    45    56    55    1
    46    92    90   ar
    47   136   137    1
    48   137   139   ar
    49   115   113   am
    50    82    80   ar
    51    55    54    1
    52    78    80   ar
    53    78    77    1
    54   111   110    2
    55   112   113    1
    56   112   109    1
    57    90    89    1
    58    90    91   ar
    59   128   130    1
    60   128   129    1
    61   113   114    2
    62    54    53    1
    63    74    77    1
    64    74    73    1
    65    74    75    1
    66    89    88    1
    67    84    75   am
    68    84    85    1
    69    88    85    1
    70   110   109    1
    71   129   131    1
    72    75    76    2
    73   109   108    1
    74    53    52    1
    75    51    50    2
    76    85    86    1
    77    52    49    1
    78    31    32    1
    79    31    28    1
    80    50    49    1
    81    87    86    2
    82    27    28    1
    83   116   117    1
    84    49    48    1
    85   119   118    2
    86    43    42    2
    87    28    29    1
    88    99    97    1
    89   121   120    1
    90   121   122    1
    91   120   117    1
    92   117   118    1
    93    25    24    1
    94    25    26    2
    95    42    41    1
    96    46    44    1
    97    24    23    1
    98    44    41    1
    99    44    45    1
   100    39    37    1
   101    29    30    2
   102    40    41    1
   103   123   122    1
   104    97    98    1
   105    97    94    1
   106    23    14   am
   107    93    94    1
   108    45    47    1
   109    38    37    1
   110    94    95    1
   111    37    34    1
   112    14    15    2
   113    14    13    1
   114    34    33    1
   115    34    35    1
   116   106   105    2
   117    95    96    2
   118    13    12    1
   119    13    16    1
   120   105   104    1
   121   105   107   am
   122    12    10   am
   123    35    36    2
   124   104   101    1
   125    16    17    1
   126    10    11    2
   127    10     9    1
   128    21    20    1
   129   101   100    1
   130   101   102    1
   131    18    17    1
   132    18    19    1
   133     9     8    1
   134     7     5    1
   135    20    19    2
   136    20    22    1
   137     8     3   am
   138   102   103    2
   139     3     4    2
   140     3     2    1
   141     5     2    1
   142     5     6    1
   143     2     1    1
