@<TRIPOS>MOLECULE
tmp/3kxiA00.pdb
 143 137 0 0 0
SMALL
GASTEIGER

@<TRIPOS>ATOM
      1  N          6.8170   -8.1940    2.6180 N.3    14  GLU14      -0.1245
      2  CA         7.1120   -6.7700    2.5460 C.3    14  GLU14       0.1567
      3  C          8.3720   -6.5770    1.7190 C.2    14  GLU14       0.2260
      4  O          8.6070   -5.5070    1.1550 O.2    14  GLU14      -0.2867
      5  CB         7.2620   -6.1510    3.9400 C.3    14  GLU14       0.0388
      6  CG         6.8520   -4.6770    3.9880 C.3    14  GLU14       0.1160
      7  CD         7.2050   -3.9920    5.2980 C.2    14  GLU14       0.3649
      8  OE1        7.3890   -4.7010    6.3130 O.co2  14  GLU14      -0.2457
      9  OE2        7.2930   -2.7390    5.3060 O.co2  14  GLU14      -0.2457
     10  N          7.0470   -6.7940   -2.1200 N.3    17  ILE17      -0.1231
     11  CA         6.2900   -5.6040   -2.4880 C.3    17  ILE17       0.1692
     12  C          7.2210   -4.4570   -2.8600 C.2    17  ILE17       0.2591
     13  O          7.0250   -3.7910   -3.8840 O.2    17  ILE17      -0.2718
     14  CB         5.3680   -5.1370   -1.3440 C.3    17  ILE17       0.0266
     15  CG1        4.4110   -6.2570   -0.9310 C.3    17  ILE17       0.0019
     16  CG2        4.6010   -3.8810   -1.7520 C.3    17  ILE17       0.0020
     17  CD1        3.5840   -5.9310    0.2870 C.3    17  ILE17       0.0001
     18  N          8.2320   -4.2320   -2.0210 N.am   18  ALA18      -0.1980
     19  CA         9.1880   -3.1570   -2.2500 C.3    18  ALA18       0.1597
     20  C          9.9320   -3.3830   -3.5610 C.2    18  ALA18       0.2287
     21  O         10.1530   -2.4500   -4.3350 O.2    18  ALA18      -0.2864
     22  CB        10.1630   -3.0640   -1.1010 C.3    18  ALA18       0.0319
     23  N          7.5840   -2.9740   -6.7270 N.3    21  GLU21      -0.1245
     24  CA         7.3490   -1.5680   -7.0300 C.3    21  GLU21       0.1567
     25  C          8.6380   -0.9340   -7.5250 C.2    21  GLU21       0.2260
     26  O          8.6150   -0.0120   -8.3370 O.2    21  GLU21      -0.2867
     27  CB         6.8210   -0.8310   -5.8040 C.3    21  GLU21       0.0388
     28  CG         5.6080   -1.4860   -5.1840 C.3    21  GLU21       0.1160
     29  CD         4.9120   -0.5840   -4.1980 C.2    21  GLU21       0.3649
     30  OE1        5.2930    0.6030   -4.1210 O.co2  21  GLU21      -0.2457
     31  OE2        3.9820   -1.0590   -3.5090 O.co2  21  GLU21      -0.2457
     32  N         19.2580   -1.1030    2.0640 N.3   168  TYR168     -0.1227
     33  CA        18.5340   -2.3400    1.7950 C.3   168  TYR168      0.1736
     34  C         17.1310   -2.0810    1.2840 C.2   168  TYR168      0.2596
     35  O         16.5940   -0.9880    1.4320 O.2   168  TYR168     -0.2718
     36  CB        18.4980   -3.2420    3.0270 C.3   168  TYR168      0.0548
     37  CG        19.7350   -4.0960    3.1610 C.ar  168  TYR168     -0.0200
     38  CD1       20.7840   -3.7150    3.9950 C.ar  168  TYR168     -0.0009
     39  CD2       19.8620   -5.2810    2.4400 C.ar  168  TYR168     -0.0009
     40  CE1       21.9210   -4.4990    4.1140 C.ar  168  TYR168      0.0417
     41  CE2       20.9900   -6.0670    2.5520 C.ar  168  TYR168      0.0417
     42  CZ        22.0160   -5.6730    3.3890 C.ar  168  TYR168      0.1957
     43  OH        23.1380   -6.4560    3.5000 O.3   168  TYR168     -0.2866
     44  N         16.5490   -3.0950    0.6600 N.am  169  THR169     -0.1939
     45  CA        15.2070   -2.9700    0.1260 C.3   169  THR169      0.2028
     46  C         14.2280   -2.8500    1.2810 C.2   169  THR169      0.2642
     47  O         14.4010   -3.4870    2.3210 O.2   169  THR169     -0.2714
     48  CB        14.8440   -4.1520   -0.7870 C.3   169  THR169      0.1808
     49  OG1       15.3510   -5.3640   -0.2190 O.3   169  THR169     -0.2208
     50  CG2       15.4800   -3.9630   -2.1570 C.3   169  THR169      0.0379
     51  N         13.2200   -2.0060    1.0920 N.am  170  ASN170     -0.1957
     52  CA        12.2400   -1.7280    2.1210 C.3   170  ASN170      0.1819
     53  C         12.8000   -0.8580    3.2450 C.2   170  ASN170      0.2622
     54  O         12.1330   -0.6480    4.2570 O.2   170  ASN170     -0.2715
     55  CB        11.6590   -3.0280    2.6760 C.3   170  ASN170      0.1195
     56  CG        10.4220   -2.7990    3.5100 C.2   170  ASN170      0.2630
     57  OD1        9.3900   -2.3650    3.0000 O.2   170  ASN170     -0.2716
     58  ND2       10.5160   -3.0900    4.7990 N.am  170  ASN170     -0.0877
     59  N         14.0200   -0.3530    3.0680 N.am  171  SER171     -0.1936
     60  CA        14.6110    0.5700    4.0370 C.3   171  SER171      0.2055
     61  C         14.0490    1.9750    3.8500 C.2   171  SER171      0.2644
     62  O         14.0460    2.7790    4.7830 O.2   171  SER171     -0.2714
     63  CB        16.1370    0.6070    3.9040 C.3   171  SER171      0.2130
     64  OG        16.5500    1.4280    2.8170 O.3   171  SER171     -0.2179
     65  N         13.5900    2.2660    2.6350 N.am  172  GLY172     -0.1939
     66  CA        12.9830    3.5470    2.3210 C.3   172  GLY172      0.2014
     67  C         13.7170    4.3570    1.2650 C.2   172  GLY172      0.2639
     68  O         13.4610    5.5550    1.1200 O.2   172  GLY172     -0.2714
     69  N         14.6270    3.7180    0.5310 N.am  173  LYS173     -0.1963
     70  CA        15.4040    4.4130   -0.5020 C.3   173  LYS173      0.1728
     71  C         14.5040    5.2420   -1.3980 C.2   173  LYS173      0.2617
     72  O         14.6890    6.4530   -1.5450 O.2   173  LYS173     -0.2715
     73  CB        16.1640    3.4300   -1.3900 C.3   173  LYS173      0.0311
     74  CG        17.4230    2.8520   -0.8040 C.3   173  LYS173      0.0038
     75  CD        18.0830    1.9300   -1.8170 C.3   173  LYS173      0.0206
     76  CE        17.0670    0.9730   -2.4540 C.3   173  LYS173      0.1093
     77  NZ        16.4510   -0.0100   -1.5080 N.3   173  LYS173     -0.1314
     78  N         13.5380    4.5660   -2.0110 N.am  174  THR174     -0.1937
     79  CA        12.6300    5.2140   -2.9390 C.3   174  THR174      0.2028
     80  C         11.8200    6.2970   -2.2420 C.2   174  THR174      0.2642
     81  O         11.7960    7.4410   -2.6910 O.2   174  THR174     -0.2714
     82  CB        11.6810    4.2000   -3.6150 C.3   174  THR174      0.1808
     83  OG1       12.4440    3.2590   -4.3850 O.3   174  THR174     -0.2208
     84  CG2       10.7030    4.9190   -4.5250 C.3   174  THR174      0.0379
     85  N         11.1580    5.9380   -1.1480 N.am  175  SER175     -0.1949
     86  CA        10.3570    6.9070   -0.4040 C.3   175  SER175      0.1924
     87  C         11.1440    8.2000   -0.1950 C.2   175  SER175      0.2314
     88  O         10.6200    9.2980   -0.3830 O.2   175  SER175     -0.2863
     89  CB         9.9120    6.3410    0.9500 C.3   175  SER175      0.2116
     90  OG         9.1350    5.1650    0.8010 O.3   175  SER175     -0.2180
     91  N         15.7680    5.8610    9.1160 N.3   269  ASN269     -0.1225
     92  CA        14.4310    6.1470    8.6020 C.3   269  ASN269      0.1785
     93  C         13.3280    5.2910    9.2410 C.2   269  ASN269      0.2597
     94  O         13.5880    4.2040    9.7720 O.2   269  ASN269     -0.2718
     95  CB        14.4290    5.9460    7.0850 C.3   269  ASN269      0.1169
     96  CG        13.0860    6.2410    6.4480 C.2   269  ASN269      0.2627
     97  OD1       12.4350    7.2260    6.7780 O.2   269  ASN269     -0.2716
     98  ND2       12.6730    5.3920    5.5170 N.am  269  ASN269     -0.0877
     99  N         12.0980    5.8000    9.1720 N.am  270  LYS270     -0.1980
    100  CA        10.8980    5.1170    9.6650 C.3   270  LYS270      0.1596
    101  C         10.6410    5.3650   11.1590 C.2   270  LYS270      0.2287
    102  O          9.9860    4.5680   11.8390 O.2   270  LYS270     -0.2864
    103  CB        10.9250    3.6190    9.3370 C.3   270  LYS270      0.0298
    104  CG        10.8040    3.3080    7.8500 C.3   270  LYS270      0.0038
    105  CD        10.5970    1.8260    7.6210 C.3   270  LYS270      0.0206
    106  CE        10.6600    1.4620    6.1530 C.3   270  LYS270      0.1093
    107  NZ        10.4030    0.0070    5.9770 N.3   270  LYS270     -0.1314
    108  N          8.6980    7.2740   12.5800 N.3   272  ASP272     -0.1225
    109  CA         7.2970    7.4770   12.9170 C.3   272  ASP272      0.1805
    110  C          6.6920    6.1900   13.4720 C.2   272  ASP272      0.2597
    111  O          5.6090    6.2040   14.0650 O.2   272  ASP272     -0.2718
    112  CB         6.5250    7.9310   11.6850 C.3   272  ASP272      0.1424
    113  CG         6.6700    6.9630   10.5300 C.2   272  ASP272      0.3668
    114  OD1        7.7820    6.8790    9.9510 O.co2 272  ASP272     -0.2456
    115  OD2        5.6730    6.2760   10.2210 O.co2 272  ASP272     -0.2456
    116  N          7.3950    5.0790   13.2690 N.am  273  LYS273     -0.1979
    117  CA         7.0150    3.8150   13.8790 C.3   273  LYS273      0.1596
    118  C          7.7160    3.7330   15.2210 C.2   273  LYS273      0.2287
    119  O          8.5770    2.8780   15.4480 O.2   273  LYS273     -0.2864
    120  CB         7.3900    2.6300   12.9880 C.3   273  LYS273      0.0298
    121  CG         6.3510    2.3070   11.9290 C.3   273  LYS273      0.0038
    122  CD         4.9660    2.1890   12.5460 C.3   273  LYS273      0.0206
    123  CE         3.9180    1.8370   11.4990 C.3   273  LYS273      0.1093
    124  NZ         4.1740    0.5070   10.8710 N.3   273  LYS273     -0.1314
    125  N         11.9410   10.4350    8.9160 N.3   303  SER303     -0.1202
    126  CA        10.7690    9.6810    8.4910 C.3   303  SER303      0.2020
    127  C         10.4050   10.0950    7.0650 C.2   303  SER303      0.2619
    128  O          9.6850   11.0740    6.8680 O.2   303  SER303     -0.2717
    129  CB         9.5860    9.9190    9.4300 C.3   303  SER303      0.2103
    130  OG         8.4230    9.2730    8.9460 O.3   303  SER303     -0.2182
    131  N         10.9220    9.3600    6.0800 N.am  304  ALA304     -0.1965
    132  CA        10.6660    9.6520    4.6700 C.3   304  ALA304      0.1728
    133  C          9.1690    9.7210    4.3930 C.2   304  ALA304      0.2616
    134  O          8.7030   10.5520    3.6140 O.2   304  ALA304     -0.2715
    135  CB        11.3240    8.6050    3.7790 C.3   304  ALA304      0.0334
    136  N          8.4260    8.8380    5.0520 N.am  305  LEU305     -0.1977
    137  CA         6.9820    8.7780    4.9260 C.3   305  LEU305      0.1596
    138  C          6.3330   10.0650    5.4560 C.2   305  LEU305      0.2287
    139  O          5.6810   10.7960    4.7060 O.2   305  LEU305     -0.2864
    140  CB         6.4690    7.5390    5.6660 C.3   305  LEU305      0.0297
    141  CG         5.0660    6.9740    5.4370 C.3   305  LEU305      0.0022
    142  CD1        4.1310    7.4480    6.5310 C.3   305  LEU305      0.0001
    143  CD2        4.5320    7.3010    4.0400 C.3   305  LEU305      0.0001
@<TRIPOS>BOND
     1    26    25    2
     2    25    24    1
     3    24    23    1
     4    24    27    1
     5    27    28    1
     6    28    29    1
     7    84    82    1
     8    83    82    1
     9    21    20    2
    10    29    30   ar
    11    29    31   ar
    12    13    12    2
    13    82    79    1
    14    20    19    1
    15    79    80    1
    16    79    78    1
    17    12    11    1
    18    12    18   am
    19    81    80    2
    20    11    10    1
    21    11    14    1
    22    76    75    1
    23    76    77    1
    24    19    18    1
    25    19    22    1
    26    80    85   am
    27    50    48    1
    28    78    71   am
    29    75    74    1
    30    16    14    1
    31    72    71    2
    32    71    70    1
    33    73    74    1
    34    73    70    1
    35    14    15    1
    36    85    86    1
    37    15    17    1
    38    48    49    1
    39    48    45    1
    40    70    69    1
    41    86    87    1
    42    86    89    1
    43    88    87    2
    44    45    44    1
    45    45    46    1
    46    69    67   am
    47    44    34   am
    48    90    89    1
    49    51    46   am
    50    51    52    1
    51    68    67    2
    52     4     3    2
    53    67    66    1
    54    46    47    2
    55    34    35    2
    56    34    33    1
    57     3     2    1
    58    33    32    1
    59    33    36    1
    60    52    55    1
    61    52    53    1
    62    66    65    1
    63    39    41   ar
    64    39    37   ar
    65     2     1    1
    66     2     5    1
    67    41    42   ar
    68    65    61   am
    69    55    56    1
    70    64    63    1
    71    57    56    2
    72    36    37    1
    73    59    53   am
    74    59    60    1
    75    37    38   ar
    76    53    54    2
    77    42    43    1
    78    42    40   ar
    79    56    58   am
    80   134   133    2
    81   135   132    1
    82    61    60    1
    83    61    62    2
    84    63    60    1
    85     5     6    1
    86     6     7    1
    87    38    40   ar
    88   143   141    1
    89   133   132    1
    90   133   136   am
    91   132   131    1
    92   139   138    2
    93   137   136    1
    94   137   138    1
    95   137   140    1
    96     7     9   ar
    97     7     8   ar
    98   141   140    1
    99   141   142    1
   100    98    96   am
   101   107   106    1
   102   131   127   am
   103   106   105    1
   104    96    97    2
   105    96    95    1
   106   128   127    2
   107   127   126    1
   108    95    92    1
   109   105   104    1
   110   104   103    1
   111   126   125    1
   112   126   129    1
   113    92    91    1
   114    92    93    1
   115   130   129    1
   116    99    93   am
   117    99   100    1
   118    93    94    2
   119   103   100    1
   120   100   101    1
   121   114   113   ar
   122   115   113   ar
   123   113   112    1
   124   124   123    1
   125   101   102    2
   126   123   122    1
   127   112   109    1
   128   121   122    1
   129   121   120    1
   130   108   109    1
   131   109   110    1
   132   120   117    1
   133   116   110   am
   134   116   117    1
   135   110   111    2
   136   117   118    1
   137   118   119    2
