@<TRIPOS>MOLECULE
tmp/3kxmA00.pdb
 149 138 0 0 0
SMALL
GASTEIGER

@<TRIPOS>ATOM
      1  N         26.2550    7.8790   26.2990 N.3    39  VAL39      -0.1231
      2  CA        24.9110    7.2960   26.2670 C.3    39  VAL39       0.1692
      3  C         24.9240    5.8880   25.6840 C.2    39  VAL39       0.2593
      4  O         23.9850    5.1500   25.8850 O.2    39  VAL39      -0.2718
      5  CB        23.7930    8.1840   25.5970 C.3    39  VAL39       0.0266
      6  CG1       23.6710    9.5700   26.2870 C.3    39  VAL39       0.0020
      7  CG2       23.9960    8.3230   24.1310 C.3    39  VAL39       0.0020
      8  N         25.9920    5.5260   24.9950 N.am   40  GLY40      -0.1942
      9  CA        26.0650    4.2170   24.3960 C.3    40  GLY40       0.2014
     10  C         27.3890    3.9430   23.7320 C.2    40  GLY40       0.2639
     11  O         28.3010    4.7880   23.6970 O.2    40  GLY40      -0.2714
     12  N         27.4690    2.7510   23.1760 N.am   41  ARG41      -0.1963
     13  CA        28.6800    2.2550   22.5770 C.3    41  ARG41       0.1729
     14  C         28.3350    1.0210   21.7570 C.2    41  ARG41       0.2616
     15  O         27.3820    0.2780   22.0750 O.2    41  ARG41      -0.2715
     16  CB        29.7060    1.9190   23.6730 C.3    41  ARG41       0.0348
     17  CG        29.2350    0.8790   24.7320 C.3    41  ARG41       0.0492
     18  CD        29.2890   -0.5470   24.1290 C.3    41  ARG41       0.2205
     19  NE        28.8260   -1.6140   25.0150 N.pl3  41  ARG41      -0.0865
     20  CZ        27.6960   -2.3010   24.8470 C.cat  41  ARG41       0.5346
     21  NH1       26.8900   -2.0250   23.8220 N.pl3  41  ARG41       0.1354
     22  NH2       27.3730   -3.2760   25.6960 N.pl3  41  ARG41       0.1354
     23  N         29.1270    0.7910   20.7210 N.am   42  GLY42      -0.1955
     24  CA        29.0830   -0.4730   19.9950 C.3    42  GLY42       0.1869
     25  C         30.4600   -0.7740   19.4430 C.2    42  GLY42       0.2309
     26  O         31.4650   -0.1100   19.8130 O.2    42  GLY42      -0.2863
     27  N         31.7850    2.6020   17.4370 N.3    45  SER45      -0.1217
     28  CA        31.7100    3.9780   17.9120 C.3    45  SER45       0.1889
     29  C         31.3360    4.0160   19.3650 C.2    45  SER45       0.2288
     30  O         30.8420    2.9940   19.9390 O.2    45  SER45      -0.2866
     31  CB        30.7180    4.8150   17.0660 C.3    45  SER45       0.2089
     32  OG        29.3610    4.4030   17.2180 O.3    45  SER45      -0.2183
     33  N         29.0930    6.9120   21.8210 N.3    47  VAL47      -0.1245
     34  CA        27.9900    7.8330   21.5230 C.3    47  VAL47       0.1561
     35  C         27.7230    8.6130   22.8040 C.2    47  VAL47       0.2260
     36  O         27.6470    8.0230   23.8520 O.2    47  VAL47      -0.2867
     37  CB        26.7450    7.0720   20.9940 C.3    47  VAL47       0.0252
     38  CG1       25.6120    7.9980   20.7990 C.3    47  VAL47       0.0019
     39  CG2       27.0480    6.4720   19.6130 C.3    47  VAL47       0.0019
     40  N         23.6640   14.8120   19.7090 N.3    60  ILE60      -0.1245
     41  CA        24.3660   13.5370   19.8430 C.3    60  ILE60       0.1561
     42  C         25.7000   13.6230   19.1590 C.2    60  ILE60       0.2260
     43  O         25.8010   14.1310   18.0250 O.2    60  ILE60      -0.2867
     44  CB        23.5690   12.3350   19.2390 C.3    60  ILE60       0.0252
     45  CG1       22.2990   12.1180   20.0340 C.3    60  ILE60       0.0019
     46  CG2       24.4290   11.0550   19.2820 C.3    60  ILE60       0.0019
     47  CD1       22.5450   11.4520   21.3730 C.3    60  ILE60       0.0001
     48  N         28.7760   11.2980   17.9220 N.3    62  LYS62      -0.1245
     49  CA        29.1860    9.9080   17.6850 C.3    62  LYS62       0.1561
     50  C         30.6540    9.8960   17.4340 C.2    62  LYS62       0.2260
     51  O         31.0410   10.3470   16.3820 O.2    62  LYS62      -0.2867
     52  CB        28.4700    9.3830   16.4320 C.3    62  LYS62       0.0271
     53  CG        28.6800    7.8840   16.1940 C.3    62  LYS62       0.0035
     54  CD        27.7710    7.4010   15.0790 C.3    62  LYS62       0.0206
     55  CE        27.9450    5.9540   14.7640 C.3    62  LYS62       0.1093
     56  NZ        27.3110    5.7470   13.3890 N.3    62  LYS62      -0.1314
     57  N         17.3690    9.9270   11.2540 N.3    89  VAL89      -0.1245
     58  CA        18.3210   10.7400   12.0530 C.3    89  VAL89       0.1561
     59  C         18.9230   11.8960   11.2100 C.2    89  VAL89       0.2260
     60  O         19.4160   11.6490   10.0940 O.2    89  VAL89      -0.2867
     61  CB        19.4590    9.8650   12.7010 C.3    89  VAL89       0.0252
     62  CG1       20.5190    9.4300   11.6350 C.3    89  VAL89       0.0019
     63  CG2       20.1380   10.6730   13.8640 C.3    89  VAL89       0.0019
     64  N         24.7480   14.8190   15.4640 N.3   107  PHE107     -0.1227
     65  CA        23.3580   14.5760   15.0520 C.3   107  PHE107      0.1736
     66  C         22.4100   15.4170   15.9100 C.2   107  PHE107      0.2595
     67  O         22.8190   15.9650   16.9500 O.2   107  PHE107     -0.2718
     68  CB        23.0370   13.0570   15.2400 C.3   107  PHE107      0.0547
     69  CG        23.8610   12.1310   14.3540 C.ar  107  PHE107     -0.0202
     70  CD1       23.5110   11.9130   13.0200 C.ar  107  PHE107     -0.0042
     71  CD2       24.9720   11.4630   14.8740 C.ar  107  PHE107     -0.0042
     72  CE1       24.2600   11.0150   12.2280 C.ar  107  PHE107     -0.0003
     73  CE2       25.7310   10.5800   14.1150 C.ar  107  PHE107     -0.0003
     74  CZ        25.3640   10.3650   12.7740 C.ar  107  PHE107     -0.0000
     75  N         21.1520   15.5340   15.4710 N.am  108  GLU108     -0.1979
     76  CA        20.0320   15.9690   16.3290 C.3   108  GLU108      0.1602
     77  C         19.9770   15.1200   17.5830 C.2   108  GLU108      0.2287
     78  O         20.3240   13.9340   17.5520 O.2   108  GLU108     -0.2864
     79  CB        18.7010   15.8250   15.5730 C.3   108  GLU108      0.0415
     80  CG        18.3650   14.3150   15.2040 C.3   108  GLU108      0.1163
     81  CD        16.9990   14.1270   14.5080 C.2   108  GLU108      0.3649
     82  OE1       15.9320   14.2390   15.1400 O.co2 108  GLU108     -0.2457
     83  OE2       17.0180   13.8710   13.3070 O.co2 108  GLU108     -0.2457
     84  N         18.0110   13.0330   20.3000 N.3   110  VAL110     -0.1245
     85  CA        16.7810   12.3020   20.5150 C.3   110  VAL110      0.1561
     86  C         16.8840   11.7560   21.9090 C.2   110  VAL110      0.2260
     87  O         17.8580   11.0600   22.2410 O.2   110  VAL110     -0.2867
     88  CB        16.5970   11.0790   19.5580 C.3   110  VAL110      0.0252
     89  CG1       15.3050   10.4100   19.8740 C.3   110  VAL110      0.0019
     90  CG2       16.6390   11.4810   18.0860 C.3   110  VAL110      0.0019
     91  N         16.1540    9.1810   23.7640 N.3   112  ASN112     -0.1240
     92  CA        15.7470    7.7770   23.6600 C.3   112  ASN112      0.1653
     93  C         15.4150    7.0850   24.9820 C.2   112  ASN112      0.2266
     94  O         15.9870    7.3960   26.0010 O.2   112  ASN112     -0.2867
     95  CB        16.8690    6.9990   22.9660 C.3   112  ASN112      0.1155
     96  CG        16.5200    5.5490   22.7360 C.2   112  ASN112      0.2627
     97  OD1       15.5490    5.2190   22.0220 O.2   112  ASN112     -0.2716
     98  ND2       17.2940    4.6560   23.3510 N.am  112  ASN112     -0.0877
     99  N         17.4890   -3.1280   13.5480 N.3   152  LYS152     -0.1245
    100  CA        17.3660   -3.7880   14.8370 C.3   152  LYS152      0.1561
    101  C         16.8750   -2.7480   15.8590 C.2   152  LYS152      0.2260
    102  O         16.9900   -1.5650   15.5630 O.2   152  LYS152     -0.2867
    103  CB        18.7000   -4.4340   15.2890 C.3   152  LYS152      0.0271
    104  CG        19.8970   -3.5080   15.3620 C.3   152  LYS152      0.0035
    105  CD        21.2260   -4.2310   15.7350 C.3   152  LYS152      0.0206
    106  CE        22.3710   -3.2300   15.7330 C.3   152  LYS152      0.1093
    107  NZ        23.7740   -3.8180   15.7690 N.3   152  LYS152     -0.1314
    108  N         18.1620   -1.6680   18.5980 N.3   154  HIS154     -0.1226
    109  CA        19.2690   -0.8360   19.0510 C.3   154  HIS154      0.1752
    110  C         19.4590    0.3540   18.0890 C.2   154  HIS154      0.2596
    111  O         20.0310    1.3800   18.4770 O.2   154  HIS154     -0.2718
    112  CB        20.5830   -1.6630   19.0790 C.3   154  HIS154      0.0759
    113  CG        20.4070   -3.0700   19.5690 C.ar  154  HIS154      0.0818
    114  ND1       21.0780   -3.5580   20.6750 N.ar  154  HIS154     -0.2268
    115  CD2       19.6170   -4.0890   19.1180 C.ar  154  HIS154      0.1154
    116  CE1       20.7110   -4.8130   20.8810 C.ar  154  HIS154      0.1986
    117  NE2       19.8400   -5.1630   19.9430 N.ar  154  HIS154     -0.2212
    118  N         19.0330    0.1780   16.8340 N.am  155  ASN155     -0.1974
    119  CA        19.1790    1.2110   15.8080 C.3   155  ASN155      0.1688
    120  C         17.9210    2.0600   15.6020 C.2   155  ASN155      0.2292
    121  O         17.8230    2.8480   14.6920 O.2   155  ASN155     -0.2864
    122  CB        19.7440    0.6640   14.4730 C.3   155  ASN155      0.1181
    123  CG        21.1850    0.2500   14.6150 C.2   155  ASN155      0.2629
    124  OD1       21.8780    0.6830   15.5590 O.2   155  ASN155     -0.2716
    125  ND2       21.6520   -0.5860   13.7020 N.am  155  ASN155     -0.0877
    126  N         15.8350    4.7260   17.6350 N.3   157  MET157     -0.1245
    127  CA        15.7640    5.6430   18.7650 C.3   157  MET157      0.1570
    128  C         14.3130    6.1100   18.9110 C.2   157  MET157      0.2261
    129  O         13.7320    6.5870   17.9420 O.2   157  MET157     -0.2867
    130  CB        16.6670    6.8560   18.5390 C.3   157  MET157      0.0387
    131  CG        18.1350    6.5430   18.4610 C.3   157  MET157      0.0595
    132  SD        18.6390    5.9190   20.0610 S.3   157  MET157     -0.1393
    133  CE        18.6900    4.1190   19.8930 C.3   157  MET157      0.0692
    134  N         18.5410    5.2610   13.1840 N.3   168  ILE168     -0.1231
    135  CA        19.9420    5.6610   13.2920 C.3   168  ILE168      0.1692
    136  C         20.9610    4.5740   12.8060 C.2   168  ILE168      0.2592
    137  O         20.5610    3.4660   12.4250 O.2   168  ILE168     -0.2718
    138  CB        20.3340    6.0720   14.7420 C.3   168  ILE168      0.0266
    139  CG1       20.4020    4.7930   15.6130 C.3   168  ILE168      0.0019
    140  CG2       19.3090    7.1380   15.3270 C.3   168  ILE168      0.0020
    141  CD1       21.1280    4.9870   16.9350 C.3   168  ILE168      0.0001
    142  N         22.2660    4.9340   12.9100 N.am  169  ASP169     -0.1974
    143  CA        23.4280    4.0740   12.5070 C.3   169  ASP169      0.1709
    144  C         23.4260    3.5420   11.0400 C.2   169  ASP169      0.2293
    145  O         23.1180    2.3830   10.7850 O.2   169  ASP169     -0.2864
    146  CB        23.6250    2.9530   13.5530 C.3   169  ASP169      0.1436
    147  CG        25.0880    2.5740   13.7000 C.2   169  ASP169      0.3671
    148  OD1       25.8890    2.7380   12.7210 O.co2 169  ASP169     -0.2456
    149  OD2       25.4650    2.1950   14.8260 O.co2 169  ASP169     -0.2456
@<TRIPOS>BOND
     1    60    59    2
     2   145   144    2
     3   144   143    1
     4    59    58    1
     5    57    58    1
     6    62    61    1
     7    58    61    1
     8    72    74   ar
     9    72    70   ar
    10   137   136    2
    11   143   142    1
    12   143   146    1
    13    61    63    1
    14   148   147   ar
    15    74    73   ar
    16   136   142   am
    17   136   135    1
    18    70    69   ar
    19   134   135    1
    20   135   138    1
    21    83    81   ar
    22    56    55    1
    23    99   100    1
    24   146   147    1
    25   147   149   ar
    26   125   123   am
    27    73    71   ar
    28    69    71   ar
    29    69    68    1
    30   122   123    1
    31   122   119    1
    32    81    82   ar
    33    81    80    1
    34   123   124    2
    35   121   120    2
    36   138   140    1
    37   138   139    1
    38    55    54    1
    39   100   103    1
    40   100   101    1
    41    65    68    1
    42    65    64    1
    43    65    66    1
    44    54    53    1
    45    80    79    1
    46   103   104    1
    47   104   105    1
    48    75    66   am
    49    75    76    1
    50   102   101    2
    51    79    76    1
    52   120   119    1
    53   139   141    1
    54   106   105    1
    55   106   107    1
    56   119   118    1
    57    66    67    2
    58    53    52    1
    59    76    77    1
    60    51    50    2
    61    52    49    1
    62   118   110   am
    63    31    32    1
    64    31    28    1
    65    50    49    1
    66    27    28    1
    67    78    77    2
    68   126   127    1
    69    49    48    1
    70    28    29    1
    71   129   128    2
    72    43    42    2
    73    90    88    1
    74   110   111    2
    75   110   109    1
    76   131   130    1
    77   131   132    1
    78   130   127    1
    79   108   109    1
    80   127   128    1
    81   109   112    1
    82   112   113    1
    83   115   113   ar
    84   115   117   ar
    85    42    41    1
    86    44    46    1
    87    44    41    1
    88    44    45    1
    89    29    30    2
    90    25    26    2
    91    25    24    1
    92    88    89    1
    93    88    85    1
    94   113   114   ar
    95    39    37    1
    96    40    41    1
    97   133   132    1
    98   117   116   ar
    99    24    23    1
   100    45    47    1
   101    84    85    1
   102    85    86    1
   103   114   116   ar
   104    23    14   am
   105    38    37    1
   106    37    34    1
   107    34    33    1
   108    34    35    1
   109    14    15    2
   110    14    13    1
   111    86    87    2
   112    97    96    2
   113    13    12    1
   114    13    16    1
   115    96    95    1
   116    96    98   am
   117    35    36    2
   118    95    92    1
   119    12    10   am
   120    92    91    1
   121    92    93    1
   122    16    17    1
   123    11    10    2
   124    10     9    1
   125    21    20    1
   126    18    17    1
   127    18    19    1
   128     7     5    1
   129     9     8    1
   130    20    19    2
   131    20    22    1
   132    93    94    2
   133     8     3   am
   134     5     2    1
   135     5     6    1
   136     3     4    2
   137     3     2    1
   138     2     1    1
