@<TRIPOS>MOLECULE
tmp/3kxnA00.pdb
 134 127 0 0 0
SMALL
GASTEIGER

@<TRIPOS>ATOM
      1  N         26.8470    7.5580   26.6290 N.3    39  VAL39      -0.1231
      2  CA        25.5260    6.9080   26.5550 C.3    39  VAL39       0.1692
      3  C         25.4930    5.6320   25.7380 C.2    39  VAL39       0.2593
      4  O         24.4780    4.9340   25.7210 O.2    39  VAL39      -0.2718
      5  CB        24.4390    7.8330   25.9690 C.3    39  VAL39       0.0266
      6  CG1       24.0980    9.0000   26.9430 C.3    39  VAL39       0.0020
      7  CG2       24.8290    8.3090   24.5640 C.3    39  VAL39       0.0020
      8  N         26.5540    5.3330   25.0160 N.am   40  GLY40      -0.1942
      9  CA        26.5380    4.1550   24.1640 C.3    40  GLY40       0.2014
     10  C         27.9140    3.8420   23.6090 C.2    40  GLY40       0.2638
     11  O         28.8370    4.7030   23.6130 O.2    40  GLY40      -0.2714
     12  N         28.0530    2.6160   23.1260 N.am   41  ARG41      -0.1977
     13  CA        29.2800    2.2020   22.4140 C.3    41  ARG41       0.1597
     14  C         29.0040    1.0480   21.4550 C.2    41  ARG41       0.2287
     15  O         27.9870    0.3990   21.5410 O.2    41  ARG41      -0.2864
     16  CB        30.4290    1.8580   23.4110 C.3    41  ARG41       0.0334
     17  CG        30.0480    0.9040   24.5350 C.3    41  ARG41       0.0492
     18  CD        30.2060   -0.5630   24.1090 C.3    41  ARG41       0.2205
     19  NE        29.4850   -1.5160   24.9490 N.pl3  41  ARG41      -0.0865
     20  CZ        28.3080   -2.0720   24.6430 C.cat  41  ARG41       0.5346
     21  NH1       27.6600   -1.7370   23.5250 N.pl3  41  ARG41       0.1354
     22  NH2       27.7680   -2.9560   25.4720 N.pl3  41  ARG41       0.1354
     23  N         29.6880    6.9700   21.9630 N.3    47  VAL47      -0.1245
     24  CA        28.5710    7.8760   21.7670 C.3    47  VAL47       0.1561
     25  C         28.2900    8.5710   23.0870 C.2    47  VAL47       0.2260
     26  O         28.0360    7.9200   24.1340 O.2    47  VAL47      -0.2867
     27  CB        27.2870    7.1190   21.3150 C.3    47  VAL47       0.0252
     28  CG1       26.1120    8.0530   21.1990 C.3    47  VAL47       0.0019
     29  CG2       27.5070    6.3690   19.9640 C.3    47  VAL47       0.0019
     30  N         24.0800   14.9350   20.2560 N.3    60  ILE60      -0.1245
     31  CA        24.7440   13.6750   20.4310 C.3    60  ILE60       0.1561
     32  C         26.0390   13.7220   19.6470 C.2    60  ILE60       0.2260
     33  O         26.0820   14.1800   18.5060 O.2    60  ILE60      -0.2867
     34  CB        23.8810   12.4890   19.9290 C.3    60  ILE60       0.0252
     35  CG1       22.6730   12.3000   20.8090 C.3    60  ILE60       0.0019
     36  CG2       24.6630   11.2360   19.9960 C.3    60  ILE60       0.0019
     37  CD1       23.1300   11.7160   22.1970 C.3    60  ILE60       0.0001
     38  N         29.1620   11.3800   18.3480 N.3    62  LYS62      -0.1245
     39  CA        29.5690   10.0460   18.0210 C.3    62  LYS62       0.1561
     40  C         31.0150   10.0850   17.5270 C.2    62  LYS62       0.2260
     41  O         31.2930   10.5030   16.3710 O.2    62  LYS62      -0.2867
     42  CB        28.6100    9.4680   16.9400 C.3    62  LYS62       0.0271
     43  CG        29.1020    8.1150   16.3340 C.3    62  LYS62       0.0035
     44  CD        28.2600    7.6300   15.1280 C.3    62  LYS62       0.0206
     45  CE        28.2460    6.0830   14.9710 C.3    62  LYS62       0.1093
     46  NZ        27.7050    5.6910   13.5900 N.3    62  LYS62      -0.1314
     47  N         17.5990   10.1880   11.4140 N.3    89  VAL89      -0.1301
     48  CA        18.5380   10.9410   12.2240 C.3    89  VAL89       0.1246
     49  C         19.1810   12.0600   11.4590 C.3    89  VAL89       0.2009
     50  O         19.6320   11.9060   10.2570 O.3    89  VAL89      -0.2188
     51  CB        19.5590    9.9710   12.9690 C.3    89  VAL89       0.0202
     52  CG1       20.6890    9.5420   12.0330 C.3    89  VAL89       0.0016
     53  CG2       20.0560   10.5950   14.3290 C.3    89  VAL89       0.0016
     54  N         24.9900   15.0170   15.9810 N.3   107  PHE107     -0.1227
     55  CA        23.5870   14.7610   15.6280 C.3   107  PHE107      0.1736
     56  C         22.6380   15.5190   16.5210 C.2   107  PHE107      0.2595
     57  O         22.9330   15.7510   17.7110 O.2   107  PHE107     -0.2718
     58  CB        23.1750   13.2650   15.8080 C.3   107  PHE107      0.0547
     59  CG        23.9500   12.3120   15.0000 C.ar  107  PHE107     -0.0202
     60  CD1       23.7030   12.1800   13.6250 C.ar  107  PHE107     -0.0042
     61  CD2       24.9610   11.5250   15.5860 C.ar  107  PHE107     -0.0042
     62  CE1       24.4430   11.2490   12.8230 C.ar  107  PHE107     -0.0003
     63  CE2       25.7120   10.5980   14.8090 C.ar  107  PHE107     -0.0003
     64  CZ        25.4690   10.4800   13.4330 C.ar  107  PHE107     -0.0000
     65  N         21.4530   15.8390   15.9950 N.am  108  GLU108     -0.1965
     66  CA        20.2980   16.0900   16.8970 C.3   108  GLU108      0.1733
     67  C         20.3050   15.1510   18.1150 C.2   108  GLU108      0.2616
     68  O         20.7610   13.9800   18.0390 O.2   108  GLU108     -0.2715
     69  CB        19.0020   15.8540   16.1300 C.3   108  GLU108      0.0429
     70  CG        18.6220   14.3190   15.9810 C.3   108  GLU108      0.1163
     71  CD        17.3510   14.1200   15.1350 C.2   108  GLU108      0.3649
     72  OE1       16.2240   14.4790   15.5450 O.co2 108  GLU108     -0.2457
     73  OE2       17.5130   13.6630   13.9820 O.co2 108  GLU108     -0.2457
     74  N         19.7650   15.6330   19.2370 N.am  109  TYR109     -0.1960
     75  CA        19.6450   14.8500   20.4660 C.3   109  TYR109      0.1771
     76  C         18.2770   14.2160   20.5200 C.2   109  TYR109      0.2619
     77  O         17.3060   14.9100   20.3530 O.2   109  TYR109     -0.2715
     78  CB        19.7620   15.7630   21.6860 C.3   109  TYR109      0.0574
     79  CG        19.4910   15.0420   22.9590 C.ar  109  TYR109     -0.0198
     80  CD1       20.4120   14.1780   23.4720 C.ar  109  TYR109     -0.0009
     81  CD2       18.3080   15.2360   23.6440 C.ar  109  TYR109     -0.0009
     82  CE1       20.1710   13.4770   24.6570 C.ar  109  TYR109      0.0417
     83  CE2       18.0540   14.5770   24.8490 C.ar  109  TYR109      0.0417
     84  CZ        18.9900   13.6880   25.3330 C.ar  109  TYR109      0.1957
     85  OH        18.7620   13.0140   26.5120 O.3   109  TYR109     -0.2866
     86  N         18.2090   12.9000   20.7310 N.am  110  VAL110     -0.1977
     87  CA        16.9380   12.2450   20.9710 C.3   110  VAL110      0.1596
     88  C         16.9340   11.7550   22.3810 C.2   110  VAL110      0.2287
     89  O         17.9140   11.2300   22.8830 O.2   110  VAL110     -0.2864
     90  CB        16.6490   11.0540   20.0520 C.3   110  VAL110      0.0276
     91  CG1       15.4060   10.3340   20.5580 C.3   110  VAL110      0.0022
     92  CG2       16.4420   11.5350   18.6210 C.3   110  VAL110      0.0022
     93  N         16.0900    9.1110   24.5630 N.3   112  ASN112     -0.1240
     94  CA        15.6910    7.7100   24.3400 C.3   112  ASN112      0.1653
     95  C         15.4010    6.9460   25.5890 C.2   112  ASN112      0.2266
     96  O         15.9450    7.2750   26.6290 O.2   112  ASN112     -0.2867
     97  CB        16.8560    7.0150   23.6390 C.3   112  ASN112      0.1155
     98  CG        16.6080    5.5360   23.3440 C.2   112  ASN112      0.2627
     99  OD1       15.6630    5.1780   22.6510 O.2   112  ASN112     -0.2716
    100  ND2       17.4820    4.6790   23.8470 N.am  112  ASN112     -0.0877
    101  N         18.2060   -1.8290   18.9510 N.3   154  HIS154     -0.1241
    102  CA        19.3330   -0.9620   19.2970 C.3   154  HIS154      0.1621
    103  C         19.5710    0.2460   18.3390 C.2   154  HIS154      0.2264
    104  O         20.1820    1.2850   18.7280 O.2   154  HIS154     -0.2867
    105  CB        20.6490   -1.8200   19.3810 C.3   154  HIS154      0.0745
    106  CG        20.4000   -3.2810   19.6630 C.ar  154  HIS154      0.0817
    107  ND1       20.9200   -3.9330   20.7660 N.ar  154  HIS154     -0.2268
    108  CD2       19.6270   -4.1990   19.0060 C.ar  154  HIS154      0.1154
    109  CE1       20.5150   -5.1950   20.7530 C.ar  154  HIS154      0.1986
    110  NE2       19.7190   -5.3790   19.7050 N.ar  154  HIS154     -0.2212
    111  N         15.9850    4.8410   17.8270 N.3   157  MET157     -0.1245
    112  CA        15.8240    5.6000   19.1050 C.3   157  MET157      0.1570
    113  C         14.3620    6.1290   19.3030 C.2   157  MET157      0.2261
    114  O         13.7800    6.6540   18.3690 O.2   157  MET157     -0.2867
    115  CB        16.8000    6.7730   19.1170 C.3   157  MET157      0.0387
    116  CG        18.2560    6.3780   19.1350 C.3   157  MET157      0.0595
    117  SD        18.7090    5.6990   20.7300 S.3   157  MET157     -0.1393
    118  CE        18.8820    3.9460   20.4180 C.3   157  MET157      0.0692
    119  N         18.6910    5.2010   13.4280 N.3   168  ILE168     -0.1231
    120  CA        20.1060    5.5760   13.5770 C.3   168  ILE168      0.1692
    121  C         21.1160    4.5760   13.0600 C.2   168  ILE168      0.2592
    122  O         20.7350    3.5010   12.6180 O.2   168  ILE168     -0.2718
    123  CB        20.4480    5.9540   14.9950 C.3   168  ILE168      0.0266
    124  CG1       20.3460    4.7430   15.9530 C.3   168  ILE168      0.0019
    125  CG2       19.4970    7.0900   15.4420 C.3   168  ILE168      0.0020
    126  CD1       21.3620    4.7490   17.0730 C.3   168  ILE168      0.0001
    127  N         22.3970    5.0040   13.0580 N.am  169  ASP169     -0.1974
    128  CA        23.5300    4.1790   12.7870 C.3   169  ASP169      0.1709
    129  C         23.5160    3.6230   11.3530 C.2   169  ASP169      0.2293
    130  O         23.2730    2.4200   11.1000 O.2   169  ASP169     -0.2864
    131  CB        23.6490    3.0460   13.7750 C.3   169  ASP169      0.1436
    132  CG        25.0760    2.5380   13.9050 C.2   169  ASP169      0.3671
    133  OD1       25.9720    2.9090   13.0510 O.co2 169  ASP169     -0.2456
    134  OD2       25.2780    1.7330   14.8570 O.co2 169  ASP169     -0.2456
@<TRIPOS>BOND
     1    50    49    1
     2   130   129    2
     3   129   128    1
     4    47    48    1
     5    49    48    1
     6    52    51    1
     7    48    51    1
     8   122   121    2
     9   128   127    1
    10   128   131    1
    11    62    64   ar
    12    62    60   ar
    13    51    53    1
    14   133   132   ar
    15   127   121   am
    16   121   120    1
    17   119   120    1
    18    64    63   ar
    19   120   123    1
    20    46    45    1
    21    60    59   ar
    22   131   132    1
    23   132   134   ar
    24    73    71   ar
    25    63    61   ar
    26    45    44    1
    27   123   125    1
    28   123   124    1
    29    59    61   ar
    30    59    58    1
    31    44    43    1
    32    71    72   ar
    33    71    70    1
    34    55    58    1
    35    55    54    1
    36    55    56    1
    37   124   126    1
    38    70    69    1
    39    65    56   am
    40    65    66    1
    41    69    66    1
    42    43    42    1
    43    41    40    2
    44    56    57    2
    45    66    67    1
    46    42    39    1
    47    40    39    1
    48   111   112    1
    49    39    38    1
    50    68    67    2
    51    67    74   am
    52   103   104    2
    53   103   102    1
    54   114   113    2
    55    33    32    2
    56    92    90    1
    57   101   102    1
    58   108   106   ar
    59   108   110   ar
    60   112   115    1
    61   112   113    1
    62   115   116    1
    63   116   117    1
    64    74    75    1
    65   102   105    1
    66   105   106    1
    67    32    31    1
    68   106   107   ar
    69   110   109   ar
    70    34    36    1
    71    34    31    1
    72    34    35    1
    73    29    27    1
    74    90    91    1
    75    90    87    1
    76    30    31    1
    77    77    76    2
    78   118   117    1
    79    75    76    1
    80    75    78    1
    81    76    86   am
    82    86    87    1
    83   109   107   ar
    84    35    37    1
    85    87    88    1
    86    28    27    1
    87    27    24    1
    88    14    15    2
    89    14    13    1
    90    78    79    1
    91    24    23    1
    92    24    25    1
    93    88    89    2
    94    13    12    1
    95    13    16    1
    96    99    98    2
    97    79    80   ar
    98    79    81   ar
    99    25    26    2
   100    12    10   am
   101    98    97    1
   102    98   100   am
   103    16    17    1
   104    80    82   ar
   105    21    20    1
   106    10    11    2
   107    10     9    1
   108    97    94    1
   109    81    83   ar
   110    18    17    1
   111    18    19    1
   112     9     8    1
   113    94    93    1
   114    94    95    1
   115     7     5    1
   116    20    19    2
   117    20    22    1
   118    82    84   ar
   119    83    84   ar
   120     8     3   am
   121    84    85    1
   122    95    96    2
   123     4     3    2
   124     3     2    1
   125     5     2    1
   126     5     6    1
   127     2     1    1
