@<TRIPOS>MOLECULE
tmp/3kxoA00.pdb
 145 140 0 0 0
SMALL
GASTEIGER

@<TRIPOS>ATOM
      1  N         22.6520   -4.8960   27.9950 N.3     7  TYR7       -0.1227
      2  CA        22.6470   -4.2020   26.7080 C.3     7  TYR7        0.1736
      3  C         23.7220   -3.1130   26.7490 C.2     7  TYR7        0.2595
      4  O         24.3980   -2.9520   27.7650 O.2     7  TYR7       -0.2718
      5  CB        21.2570   -3.5900   26.4200 C.3     7  TYR7        0.0548
      6  CG        21.0900   -3.0850   24.9980 C.ar    7  TYR7       -0.0200
      7  CD1       21.2040   -3.9540   23.9130 C.ar    7  TYR7       -0.0009
      8  CD2       20.8390   -1.7380   24.7370 C.ar    7  TYR7       -0.0009
      9  CE1       21.0630   -3.4980   22.6030 C.ar    7  TYR7        0.0417
     10  CE2       20.7010   -1.2670   23.4280 C.ar    7  TYR7        0.0417
     11  CZ        20.8110   -2.1570   22.3640 C.ar    7  TYR7        0.1957
     12  OH        20.6750   -1.6920   21.0690 O.3     7  TYR7       -0.2866
     13  N         23.9010   -2.3860   25.6510 N.am    8  PHE8       -0.1976
     14  CA        24.7680   -1.2040   25.6530 C.3     8  PHE8        0.1639
     15  C         24.1190   -0.0610   26.4340 C.2     8  PHE8        0.2290
     16  O         22.9170   -0.0900   26.7140 O.2     8  PHE8       -0.2864
     17  CB        25.0390   -0.7170   24.2230 C.3     8  PHE8        0.0560
     18  CG        25.7590   -1.7170   23.3640 C.ar    8  PHE8       -0.0200
     19  CD1       25.1570   -2.2390   22.2290 C.ar    8  PHE8       -0.0042
     20  CD2       27.0400   -2.1480   23.7010 C.ar    8  PHE8       -0.0042
     21  CE1       25.8230   -3.1680   21.4320 C.ar    8  PHE8       -0.0003
     22  CE2       27.7140   -3.0710   22.9090 C.ar    8  PHE8       -0.0003
     23  CZ        27.1040   -3.5820   21.7730 C.ar    8  PHE8       -0.0000
     24  N         22.4720    2.5990   25.9200 N.3    10  MET10      -0.1196
     25  CA        21.6220    3.3290   24.9920 C.3    10  MET10       0.1786
     26  C         20.2150    2.7470   25.0760 C.2    10  MET10       0.2306
     27  O         20.0280    1.6640   25.6280 O.2    10  MET10      -0.2863
     28  CB        22.2070    3.3370   23.5500 C.2    10  MET10       0.0070
     29  CG        22.0090    2.1050   22.6910 C.2    10  MET10       0.0282
     30  SD        23.0760    2.0200   21.1770 S.3    10  MET10      -0.1125
     31  CE        23.6480    3.6880   20.9260 C.3    10  MET10       0.0742
     32  N         18.0200    2.0650   22.3460 N.3    12  GLY12      -0.1210
     33  CA        18.1700    1.0180   21.3430 C.3    12  GLY12       0.1956
     34  C         17.1340   -0.0800   21.4490 C.2    12  GLY12       0.2611
     35  O         15.9450    0.2000   21.6420 O.2    12  GLY12      -0.2717
     36  N         17.6020   -1.3280   21.3430 N.am   13  ARG13      -0.1979
     37  CA        16.7320   -2.5150   21.2950 C.3    13  ARG13       0.1597
     38  C         16.3210   -3.0460   22.6780 C.2    13  ARG13       0.2287
     39  O         15.4960   -3.9520   22.7650 O.2    13  ARG13      -0.2864
     40  CB        17.4060   -3.6340   20.4830 C.3    13  ARG13       0.0334
     41  CG        17.5630   -3.2770   19.0060 C.3    13  ARG13       0.0492
     42  CD        18.1390   -4.3960   18.1550 C.3    13  ARG13       0.2205
     43  NE        17.8330   -4.1580   16.7380 N.pl3  13  ARG13      -0.0865
     44  CZ        18.7200   -3.9220   15.7780 C.cat  13  ARG13       0.5346
     45  NH1       18.2830   -3.7130   14.5480 N.pl3  13  ARG13       0.1354
     46  NH2       20.0280   -3.8870   16.0140 N.pl3  13  ARG13       0.1354
     47  N         31.5870   -0.6300   25.7640 N.3    35  GLN35      -0.1245
     48  CA        32.1460   -1.0210   24.4610 C.3    35  GLN35       0.1566
     49  C         33.5640   -1.5700   24.6520 C.2    35  GLN35       0.2260
     50  O         34.0600   -2.3500   23.8370 O.2    35  GLN35      -0.2867
     51  CB        32.1980    0.1760   23.5060 C.3    35  GLN35       0.0367
     52  CG        31.7700   -0.1450   22.0800 C.3    35  GLN35       0.0905
     53  CD        30.2660   -0.0390   21.8790 C.2    35  GLN35       0.2608
     54  OE1       29.7970    0.3790   20.8180 O.2    35  GLN35      -0.2717
     55  NE2       29.5030   -0.4080   22.9020 N.am   35  GLN35      -0.0878
     56  N         33.0460   -5.2070   25.2540 N.3    38  TRP38      -0.1241
     57  CA        32.1200   -5.8440   24.3100 C.3    38  TRP38       0.1605
     58  C         32.7290   -7.0440   23.5470 C.2    38  TRP38       0.2264
     59  O         32.1820   -8.1500   23.6160 O.2    38  TRP38      -0.2867
     60  CB        31.4900   -4.8320   23.3420 C.3    38  TRP38       0.0550
     61  CG        30.7280   -5.5140   22.2540 C.ar   38  TRP38       0.0003
     62  CD1       30.9410   -5.4090   20.9100 C.ar   38  TRP38       0.0946
     63  CD2       29.6550   -6.4500   22.4200 C.ar   38  TRP38       0.0152
     64  NE1       30.0520   -6.2100   20.2270 N.ar   38  TRP38      -0.2442
     65  CE2       29.2540   -6.8590   21.1320 C.ar   38  TRP38       0.0810
     66  CE3       28.9900   -6.9780   23.5340 C.ar   38  TRP38       0.0012
     67  CZ2       28.2180   -7.7740   20.9260 C.ar   38  TRP38       0.0191
     68  CZ3       27.9610   -7.8790   23.3280 C.ar   38  TRP38       0.0001
     69  CH2       27.5840   -8.2660   22.0330 C.ar   38  TRP38       0.0015
     70  N          9.7820   -2.6970   13.7160 N.3    95  ASP95      -0.1239
     71  CA        11.0890   -3.3010   13.8580 C.3    95  ASP95       0.1674
     72  C         11.7720   -3.5910   12.5210 C.2    95  ASP95       0.2266
     73  O         12.9840   -3.4480   12.4160 O.2    95  ASP95      -0.2867
     74  CB        10.9880   -4.5840   14.6780 C.3    95  ASP95       0.1410
     75  CG        12.3140   -4.9800   15.2830 C.2    95  ASP95       0.3668
     76  OD1       12.9140   -4.1480   16.0080 O.co2  95  ASP95      -0.2456
     77  OD2       12.7500   -6.1160   15.0320 O.co2  95  ASP95      -0.2456
     78  N         13.2570   -0.1690   11.4550 N.3    98  MET98      -0.1245
     79  CA        14.3930    0.2340   12.2830 C.3    98  MET98       0.1570
     80  C         15.6140   -0.6430   11.9860 C.2    98  MET98       0.2261
     81  O         16.7500   -0.1540   12.0260 O.2    98  MET98      -0.2867
     82  CB        14.0540    0.1890   13.7830 C.3    98  MET98       0.0387
     83  CG        12.9080    1.1200   14.2240 C.3    98  MET98       0.0595
     84  SD        13.0550    2.8370   13.6730 S.3    98  MET98      -0.1393
     85  CE        14.3340    3.4210   14.7870 C.3    98  MET98       0.0692
     86  N         23.3250    0.5910   11.2650 N.3   103  TRP103     -0.1227
     87  CA        23.8090    1.2430   12.4910 C.3   103  TRP103      0.1737
     88  C         25.3060    1.0740   12.7190 C.2   103  TRP103      0.2595
     89  O         25.9320    1.9160   13.3640 O.2   103  TRP103     -0.2718
     90  CB        23.0810    0.6840   13.7160 C.3   103  TRP103      0.0564
     91  CG        21.6150    0.8400   13.6630 C.ar  103  TRP103      0.0003
     92  CD1       20.7060   -0.1170   13.3370 C.ar  103  TRP103      0.0946
     93  CD2       20.8730    2.0300   13.9360 C.ar  103  TRP103      0.0152
     94  NE1       19.4370    0.4000   13.3920 N.ar  103  TRP103     -0.2442
     95  CE2       19.5100    1.7190   13.7590 C.ar  103  TRP103      0.0810
     96  CE3       21.2260    3.3290   14.3230 C.ar  103  TRP103      0.0012
     97  CZ2       18.4940    2.6640   13.9460 C.ar  103  TRP103      0.0191
     98  CZ3       20.2140    4.2660   14.5160 C.ar  103  TRP103      0.0001
     99  CH2       18.8670    3.9280   14.3260 C.ar  103  TRP103      0.0015
    100  N         25.8660   -0.0260   12.2240 N.am  104  ALA104     -0.1980
    101  CA        27.2770   -0.3520   12.4490 C.3   104  ALA104      0.1597
    102  C         28.1310   -0.1240   11.2030 C.2   104  ALA104      0.2287
    103  O         29.2900   -0.5390   11.1630 O.2   104  ALA104     -0.2864
    104  CB        27.4140   -1.8030   12.9260 C.3   104  ALA104      0.0319
    105  N          6.2430    0.6820   21.7820 N.3   151  TYR151     -0.1241
    106  CA         7.2300    0.5210   20.7200 C.3   151  TYR151      0.1605
    107  C          7.1270    1.6220   19.6610 C.2   151  TYR151      0.2264
    108  O          8.1510    2.0550   19.1200 O.2   151  TYR151     -0.2867
    109  CB         7.1560   -0.8790   20.0880 C.3   151  TYR151      0.0534
    110  CG         8.4900   -1.3460   19.5160 C.ar  151  TYR151     -0.0201
    111  CD1        9.6570   -1.2450   20.2590 C.ar  151  TYR151     -0.0009
    112  CD2        8.5800   -1.8730   18.2370 C.ar  151  TYR151     -0.0009
    113  CE1       10.8840   -1.6510   19.7520 C.ar  151  TYR151      0.0417
    114  CE2        9.8130   -2.2960   17.7150 C.ar  151  TYR151      0.0417
    115  CZ        10.9530   -2.1760   18.4840 C.ar  151  TYR151      0.1957
    116  OH        12.1650   -2.5700   18.0020 O.3   151  TYR151     -0.2866
    117  N          8.9060    4.5540   21.3100 N.3   154  ILE154     -0.1231
    118  CA        10.3390    4.2610   21.3510 C.3   154  ILE154      0.1692
    119  C         11.0060    4.4890   19.9880 C.2   154  ILE154      0.2592
    120  O         11.9730    5.2590   19.8770 O.2   154  ILE154     -0.2718
    121  CB        10.5940    2.7990   21.8540 C.3   154  ILE154      0.0266
    122  CG1       10.3230    2.7060   23.3590 C.3   154  ILE154      0.0019
    123  CG2       12.0180    2.3450   21.5470 C.3   154  ILE154      0.0020
    124  CD1       10.3030    1.3010   23.9050 C.3   154  ILE154      0.0001
    125  N         10.4750    3.8360   18.9550 N.am  155  CYS155     -0.1970
    126  CA        11.0330    3.9380   17.6010 C.3   155  CYS155      0.1712
    127  C         11.0060    5.3740   17.0760 C.2   155  CYS155      0.2296
    128  O         12.0080    5.8770   16.5600 O.2   155  CYS155     -0.2864
    129  CB        10.2870    3.0100   16.6360 C.3   155  CYS155      0.0983
    130  SG        10.5290    1.2570   16.9650 S.3   155  CYS155     -0.0798
    131  N         13.6710    7.8210   18.3790 N.3   158  THR158     -0.1218
    132  CA        14.9540    7.7070   17.6740 C.3   158  THR158      0.1862
    133  C         14.8780    8.3140   16.2680 C.2   158  THR158      0.2287
    134  O         15.7930    9.0300   15.8430 O.2   158  THR158     -0.2866
    135  CB        15.4430    6.2480   17.6260 C.3   158  THR158      0.1770
    136  OG1       15.8570    5.8610   18.9410 O.3   158  THR158     -0.2211
    137  CG2       16.6230    6.0890   16.6650 C.3   158  THR158      0.0375
    138  N         20.9490    7.6390   21.3110 N.3   198  LEU198     -0.1245
    139  CA        20.1800    6.5280   20.7560 C.3   198  LEU198      0.1561
    140  C         19.7030    5.5680   21.8420 C.2   198  LEU198      0.2260
    141  O         19.9190    5.7860   23.0450 O.2   198  LEU198     -0.2867
    142  CB        21.0280    5.7660   19.7310 C.3   198  LEU198      0.0270
    143  CG        21.6770    6.6070   18.6360 C.3   198  LEU198      0.0019
    144  CD1       22.4500    5.7100   17.6850 C.3   198  LEU198      0.0001
    145  CD2       20.6310    7.4220   17.8970 C.3   198  LEU198      0.0001
@<TRIPOS>BOND
     1   103   102    2
     2   102   101    1
     3    86    87    1
     4    78    79    1
     5    80    81    2
     6    80    79    1
     7   100   101    1
     8   100    88   am
     9    79    82    1
    10    73    72    2
    11   101   104    1
    12    87    88    1
    13    87    90    1
    14    72    71    1
    15    88    89    2
    16    92    94   ar
    17    92    91   ar
    18    94    95   ar
    19    91    90    1
    20    91    93   ar
    21    84    83    1
    22    84    85    1
    23    70    71    1
    24    95    93   ar
    25    95    97   ar
    26    82    83    1
    27    71    74    1
    28    93    96   ar
    29    97    99   ar
    30    96    98   ar
    31    99    98   ar
    32    45    44    1
    33    74    75    1
    34    77    75   ar
    35    75    76   ar
    36    44    46    1
    37    44    43    2
    38   134   133    2
    39   133   132    1
    40   128   127    2
    41   129   130    1
    42   129   126    1
    43   137   135    1
    44    43    42    1
    45   127   126    1
    46   126   125    1
    47   135   132    1
    48   135   136    1
    49   132   131    1
    50   144   143    1
    51   114   112   ar
    52   114   115   ar
    53   145   143    1
    54   116   115    1
    55    42    41    1
    56   112   110   ar
    57   115   113   ar
    58   143   142    1
    59   125   119   am
    60    41    40    1
    61   108   107    2
    62   110   109    1
    63   110   111   ar
    64   107   106    1
    65   142   139    1
    66   113   111   ar
    67   120   119    2
    68   119   118    1
    69   109   106    1
    70    64    62   ar
    71    64    65   ar
    72    40    37    1
    73   106   105    1
    74   139   138    1
    75   139   140    1
    76    54    53    2
    77    62    61   ar
    78    67    65   ar
    79    67    69   ar
    80    31    30    1
    81    12    11    1
    82    65    63   ar
    83    30    29    1
    84    37    36    1
    85    37    38    1
    86   117   118    1
    87    36    34   am
    88    33    34    1
    89    33    32    1
    90   118   121    1
    91    21    23   ar
    92    21    19   ar
    93    34    35    2
    94   123   121    1
    95    23    22   ar
    96   140   141    2
    97   121   122    1
    98    53    52    1
    99    53    55   am
   100    69    68   ar
   101    52    51    1
   102    19    18   ar
   103    61    63   ar
   104    61    60    1
   105    11     9   ar
   106    11    10   ar
   107    63    66   ar
   108     9     7   ar
   109    38    39    2
   110    29    28    2
   111    22    20   ar
   112    68    66   ar
   113    60    57    1
   114   122   124    1
   115    18    20   ar
   116    18    17    1
   117    10     8   ar
   118    51    48    1
   119    58    59    2
   120    58    57    1
   121    28    25    1
   122    50    49    2
   123     7     6   ar
   124    17    14    1
   125    57    56    1
   126    48    49    1
   127    48    47    1
   128     8     6   ar
   129    25    26    1
   130    25    24    1
   131     6     5    1
   132    26    27    2
   133    13    14    1
   134    13     3   am
   135    14    15    1
   136     5     2    1
   137    15    16    2
   138     2     3    1
   139     2     1    1
   140     3     4    2
